MODEL 1
REMARK VINA RESULT:    -7.601      0.000      0.000
REMARK INTER + INTRA:         -10.851
REMARK INTER:                 -10.267
REMARK INTRA:                  -0.584
REMARK UNBOUND:                -0.584
REMARK  Name = 
REMARK  6 active torsions:
REMARK  status: ('A' for Active; 'I' for Inactive)
REMARK    1  A    between atoms: C_2  and  C_3
REMARK    2  A    between atoms: C_3  and  N_4
REMARK    3  A    between atoms: C_5  and  C_7
REMARK    4  A    between atoms: N_17  and  C_18
REMARK    5  A    between atoms: C_18  and  C_19
REMARK    6  A    between atoms: C_22  and  C_23
REMARK                            x       y       z     vdW  Elec       q    Type
REMARK                         _______ _______ _______ _____ _____    ______ ____
ROOT
ATOM      1  O   UNL     1      46.854   2.986  17.688  0.00  0.00    +0.000 OA
ATOM      2  C   UNL     1      47.322   4.093  17.435  0.00  0.00    +0.000 C 
ATOM      3  N   UNL     1      47.105   4.770  16.258  0.00  0.00    +0.000 N 
ATOM      4  H   UNL     1      47.338   5.760  16.231  0.00  0.00    +0.000 HD
ENDROOT
BRANCH   2   5
ATOM      5  C   UNL     1      48.164   4.869  18.450  0.00  0.00    +0.000 C 
BRANCH   5   6
ATOM      6  N   UNL     1      49.507   4.330  18.519  0.00  0.00    +0.000 N 
ATOM      7  C   UNL     1      50.470   4.658  17.606  0.00  0.00    +0.000 C 
ATOM      8  O   UNL     1      50.248   5.455  16.697  0.00  0.00    +0.000 OA
ATOM      9  H   UNL     1      49.691   3.642  19.242  0.00  0.00    +0.000 HD
BRANCH   7  10
ATOM     10  C   UNL     1      51.798   4.063  17.813  0.00  0.00    +0.000 A 
ATOM     11  C   UNL     1      52.874   4.879  18.140  0.00  0.00    +0.000 A 
ATOM     12  S   UNL     1      54.326   4.023  18.396  0.00  0.00    +0.000 S 
ATOM     13  C   UNL     1      53.584   2.538  18.027  0.00  0.00    +0.000 A 
ATOM     14  N   UNL     1      54.295   1.379  18.042  0.00  0.00    +0.000 NA
ATOM     15  C   UNL     1      53.616   0.332  17.710  0.00  0.00    +0.000 A 
ATOM     16  N   UNL     1      52.288   0.341  17.362  0.00  0.00    +0.000 N 
ATOM     17  C   UNL     1      51.521   1.480  17.374  0.00  0.00    +0.000 A 
ATOM     18  O   UNL     1      50.319   1.439  17.129  0.00  0.00    +0.000 OA
ATOM     19  C   UNL     1      52.240   2.690  17.727  0.00  0.00    +0.000 A 
ATOM     20  H   UNL     1      51.814  -0.518  17.122  0.00  0.00    +0.000 HD
ENDBRANCH   7  10
ENDBRANCH   5   6
ENDBRANCH   2   5
BRANCH   3  21
ATOM     21  C   UNL     1      46.322   4.213  15.170  0.00  0.00    +0.000 C 
BRANCH  21  22
ATOM     22  C   UNL     1      46.858   4.657  13.795  0.00  0.00    +0.000 C 
ATOM     23  C   UNL     1      46.722   3.568  12.721  0.00  0.00    +0.000 C 
ATOM     24  C   UNL     1      45.277   3.344  12.268  0.00  0.00    +0.000 C 
ATOM     25  C   UNL     1      44.622   4.639  11.767  0.00  0.00    +0.000 C 
ATOM     26  C   UNL     1      44.757   5.757  12.814  0.00  0.00    +0.000 C 
ATOM     27  C   UNL     1      46.182   5.956  13.342  0.00  0.00    +0.000 C 
BRANCH  25  28
ATOM     28  C   UNL     1      45.195   5.050  10.403  0.00  0.00    +0.000 C 
ATOM     29  O   UNL     1      45.678   6.170  10.230  0.00  0.00    +0.000 OA
ATOM     30  N   UNL     1      45.224   4.104   9.393  0.00  0.00    +0.000 N 
ATOM     31  C   UNL     1      44.506   2.825   9.370  0.00  0.00    +0.000 C 
ATOM     32  C   UNL     1      45.381   1.723   8.762  0.00  0.00    +0.000 C 
ATOM     33  O   UNL     1      45.901   2.103   7.480  0.00  0.00    +0.000 OA
ATOM     34  C   UNL     1      46.676   3.309   7.582  0.00  0.00    +0.000 C 
ATOM     35  C   UNL     1      45.816   4.462   8.100  0.00  0.00    +0.000 C 
ENDBRANCH  25  28
ENDBRANCH  21  22
ENDBRANCH   3  21
TORSDOF 6
ENDMDL
MODEL 2
REMARK VINA RESULT:    -7.352      3.004      4.670
REMARK INTER + INTRA:         -10.514
REMARK INTER:                  -9.194
REMARK INTRA:                  -1.321
REMARK UNBOUND:                -0.584
REMARK  Name = 
REMARK  6 active torsions:
REMARK  status: ('A' for Active; 'I' for Inactive)
REMARK    1  A    between atoms: C_2  and  C_3
REMARK    2  A    between atoms: C_3  and  N_4
REMARK    3  A    between atoms: C_5  and  C_7
REMARK    4  A    between atoms: N_17  and  C_18
REMARK    5  A    between atoms: C_18  and  C_19
REMARK    6  A    between atoms: C_22  and  C_23
REMARK                            x       y       z     vdW  Elec       q    Type
REMARK                         _______ _______ _______ _____ _____    ______ ____
ROOT
ATOM      1  O   UNL     1      51.103  10.433  13.345  0.00  0.00    +0.000 OA
ATOM      2  C   UNL     1      50.922   9.394  13.976  0.00  0.00    +0.000 C 
ATOM      3  N   UNL     1      49.690   8.812  14.165  0.00  0.00    +0.000 N 
ATOM      4  H   UNL     1      49.666   7.852  14.497  0.00  0.00    +0.000 HD
ENDROOT
BRANCH   2   5
ATOM      5  C   UNL     1      52.083   8.598  14.578  0.00  0.00    +0.000 C 
BRANCH   5   6
ATOM      6  N   UNL     1      51.602   7.371  15.180  0.00  0.00    +0.000 N 
ATOM      7  C   UNL     1      51.896   7.030  16.471  0.00  0.00    +0.000 C 
ATOM      8  O   UNL     1      52.560   7.770  17.195  0.00  0.00    +0.000 OA
ATOM      9  H   UNL     1      51.086   6.736  14.581  0.00  0.00    +0.000 HD
BRANCH   7  10
ATOM     10  C   UNL     1      51.317   5.773  16.964  0.00  0.00    +0.000 A 
ATOM     11  C   UNL     1      52.154   4.743  17.372  0.00  0.00    +0.000 A 
ATOM     12  S   UNL     1      51.321   3.378  17.964  0.00  0.00    +0.000 S 
ATOM     13  C   UNL     1      49.810   4.093  17.648  0.00  0.00    +0.000 A 
ATOM     14  N   UNL     1      48.654   3.428  17.915  0.00  0.00    +0.000 NA
ATOM     15  C   UNL     1      47.582   4.073  17.595  0.00  0.00    +0.000 A 
ATOM     16  N   UNL     1      47.563   5.324  17.031  0.00  0.00    +0.000 N 
ATOM     17  C   UNL     1      48.703   6.050  16.784  0.00  0.00    +0.000 A 
ATOM     18  O   UNL     1      48.645   7.194  16.347  0.00  0.00    +0.000 OA
ATOM     19  C   UNL     1      49.939   5.364  17.112  0.00  0.00    +0.000 A 
ATOM     20  H   UNL     1      46.686   5.777  16.815  0.00  0.00    +0.000 HD
ENDBRANCH   7  10
ENDBRANCH   5   6
ENDBRANCH   2   5
BRANCH   3  21
ATOM     21  C   UNL     1      48.463   9.402  13.662  0.00  0.00    +0.000 C 
BRANCH  21  22
ATOM     22  C   UNL     1      48.049   8.793  12.308  0.00  0.00    +0.000 C 
ATOM     23  C   UNL     1      48.435   7.313  12.175  0.00  0.00    +0.000 C 
ATOM     24  C   UNL     1      47.578   6.386  13.039  0.00  0.00    +0.000 C 
ATOM     25  C   UNL     1      46.079   6.551  12.750  0.00  0.00    +0.000 C 
ATOM     26  C   UNL     1      45.663   8.027  12.858  0.00  0.00    +0.000 C 
ATOM     27  C   UNL     1      46.549   8.990  12.061  0.00  0.00    +0.000 C 
BRANCH  25  28
ATOM     28  C   UNL     1      45.715   5.943  11.388  0.00  0.00    +0.000 C 
ATOM     29  O   UNL     1      46.347   6.240  10.372  0.00  0.00    +0.000 OA
ATOM     30  N   UNL     1      44.707   4.995  11.341  0.00  0.00    +0.000 N 
ATOM     31  C   UNL     1      43.733   4.700  12.397  0.00  0.00    +0.000 C 
ATOM     32  C   UNL     1      43.478   3.192  12.494  0.00  0.00    +0.000 C 
ATOM     33  O   UNL     1      43.121   2.630  11.222  0.00  0.00    +0.000 OA
ATOM     34  C   UNL     1      44.157   2.866  10.253  0.00  0.00    +0.000 C 
ATOM     35  C   UNL     1      44.382   4.366  10.058  0.00  0.00    +0.000 C 
ENDBRANCH  25  28
ENDBRANCH  21  22
ENDBRANCH   3  21
TORSDOF 6
ENDMDL
MODEL 3
REMARK VINA RESULT:    -7.034      3.138      4.451
REMARK INTER + INTRA:         -10.084
REMARK INTER:                  -9.587
REMARK INTRA:                  -0.497
REMARK UNBOUND:                -0.584
REMARK  Name = 
REMARK  6 active torsions:
REMARK  status: ('A' for Active; 'I' for Inactive)
REMARK    1  A    between atoms: C_2  and  C_3
REMARK    2  A    between atoms: C_3  and  N_4
REMARK    3  A    between atoms: C_5  and  C_7
REMARK    4  A    between atoms: N_17  and  C_18
REMARK    5  A    between atoms: C_18  and  C_19
REMARK    6  A    between atoms: C_22  and  C_23
REMARK                            x       y       z     vdW  Elec       q    Type
REMARK                         _______ _______ _______ _____ _____    ______ ____
ROOT
ATOM      1  O   UNL     1      45.635   8.710  11.782  0.00  0.00    +0.000 OA
ATOM      2  C   UNL     1      46.012   8.253  12.859  0.00  0.00    +0.000 C 
ATOM      3  N   UNL     1      45.535   7.087  13.410  0.00  0.00    +0.000 N 
ATOM      4  H   UNL     1      46.060   6.677  14.178  0.00  0.00    +0.000 HD
ENDROOT
BRANCH   2   5
ATOM      5  C   UNL     1      47.114   8.924  13.683  0.00  0.00    +0.000 C 
BRANCH   5   6
ATOM      6  N   UNL     1      47.495   8.086  14.802  0.00  0.00    +0.000 N 
ATOM      7  C   UNL     1      48.690   7.422  14.839  0.00  0.00    +0.000 C 
ATOM      8  O   UNL     1      49.513   7.530  13.932  0.00  0.00    +0.000 OA
ATOM      9  H   UNL     1      46.809   7.960  15.538  0.00  0.00    +0.000 HD
BRANCH   7  10
ATOM     10  C   UNL     1      48.963   6.634  16.048  0.00  0.00    +0.000 A 
ATOM     11  C   UNL     1      49.895   7.090  16.971  0.00  0.00    +0.000 A 
ATOM     12  S   UNL     1      50.052   6.084  18.339  0.00  0.00    +0.000 S 
ATOM     13  C   UNL     1      48.920   4.974  17.724  0.00  0.00    +0.000 A 
ATOM     14  N   UNL     1      48.601   3.846  18.414  0.00  0.00    +0.000 NA
ATOM     15  C   UNL     1      47.755   3.076  17.815  0.00  0.00    +0.000 A 
ATOM     16  N   UNL     1      47.198   3.333  16.587  0.00  0.00    +0.000 N 
ATOM     17  C   UNL     1      47.457   4.479  15.875  0.00  0.00    +0.000 A 
ATOM     18  O   UNL     1      46.885   4.710  14.815  0.00  0.00    +0.000 OA
ATOM     19  C   UNL     1      48.416   5.374  16.497  0.00  0.00    +0.000 A 
ATOM     20  H   UNL     1      46.533   2.691  16.180  0.00  0.00    +0.000 HD
ENDBRANCH   7  10
ENDBRANCH   5   6
ENDBRANCH   2   5
BRANCH   3  21
ATOM     21  C   UNL     1      44.496   6.294  12.780  0.00  0.00    +0.000 C 
BRANCH  21  22
ATOM     22  C   UNL     1      44.999   4.886  12.406  0.00  0.00    +0.000 C 
ATOM     23  C   UNL     1      43.879   3.967  11.896  0.00  0.00    +0.000 C 
ATOM     24  C   UNL     1      43.384   4.339  10.497  0.00  0.00    +0.000 C 
ATOM     25  C   UNL     1      44.526   4.371   9.471  0.00  0.00    +0.000 C 
ATOM     26  C   UNL     1      45.672   5.271   9.961  0.00  0.00    +0.000 C 
ATOM     27  C   UNL     1      46.142   4.970  11.388  0.00  0.00    +0.000 C 
BRANCH  25  28
ATOM     28  C   UNL     1      45.003   2.950   9.140  0.00  0.00    +0.000 C 
ATOM     29  O   UNL     1      44.477   1.966   9.664  0.00  0.00    +0.000 OA
ATOM     30  N   UNL     1      45.990   2.797   8.181  0.00  0.00    +0.000 N 
ATOM     31  C   UNL     1      46.853   3.850   7.636  0.00  0.00    +0.000 C 
ATOM     32  C   UNL     1      47.063   3.654   6.131  0.00  0.00    +0.000 C 
ATOM     33  O   UNL     1      47.526   2.330   5.826  0.00  0.00    +0.000 OA
ATOM     34  C   UNL     1      46.593   1.344   6.298  0.00  0.00    +0.000 C 
ATOM     35  C   UNL     1      46.420   1.444   7.814  0.00  0.00    +0.000 C 
ENDBRANCH  25  28
ENDBRANCH  21  22
ENDBRANCH   3  21
TORSDOF 6
ENDMDL
MODEL 4
REMARK VINA RESULT:    -6.774      5.962      9.236
REMARK INTER + INTRA:          -9.734
REMARK INTER:                  -9.361
REMARK INTRA:                  -0.372
REMARK UNBOUND:                -0.584
REMARK  Name = 
REMARK  6 active torsions:
REMARK  status: ('A' for Active; 'I' for Inactive)
REMARK    1  A    between atoms: C_2  and  C_3
REMARK    2  A    between atoms: C_3  and  N_4
REMARK    3  A    between atoms: C_5  and  C_7
REMARK    4  A    between atoms: N_17  and  C_18
REMARK    5  A    between atoms: C_18  and  C_19
REMARK    6  A    between atoms: C_22  and  C_23
REMARK                            x       y       z     vdW  Elec       q    Type
REMARK                         _______ _______ _______ _____ _____    ______ ____
ROOT
ATOM      1  O   UNL     1      45.043   3.640  13.301  0.00  0.00    +0.000 OA
ATOM      2  C   UNL     1      44.193   4.010  12.495  0.00  0.00    +0.000 C 
ATOM      3  N   UNL     1      43.930   5.328  12.203  0.00  0.00    +0.000 N 
ATOM      4  H   UNL     1      43.381   5.528  11.371  0.00  0.00    +0.000 HD
ENDROOT
BRANCH   2   5
ATOM      5  C   UNL     1      43.363   3.017  11.678  0.00  0.00    +0.000 C 
BRANCH   5   6
ATOM      6  N   UNL     1      44.199   2.316  10.725  0.00  0.00    +0.000 N 
ATOM      7  C   UNL     1      44.542   2.862   9.519  0.00  0.00    +0.000 C 
ATOM      8  O   UNL     1      44.180   3.993   9.200  0.00  0.00    +0.000 OA
ATOM      9  H   UNL     1      44.472   1.368  10.961  0.00  0.00    +0.000 HD
BRANCH   7  10
ATOM     10  C   UNL     1      45.422   2.055   8.662  0.00  0.00    +0.000 A 
ATOM     11  C   UNL     1      45.361   0.669   8.724  0.00  0.00    +0.000 A 
ATOM     12  S   UNL     1      46.410  -0.111   7.629  0.00  0.00    +0.000 S 
ATOM     13  C   UNL     1      47.022   1.374   7.069  0.00  0.00    +0.000 A 
ATOM     14  N   UNL     1      47.989   1.415   6.114  0.00  0.00    +0.000 NA
ATOM     15  C   UNL     1      48.386   2.605   5.807  0.00  0.00    +0.000 A 
ATOM     16  N   UNL     1      47.902   3.759   6.371  0.00  0.00    +0.000 N 
ATOM     17  C   UNL     1      46.895   3.768   7.306  0.00  0.00    +0.000 A 
ATOM     18  O   UNL     1      46.436   4.821   7.734  0.00  0.00    +0.000 OA
ATOM     19  C   UNL     1      46.423   2.453   7.698  0.00  0.00    +0.000 A 
ATOM     20  H   UNL     1      48.250   4.660   6.076  0.00  0.00    +0.000 HD
ENDBRANCH   7  10
ENDBRANCH   5   6
ENDBRANCH   2   5
BRANCH   3  21
ATOM     21  C   UNL     1      44.618   6.425  12.859  0.00  0.00    +0.000 C 
BRANCH  21  22
ATOM     22  C   UNL     1      45.414   7.283  11.857  0.00  0.00    +0.000 C 
ATOM     23  C   UNL     1      45.644   8.719  12.349  0.00  0.00    +0.000 C 
ATOM     24  C   UNL     1      46.664   8.810  13.486  0.00  0.00    +0.000 C 
ATOM     25  C   UNL     1      48.011   8.179  13.106  0.00  0.00    +0.000 C 
ATOM     26  C   UNL     1      47.812   6.744  12.591  0.00  0.00    +0.000 C 
ATOM     27  C   UNL     1      46.744   6.608  11.501  0.00  0.00    +0.000 C 
BRANCH  25  28
ATOM     28  C   UNL     1      48.762   9.059  12.097  0.00  0.00    +0.000 C 
ATOM     29  O   UNL     1      48.150   9.752  11.282  0.00  0.00    +0.000 OA
ATOM     30  N   UNL     1      50.142   9.113  12.174  0.00  0.00    +0.000 N 
ATOM     31  C   UNL     1      51.014   8.203  12.924  0.00  0.00    +0.000 C 
ATOM     32  C   UNL     1      52.164   8.972  13.583  0.00  0.00    +0.000 C 
ATOM     33  O   UNL     1      52.875   9.781  12.634  0.00  0.00    +0.000 OA
ATOM     34  C   UNL     1      51.989  10.720  12.001  0.00  0.00    +0.000 C 
ATOM     35  C   UNL     1      50.872   9.989  11.253  0.00  0.00    +0.000 C 
ENDBRANCH  25  28
ENDBRANCH  21  22
ENDBRANCH   3  21
TORSDOF 6
ENDMDL
MODEL 5
REMARK VINA RESULT:    -6.451      2.664      4.445
REMARK INTER + INTRA:          -9.297
REMARK INTER:                  -8.197
REMARK INTRA:                  -1.100
REMARK UNBOUND:                -0.584
REMARK  Name = 
REMARK  6 active torsions:
REMARK  status: ('A' for Active; 'I' for Inactive)
REMARK    1  A    between atoms: C_2  and  C_3
REMARK    2  A    between atoms: C_3  and  N_4
REMARK    3  A    between atoms: C_5  and  C_7
REMARK    4  A    between atoms: N_17  and  C_18
REMARK    5  A    between atoms: C_18  and  C_19
REMARK    6  A    between atoms: C_22  and  C_23
REMARK                            x       y       z     vdW  Elec       q    Type
REMARK                         _______ _______ _______ _____ _____    ______ ____
ROOT
ATOM      1  O   UNL     1      48.642   2.171  15.898  0.00  0.00    +0.000 OA
ATOM      2  C   UNL     1      48.671   3.237  16.507  0.00  0.00    +0.000 C 
ATOM      3  N   UNL     1      47.744   4.241  16.348  0.00  0.00    +0.000 N 
ATOM      4  H   UNL     1      47.719   4.977  17.049  0.00  0.00    +0.000 HD
ENDROOT
BRANCH   2   5
ATOM      5  C   UNL     1      49.733   3.537  17.568  0.00  0.00    +0.000 C 
BRANCH   5   6
ATOM      6  N   UNL     1      49.606   4.898  18.047  0.00  0.00    +0.000 N 
ATOM      7  C   UNL     1      50.634   5.797  17.965  0.00  0.00    +0.000 C 
ATOM      8  O   UNL     1      51.709   5.498  17.448  0.00  0.00    +0.000 OA
ATOM      9  H   UNL     1      48.738   5.145  18.509  0.00  0.00    +0.000 HD
BRANCH   7  10
ATOM     10  C   UNL     1      50.358   7.153  18.459  0.00  0.00    +0.000 A 
ATOM     11  C   UNL     1      51.014   7.619  19.591  0.00  0.00    +0.000 A 
ATOM     12  S   UNL     1      50.619   9.227  19.996  0.00  0.00    +0.000 S 
ATOM     13  C   UNL     1      49.516   9.342  18.706  0.00  0.00    +0.000 A 
ATOM     14  N   UNL     1      48.805  10.482  18.494  0.00  0.00    +0.000 NA
ATOM     15  C   UNL     1      47.980  10.419  17.503  0.00  0.00    +0.000 A 
ATOM     16  N   UNL     1      47.803   9.318  16.703  0.00  0.00    +0.000 N 
ATOM     17  C   UNL     1      48.529   8.162  16.853  0.00  0.00    +0.000 A 
ATOM     18  O   UNL     1      48.396   7.223  16.074  0.00  0.00    +0.000 OA
ATOM     19  C   UNL     1      49.462   8.173  17.965  0.00  0.00    +0.000 A 
ATOM     20  H   UNL     1      47.147   9.340  15.936  0.00  0.00    +0.000 HD
ENDBRANCH   7  10
ENDBRANCH   5   6
ENDBRANCH   2   5
BRANCH   3  21
ATOM     21  C   UNL     1      46.649   4.148  15.401  0.00  0.00    +0.000 C 
BRANCH  21  22
ATOM     22  C   UNL     1      47.041   4.703  14.017  0.00  0.00    +0.000 C 
ATOM     23  C   UNL     1      46.993   3.638  12.911  0.00  0.00    +0.000 C 
ATOM     24  C   UNL     1      45.568   3.234  12.526  0.00  0.00    +0.000 C 
ATOM     25  C   UNL     1      44.717   4.442  12.109  0.00  0.00    +0.000 C 
ATOM     26  C   UNL     1      44.759   5.534  13.190  0.00  0.00    +0.000 C 
ATOM     27  C   UNL     1      46.171   5.911  13.650  0.00  0.00    +0.000 C 
BRANCH  25  28
ATOM     28  C   UNL     1      45.152   4.968  10.734  0.00  0.00    +0.000 C 
ATOM     29  O   UNL     1      45.571   6.119  10.600  0.00  0.00    +0.000 OA
ATOM     30  N   UNL     1      45.132   4.094   9.661  0.00  0.00    +0.000 N 
ATOM     31  C   UNL     1      44.468   2.787   9.609  0.00  0.00    +0.000 C 
ATOM     32  C   UNL     1      45.332   1.770   8.854  0.00  0.00    +0.000 C 
ATOM     33  O   UNL     1      45.722   2.258   7.562  0.00  0.00    +0.000 OA
ATOM     34  C   UNL     1      46.452   3.491   7.683  0.00  0.00    +0.000 C 
ATOM     35  C   UNL     1      45.593   4.565   8.352  0.00  0.00    +0.000 C 
ENDBRANCH  25  28
ENDBRANCH  21  22
ENDBRANCH   3  21
TORSDOF 6
ENDMDL
MODEL 6
REMARK VINA RESULT:    -6.321      3.424      6.564
REMARK INTER + INTRA:          -9.122
REMARK INTER:                  -8.242
REMARK INTRA:                  -0.879
REMARK UNBOUND:                -0.584
REMARK  Name = 
REMARK  6 active torsions:
REMARK  status: ('A' for Active; 'I' for Inactive)
REMARK    1  A    between atoms: C_2  and  C_3
REMARK    2  A    between atoms: C_3  and  N_4
REMARK    3  A    between atoms: C_5  and  C_7
REMARK    4  A    between atoms: N_17  and  C_18
REMARK    5  A    between atoms: C_18  and  C_19
REMARK    6  A    between atoms: C_22  and  C_23
REMARK                            x       y       z     vdW  Elec       q    Type
REMARK                         _______ _______ _______ _____ _____    ______ ____
ROOT
ATOM      1  O   UNL     1      45.829   4.827  12.085  0.00  0.00    +0.000 OA
ATOM      2  C   UNL     1      46.162   5.132  13.228  0.00  0.00    +0.000 C 
ATOM      3  N   UNL     1      46.422   6.420  13.636  0.00  0.00    +0.000 N 
ATOM      4  H   UNL     1      46.466   6.599  14.636  0.00  0.00    +0.000 HD
ENDROOT
BRANCH   2   5
ATOM      5  C   UNL     1      46.266   4.093  14.347  0.00  0.00    +0.000 C 
BRANCH   5   6
ATOM      6  N   UNL     1      47.357   4.417  15.244  0.00  0.00    +0.000 N 
ATOM      7  C   UNL     1      47.379   3.995  16.544  0.00  0.00    +0.000 C 
ATOM      8  O   UNL     1      46.482   3.291  17.006  0.00  0.00    +0.000 OA
ATOM      9  H   UNL     1      48.082   5.029  14.886  0.00  0.00    +0.000 HD
BRANCH   7  10
ATOM     10  C   UNL     1      48.560   4.368  17.334  0.00  0.00    +0.000 A 
ATOM     11  C   UNL     1      48.566   5.562  18.043  0.00  0.00    +0.000 A 
ATOM     12  S   UNL     1      49.990   5.815  18.945  0.00  0.00    +0.000 S 
ATOM     13  C   UNL     1      50.674   4.364  18.380  0.00  0.00    +0.000 A 
ATOM     14  N   UNL     1      51.922   3.983  18.764  0.00  0.00    +0.000 NA
ATOM     15  C   UNL     1      52.331   2.879  18.233  0.00  0.00    +0.000 A 
ATOM     16  N   UNL     1      51.603   2.122  17.350  0.00  0.00    +0.000 N 
ATOM     17  C   UNL     1      50.323   2.444  16.967  0.00  0.00    +0.000 A 
ATOM     18  O   UNL     1      49.675   1.705  16.234  0.00  0.00    +0.000 OA
ATOM     19  C   UNL     1      49.820   3.686  17.525  0.00  0.00    +0.000 A 
ATOM     20  H   UNL     1      51.979   1.261  16.980  0.00  0.00    +0.000 HD
ENDBRANCH   7  10
ENDBRANCH   5   6
ENDBRANCH   2   5
BRANCH   3  21
ATOM     21  C   UNL     1      46.366   7.552  12.731  0.00  0.00    +0.000 C 
BRANCH  21  22
ATOM     22  C   UNL     1      47.205   8.738  13.246  0.00  0.00    +0.000 C 
ATOM     23  C   UNL     1      48.051   8.382  14.477  0.00  0.00    +0.000 C 
ATOM     24  C   UNL     1      49.238   7.473  14.151  0.00  0.00    +0.000 C 
ATOM     25  C   UNL     1      50.143   8.073  13.065  0.00  0.00    +0.000 C 
ATOM     26  C   UNL     1      49.322   8.457  11.824  0.00  0.00    +0.000 C 
ATOM     27  C   UNL     1      48.083   9.308  12.126  0.00  0.00    +0.000 C 
BRANCH  25  28
ATOM     28  C   UNL     1      50.948   9.259  13.619  0.00  0.00    +0.000 C 
ATOM     29  O   UNL     1      50.768  10.401  13.193  0.00  0.00    +0.000 OA
ATOM     30  N   UNL     1      51.828   9.023  14.661  0.00  0.00    +0.000 N 
ATOM     31  C   UNL     1      52.309   7.718  15.123  0.00  0.00    +0.000 C 
ATOM     32  C   UNL     1      52.399   7.682  16.652  0.00  0.00    +0.000 C 
ATOM     33  O   UNL     1      53.167   8.782  17.165  0.00  0.00    +0.000 OA
ATOM     34  C   UNL     1      52.592  10.036  16.761  0.00  0.00    +0.000 C 
ATOM     35  C   UNL     1      52.566  10.152  15.236  0.00  0.00    +0.000 C 
ENDBRANCH  25  28
ENDBRANCH  21  22
ENDBRANCH   3  21
TORSDOF 6
ENDMDL
MODEL 7
REMARK VINA RESULT:    -6.152      3.477      5.156
REMARK INTER + INTRA:          -8.894
REMARK INTER:                  -7.493
REMARK INTRA:                  -1.401
REMARK UNBOUND:                -0.584
REMARK  Name = 
REMARK  6 active torsions:
REMARK  status: ('A' for Active; 'I' for Inactive)
REMARK    1  A    between atoms: C_2  and  C_3
REMARK    2  A    between atoms: C_3  and  N_4
REMARK    3  A    between atoms: C_5  and  C_7
REMARK    4  A    between atoms: N_17  and  C_18
REMARK    5  A    between atoms: C_18  and  C_19
REMARK    6  A    between atoms: C_22  and  C_23
REMARK                            x       y       z     vdW  Elec       q    Type
REMARK                         _______ _______ _______ _____ _____    ______ ____
ROOT
ATOM      1  O   UNL     1      52.231   8.169  14.313  0.00  0.00    +0.000 OA
ATOM      2  C   UNL     1      51.677   8.963  15.070  0.00  0.00    +0.000 C 
ATOM      3  N   UNL     1      50.585   9.724  14.724  0.00  0.00    +0.000 N 
ATOM      4  H   UNL     1      50.064  10.172  15.473  0.00  0.00    +0.000 HD
ENDROOT
BRANCH   2   5
ATOM      5  C   UNL     1      52.124   9.144  16.523  0.00  0.00    +0.000 C 
BRANCH   5   6
ATOM      6  N   UNL     1      51.457   8.191  17.385  0.00  0.00    +0.000 N 
ATOM      7  C   UNL     1      50.234   8.446  17.943  0.00  0.00    +0.000 C 
ATOM      8  O   UNL     1      49.628   9.490  17.711  0.00  0.00    +0.000 OA
ATOM      9  H   UNL     1      51.963   7.343  17.614  0.00  0.00    +0.000 HD
BRANCH   7  10
ATOM     10  C   UNL     1      49.657   7.379  18.771  0.00  0.00    +0.000 A 
ATOM     11  C   UNL     1      49.230   7.664  20.062  0.00  0.00    +0.000 A 
ATOM     12  S   UNL     1      48.540   6.327  20.864  0.00  0.00    +0.000 S 
ATOM     13  C   UNL     1      48.834   5.305  19.537  0.00  0.00    +0.000 A 
ATOM     14  N   UNL     1      48.492   3.990  19.579  0.00  0.00    +0.000 NA
ATOM     15  C   UNL     1      48.803   3.323  18.517  0.00  0.00    +0.000 A 
ATOM     16  N   UNL     1      49.428   3.855  17.417  0.00  0.00    +0.000 N 
ATOM     17  C   UNL     1      49.753   5.186  17.313  0.00  0.00    +0.000 A 
ATOM     18  O   UNL     1      50.245   5.641  16.286  0.00  0.00    +0.000 OA
ATOM     19  C   UNL     1      49.438   5.979  18.487  0.00  0.00    +0.000 A 
ATOM     20  H   UNL     1      49.634   3.278  16.614  0.00  0.00    +0.000 HD
ENDBRANCH   7  10
ENDBRANCH   5   6
ENDBRANCH   2   5
BRANCH   3  21
ATOM     21  C   UNL     1      49.998   9.689  13.397  0.00  0.00    +0.000 C 
BRANCH  21  22
ATOM     22  C   UNL     1      48.459   9.657  13.453  0.00  0.00    +0.000 C 
ATOM     23  C   UNL     1      47.819   9.275  12.110  0.00  0.00    +0.000 C 
ATOM     24  C   UNL     1      48.000   7.798  11.755  0.00  0.00    +0.000 C 
ATOM     25  C   UNL     1      47.466   6.870  12.856  0.00  0.00    +0.000 C 
ATOM     26  C   UNL     1      48.075   7.238  14.218  0.00  0.00    +0.000 C 
ATOM     27  C   UNL     1      47.975   8.727  14.571  0.00  0.00    +0.000 C 
BRANCH  25  28
ATOM     28  C   UNL     1      45.931   6.881  12.883  0.00  0.00    +0.000 C 
ATOM     29  O   UNL     1      45.303   7.938  12.804  0.00  0.00    +0.000 OA
ATOM     30  N   UNL     1      45.268   5.667  12.924  0.00  0.00    +0.000 N 
ATOM     31  C   UNL     1      45.854   4.359  13.236  0.00  0.00    +0.000 C 
ATOM     32  C   UNL     1      45.259   3.269  12.338  0.00  0.00    +0.000 C 
ATOM     33  O   UNL     1      43.824   3.270  12.379  0.00  0.00    +0.000 OA
ATOM     34  C   UNL     1      43.304   4.547  11.969  0.00  0.00    +0.000 C 
ATOM     35  C   UNL     1      43.802   5.656  12.897  0.00  0.00    +0.000 C 
ENDBRANCH  25  28
ENDBRANCH  21  22
ENDBRANCH   3  21
TORSDOF 6
ENDMDL
MODEL 8
REMARK VINA RESULT:    -6.145      5.953      9.159
REMARK INTER + INTRA:          -8.884
REMARK INTER:                  -8.495
REMARK INTRA:                  -0.389
REMARK UNBOUND:                -0.584
REMARK  Name = 
REMARK  6 active torsions:
REMARK  status: ('A' for Active; 'I' for Inactive)
REMARK    1  A    between atoms: C_2  and  C_3
REMARK    2  A    between atoms: C_3  and  N_4
REMARK    3  A    between atoms: C_5  and  C_7
REMARK    4  A    between atoms: N_17  and  C_18
REMARK    5  A    between atoms: C_18  and  C_19
REMARK    6  A    between atoms: C_22  and  C_23
REMARK                            x       y       z     vdW  Elec       q    Type
REMARK                         _______ _______ _______ _____ _____    ______ ____
ROOT
ATOM      1  O   UNL     1      49.157   6.402  13.089  0.00  0.00    +0.000 OA
ATOM      2  C   UNL     1      48.610   7.488  13.268  0.00  0.00    +0.000 C 
ATOM      3  N   UNL     1      49.287   8.668  13.468  0.00  0.00    +0.000 N 
ATOM      4  H   UNL     1      48.764   9.535  13.379  0.00  0.00    +0.000 HD
ENDROOT
BRANCH   2   5
ATOM      5  C   UNL     1      47.088   7.645  13.231  0.00  0.00    +0.000 C 
BRANCH   5   6
ATOM      6  N   UNL     1      46.458   6.420  12.781  0.00  0.00    +0.000 N 
ATOM      7  C   UNL     1      45.239   6.412  12.164  0.00  0.00    +0.000 C 
ATOM      8  O   UNL     1      44.630   7.456  11.932  0.00  0.00    +0.000 OA
ATOM      9  H   UNL     1      46.933   5.551  13.001  0.00  0.00    +0.000 HD
BRANCH   7  10
ATOM     10  C   UNL     1      44.732   5.103  11.731  0.00  0.00    +0.000 A 
ATOM     11  C   UNL     1      43.985   4.329  12.609  0.00  0.00    +0.000 A 
ATOM     12  S   UNL     1      43.432   2.866  11.931  0.00  0.00    +0.000 S 
ATOM     13  C   UNL     1      44.215   3.188  10.456  0.00  0.00    +0.000 A 
ATOM     14  N   UNL     1      44.155   2.302   9.425  0.00  0.00    +0.000 NA
ATOM     15  C   UNL     1      44.822   2.656   8.378  0.00  0.00    +0.000 A 
ATOM     16  N   UNL     1      45.546   3.817   8.269  0.00  0.00    +0.000 N 
ATOM     17  C   UNL     1      45.599   4.760   9.266  0.00  0.00    +0.000 A 
ATOM     18  O   UNL     1      46.196   5.820   9.107  0.00  0.00    +0.000 OA
ATOM     19  C   UNL     1      44.878   4.404  10.474  0.00  0.00    +0.000 A 
ATOM     20  H   UNL     1      46.037   4.038   7.415  0.00  0.00    +0.000 HD
ENDBRANCH   7  10
ENDBRANCH   5   6
ENDBRANCH   2   5
BRANCH   3  21
ATOM     21  C   UNL     1      50.736   8.736  13.525  0.00  0.00    +0.000 C 
BRANCH  21  22
ATOM     22  C   UNL     1      51.321   9.481  12.310  0.00  0.00    +0.000 C 
ATOM     23  C   UNL     1      52.854   9.408  12.245  0.00  0.00    +0.000 C 
ATOM     24  C   UNL     1      53.375   8.024  11.853  0.00  0.00    +0.000 C 
ATOM     25  C   UNL     1      52.784   7.540  10.521  0.00  0.00    +0.000 C 
ATOM     26  C   UNL     1      51.249   7.618  10.547  0.00  0.00    +0.000 C 
ATOM     27  C   UNL     1      50.696   8.971  11.007  0.00  0.00    +0.000 C 
BRANCH  25  28
ATOM     28  C   UNL     1      53.386   8.318   9.342  0.00  0.00    +0.000 C 
ATOM     29  O   UNL     1      53.919   9.416   9.513  0.00  0.00    +0.000 OA
ATOM     30  N   UNL     1      53.381   7.722   8.093  0.00  0.00    +0.000 N 
ATOM     31  C   UNL     1      52.608   6.544   7.688  0.00  0.00    +0.000 C 
ATOM     32  C   UNL     1      53.439   5.639   6.770  0.00  0.00    +0.000 C 
ATOM     33  O   UNL     1      53.985   6.366   5.660  0.00  0.00    +0.000 OA
ATOM     34  C   UNL     1      54.812   7.449   6.118  0.00  0.00    +0.000 C 
ATOM     35  C   UNL     1      53.999   8.428   6.966  0.00  0.00    +0.000 C 
ENDBRANCH  25  28
ENDBRANCH  21  22
ENDBRANCH   3  21
TORSDOF 6
ENDMDL
MODEL 9
REMARK VINA RESULT:    -5.986      6.457      8.382
REMARK INTER + INTRA:          -8.670
REMARK INTER:                  -8.145
REMARK INTRA:                  -0.525
REMARK UNBOUND:                -0.584
REMARK  Name = 
REMARK  6 active torsions:
REMARK  status: ('A' for Active; 'I' for Inactive)
REMARK    1  A    between atoms: C_2  and  C_3
REMARK    2  A    between atoms: C_3  and  N_4
REMARK    3  A    between atoms: C_5  and  C_7
REMARK    4  A    between atoms: N_17  and  C_18
REMARK    5  A    between atoms: C_18  and  C_19
REMARK    6  A    between atoms: C_22  and  C_23
REMARK                            x       y       z     vdW  Elec       q    Type
REMARK                         _______ _______ _______ _____ _____    ______ ____
ROOT
ATOM      1  O   UNL     1      49.712  11.179  10.305  0.00  0.00    +0.000 OA
ATOM      2  C   UNL     1      50.501  10.736  11.136  0.00  0.00    +0.000 C 
ATOM      3  N   UNL     1      50.126  10.224  12.356  0.00  0.00    +0.000 N 
ATOM      4  H   UNL     1      50.813   9.679  12.872  0.00  0.00    +0.000 HD
ENDROOT
BRANCH   2   5
ATOM      5  C   UNL     1      52.005  10.656  10.865  0.00  0.00    +0.000 C 
BRANCH   5   6
ATOM      6  N   UNL     1      52.265   9.941   9.632  0.00  0.00    +0.000 N 
ATOM      7  C   UNL     1      53.346   9.117   9.483  0.00  0.00    +0.000 C 
ATOM      8  O   UNL     1      54.134   8.919  10.405  0.00  0.00    +0.000 OA
ATOM      9  H   UNL     1      51.643  10.126   8.853  0.00  0.00    +0.000 HD
BRANCH   7  10
ATOM     10  C   UNL     1      53.471   8.429   8.190  0.00  0.00    +0.000 A 
ATOM     11  C   UNL     1      53.501   9.171   7.016  0.00  0.00    +0.000 A 
ATOM     12  S   UNL     1      53.702   8.222   5.614  0.00  0.00    +0.000 S 
ATOM     13  C   UNL     1      53.703   6.782   6.518  0.00  0.00    +0.000 A 
ATOM     14  N   UNL     1      53.823   5.573   5.907  0.00  0.00    +0.000 NA
ATOM     15  C   UNL     1      53.774   4.562   6.709  0.00  0.00    +0.000 A 
ATOM     16  N   UNL     1      53.613   4.652   8.069  0.00  0.00    +0.000 N 
ATOM     17  C   UNL     1      53.532   5.852   8.734  0.00  0.00    +0.000 A 
ATOM     18  O   UNL     1      53.463   5.896   9.958  0.00  0.00    +0.000 OA
ATOM     19  C   UNL     1      53.567   7.022   7.876  0.00  0.00    +0.000 A 
ATOM     20  H   UNL     1      53.594   3.820   8.640  0.00  0.00    +0.000 HD
ENDBRANCH   7  10
ENDBRANCH   5   6
ENDBRANCH   2   5
BRANCH   3  21
ATOM     21  C   UNL     1      48.745  10.195  12.800  0.00  0.00    +0.000 C 
BRANCH  21  22
ATOM     22  C   UNL     1      48.399   8.871  13.509  0.00  0.00    +0.000 C 
ATOM     23  C   UNL     1      46.887   8.620  13.602  0.00  0.00    +0.000 C 
ATOM     24  C   UNL     1      46.252   8.256  12.258  0.00  0.00    +0.000 C 
ATOM     25  C   UNL     1      46.932   7.043  11.609  0.00  0.00    +0.000 C 
ATOM     26  C   UNL     1      48.451   7.255  11.517  0.00  0.00    +0.000 C 
ATOM     27  C   UNL     1      49.107   7.692  12.831  0.00  0.00    +0.000 C 
BRANCH  25  28
ATOM     28  C   UNL     1      46.570   5.749  12.355  0.00  0.00    +0.000 C 
ATOM     29  O   UNL     1      47.135   5.446  13.407  0.00  0.00    +0.000 OA
ATOM     30  N   UNL     1      45.541   4.971  11.855  0.00  0.00    +0.000 N 
ATOM     31  C   UNL     1      44.930   5.074  10.526  0.00  0.00    +0.000 C 
ATOM     32  C   UNL     1      43.414   4.867  10.608  0.00  0.00    +0.000 C 
ATOM     33  O   UNL     1      43.079   3.650  11.290  0.00  0.00    +0.000 OA
ATOM     34  C   UNL     1      43.623   3.647  12.622  0.00  0.00    +0.000 C 
ATOM     35  C   UNL     1      45.147   3.761  12.583  0.00  0.00    +0.000 C 
ENDBRANCH  25  28
ENDBRANCH  21  22
ENDBRANCH   3  21
TORSDOF 6
ENDMDL
