MODEL 1
REMARK VINA RESULT:    -8.411      0.000      0.000
REMARK INTER + INTRA:         -13.186
REMARK INTER:                 -11.853
REMARK INTRA:                  -1.332
REMARK UNBOUND:                -1.332
REMARK  Name = 
REMARK  7 active torsions:
REMARK  status: ('A' for Active; 'I' for Inactive)
REMARK    1  A    between atoms: C_2  and  C_20
REMARK    2  A    between atoms: N_3  and  C_4
REMARK    3  A    between atoms: C_4  and  C_5
REMARK    4  A    between atoms: C_9  and  C_10
REMARK    5  A    between atoms: C_10  and  O_11
REMARK    6  A    between atoms: O_11  and  C_12
REMARK    7  A    between atoms: C_12  and  C_13
REMARK                            x       y       z     vdW  Elec       q    Type
REMARK                         _______ _______ _______ _____ _____    ______ ____
ROOT
ATOM      1  C   UNL     1      47.349   6.769  11.627  0.00  0.00    +0.000 C 
ENDROOT
BRANCH   1   2
ATOM      2  C   UNL     1      45.922   6.324  11.464  0.00  0.00    +0.000 A 
ATOM      3  C   UNL     1      44.879   7.241  11.586  0.00  0.00    +0.000 A 
ATOM      4  C   UNL     1      43.581   6.797  11.399  0.00  0.00    +0.000 A 
ATOM      5  N   UNL     1      43.255   5.521  11.102  0.00  0.00    +0.000 NA
ATOM      6  C   UNL     1      44.268   4.623  11.023  0.00  0.00    +0.000 A 
ATOM      7  C   UNL     1      45.604   4.986  11.205  0.00  0.00    +0.000 A 
BRANCH   6   8
ATOM      8  C   UNL     1      43.906   3.192  10.697  0.00  0.00    +0.000 C 
BRANCH   8   9
ATOM      9  O   UNL     1      44.197   2.929   9.326  0.00  0.00    +0.000 OA
BRANCH   9  10
ATOM     10  C   UNL     1      45.020   1.779   9.159  0.00  0.00    +0.000 C 
BRANCH  10  11
ATOM     11  C   UNL     1      45.976   2.016   8.024  0.00  0.00    +0.000 A 
ATOM     12  C   UNL     1      45.987   3.227   7.325  0.00  0.00    +0.000 A 
ATOM     13  C   UNL     1      46.904   3.422   6.295  0.00  0.00    +0.000 A 
ATOM     14  C   UNL     1      47.793   2.401   6.003  0.00  0.00    +0.000 A 
ATOM     15  N   UNL     1      47.828   1.223   6.660  0.00  0.00    +0.000 NA
ATOM     16  C   UNL     1      46.923   1.062   7.656  0.00  0.00    +0.000 A 
ENDBRANCH  10  11
ENDBRANCH   9  10
ENDBRANCH   8   9
ENDBRANCH   6   8
ENDBRANCH   1   2
BRANCH   1  19
ATOM     17  O   UNL     1      47.536   8.294  13.989  0.00  0.00    +0.000 OA
ATOM     18  C   UNL     1      47.930   7.131  13.998  0.00  0.00    +0.000 C 
ATOM     19  N   UNL     1      47.902   6.335  12.882  0.00  0.00    +0.000 N 
ATOM     20  H   UNL     1      48.059   5.339  12.982  0.00  0.00    +0.000 HD
BRANCH  18  21
ATOM     21  C   UNL     1      48.527   6.535  15.199  0.00  0.00    +0.000 A 
ATOM     22  C   UNL     1      49.595   7.161  15.829  0.00  0.00    +0.000 A 
ATOM     23  S   UNL     1      50.193   6.299  17.175  0.00  0.00    +0.000 S 
ATOM     24  C   UNL     1      49.014   5.085  16.995  0.00  0.00    +0.000 A 
ATOM     25  N   UNL     1      48.953   4.033  17.856  0.00  0.00    +0.000 NA
ATOM     26  C   UNL     1      47.978   3.215  17.631  0.00  0.00    +0.000 A 
ATOM     27  N   UNL     1      47.065   3.346  16.617  0.00  0.00    +0.000 N 
ATOM     28  C   UNL     1      47.136   4.347  15.679  0.00  0.00    +0.000 A 
ATOM     29  O   UNL     1      46.390   4.364  14.705  0.00  0.00    +0.000 OA
ATOM     30  C   UNL     1      48.187   5.322  15.911  0.00  0.00    +0.000 A 
ATOM     31  H   UNL     1      46.340   2.656  16.478  0.00  0.00    +0.000 HD
ENDBRANCH  18  21
ENDBRANCH   1  19
TORSDOF 7
ENDMDL
MODEL 2
REMARK VINA RESULT:    -8.193      2.229      3.229
REMARK INTER + INTRA:         -12.879
REMARK INTER:                 -11.831
REMARK INTRA:                  -1.048
REMARK UNBOUND:                -1.332
REMARK  Name = 
REMARK  7 active torsions:
REMARK  status: ('A' for Active; 'I' for Inactive)
REMARK    1  A    between atoms: C_2  and  C_20
REMARK    2  A    between atoms: N_3  and  C_4
REMARK    3  A    between atoms: C_4  and  C_5
REMARK    4  A    between atoms: C_9  and  C_10
REMARK    5  A    between atoms: C_10  and  O_11
REMARK    6  A    between atoms: O_11  and  C_12
REMARK    7  A    between atoms: C_12  and  C_13
REMARK                            x       y       z     vdW  Elec       q    Type
REMARK                         _______ _______ _______ _____ _____    ______ ____
ROOT
ATOM      1  C   UNL     1      47.124   3.879  14.543  0.00  0.00    +0.000 C 
ENDROOT
BRANCH   1   2
ATOM      2  C   UNL     1      46.406   4.762  13.561  0.00  0.00    +0.000 A 
ATOM      3  C   UNL     1      46.766   6.102  13.422  0.00  0.00    +0.000 A 
ATOM      4  C   UNL     1      46.101   6.874  12.485  0.00  0.00    +0.000 A 
ATOM      5  N   UNL     1      45.114   6.410  11.687  0.00  0.00    +0.000 NA
ATOM      6  C   UNL     1      44.739   5.116  11.851  0.00  0.00    +0.000 A 
ATOM      7  C   UNL     1      45.354   4.272  12.778  0.00  0.00    +0.000 A 
BRANCH   6   8
ATOM      8  C   UNL     1      43.632   4.595  10.964  0.00  0.00    +0.000 C 
BRANCH   8   9
ATOM      9  O   UNL     1      44.142   3.560  10.126  0.00  0.00    +0.000 OA
BRANCH   9  10
ATOM     10  C   UNL     1      44.510   4.040   8.838  0.00  0.00    +0.000 C 
BRANCH  10  11
ATOM     11  C   UNL     1      45.495   3.089   8.218  0.00  0.00    +0.000 A 
ATOM     12  C   UNL     1      46.422   3.523   7.265  0.00  0.00    +0.000 A 
ATOM     13  C   UNL     1      47.337   2.619   6.730  0.00  0.00    +0.000 A 
ATOM     14  C   UNL     1      47.304   1.308   7.174  0.00  0.00    +0.000 A 
ATOM     15  N   UNL     1      46.438   0.849   8.102  0.00  0.00    +0.000 NA
ATOM     16  C   UNL     1      45.559   1.752   8.602  0.00  0.00    +0.000 A 
ENDBRANCH  10  11
ENDBRANCH   9  10
ENDBRANCH   8   9
ENDBRANCH   6   8
ENDBRANCH   1   2
BRANCH   1  19
ATOM     17  O   UNL     1      46.504   3.202  17.207  0.00  0.00    +0.000 OA
ATOM     18  C   UNL     1      47.199   4.191  16.990  0.00  0.00    +0.000 C 
ATOM     19  N   UNL     1      47.517   4.603  15.721  0.00  0.00    +0.000 N 
ATOM     20  H   UNL     1      48.239   5.305  15.597  0.00  0.00    +0.000 HD
BRANCH  18  21
ATOM     21  C   UNL     1      47.679   5.044  18.084  0.00  0.00    +0.000 A 
ATOM     22  C   UNL     1      46.770   5.680  18.919  0.00  0.00    +0.000 A 
ATOM     23  S   UNL     1      47.506   6.669  20.099  0.00  0.00    +0.000 S 
ATOM     24  C   UNL     1      49.066   6.243  19.568  0.00  0.00    +0.000 A 
ATOM     25  N   UNL     1      50.175   6.740  20.179  0.00  0.00    +0.000 NA
ATOM     26  C   UNL     1      51.291   6.292  19.705  0.00  0.00    +0.000 A 
ATOM     27  N   UNL     1      51.400   5.402  18.668  0.00  0.00    +0.000 N 
ATOM     28  C   UNL     1      50.311   4.937  17.971  0.00  0.00    +0.000 A 
ATOM     29  O   UNL     1      50.443   4.250  16.964  0.00  0.00    +0.000 OA
ATOM     30  C   UNL     1      49.028   5.373  18.493  0.00  0.00    +0.000 A 
ATOM     31  H   UNL     1      52.305   5.111  18.326  0.00  0.00    +0.000 HD
ENDBRANCH  18  21
ENDBRANCH   1  19
TORSDOF 7
ENDMDL
MODEL 3
REMARK VINA RESULT:    -7.802      2.049      2.584
REMARK INTER + INTRA:         -12.328
REMARK INTER:                 -11.375
REMARK INTRA:                  -0.953
REMARK UNBOUND:                -1.332
REMARK  Name = 
REMARK  7 active torsions:
REMARK  status: ('A' for Active; 'I' for Inactive)
REMARK    1  A    between atoms: C_2  and  C_20
REMARK    2  A    between atoms: N_3  and  C_4
REMARK    3  A    between atoms: C_4  and  C_5
REMARK    4  A    between atoms: C_9  and  C_10
REMARK    5  A    between atoms: C_10  and  O_11
REMARK    6  A    between atoms: O_11  and  C_12
REMARK    7  A    between atoms: C_12  and  C_13
REMARK                            x       y       z     vdW  Elec       q    Type
REMARK                         _______ _______ _______ _____ _____    ______ ____
ROOT
ATOM      1  C   UNL     1      47.780   6.792  13.599  0.00  0.00    +0.000 C 
ENDROOT
BRANCH   1   2
ATOM      2  C   UNL     1      46.945   5.633  13.130  0.00  0.00    +0.000 A 
ATOM      3  C   UNL     1      47.118   4.367  13.689  0.00  0.00    +0.000 A 
ATOM      4  C   UNL     1      46.308   3.333  13.252  0.00  0.00    +0.000 A 
ATOM      5  N   UNL     1      45.350   3.470  12.310  0.00  0.00    +0.000 NA
ATOM      6  C   UNL     1      45.210   4.693  11.740  0.00  0.00    +0.000 A 
ATOM      7  C   UNL     1      45.990   5.787  12.119  0.00  0.00    +0.000 A 
BRANCH   6   8
ATOM      8  C   UNL     1      44.143   4.849  10.681  0.00  0.00    +0.000 C 
BRANCH   8   9
ATOM      9  O   UNL     1      44.171   3.720   9.809  0.00  0.00    +0.000 OA
BRANCH   9  10
ATOM     10  C   UNL     1      44.552   4.071   8.483  0.00  0.00    +0.000 C 
BRANCH  10  11
ATOM     11  C   UNL     1      45.568   3.084   7.982  0.00  0.00    +0.000 A 
ATOM     12  C   UNL     1      46.524   3.447   7.029  0.00  0.00    +0.000 A 
ATOM     13  C   UNL     1      47.467   2.513   6.605  0.00  0.00    +0.000 A 
ATOM     14  C   UNL     1      47.431   1.244   7.159  0.00  0.00    +0.000 A 
ATOM     15  N   UNL     1      46.536   0.855   8.091  0.00  0.00    +0.000 NA
ATOM     16  C   UNL     1      45.631   1.785   8.482  0.00  0.00    +0.000 A 
ENDBRANCH  10  11
ENDBRANCH   9  10
ENDBRANCH   8   9
ENDBRANCH   6   8
ENDBRANCH   1   2
BRANCH   1  19
ATOM     17  O   UNL     1      50.093   6.665  15.202  0.00  0.00    +0.000 OA
ATOM     18  C   UNL     1      49.003   6.826  15.743  0.00  0.00    +0.000 C 
ATOM     19  N   UNL     1      47.829   6.866  15.035  0.00  0.00    +0.000 N 
ATOM     20  H   UNL     1      46.985   7.185  15.497  0.00  0.00    +0.000 HD
BRANCH  18  21
ATOM     21  C   UNL     1      48.877   6.916  17.202  0.00  0.00    +0.000 A 
ATOM     22  C   UNL     1      48.701   8.152  17.810  0.00  0.00    +0.000 A 
ATOM     23  S   UNL     1      48.627   8.070  19.513  0.00  0.00    +0.000 S 
ATOM     24  C   UNL     1      48.776   6.375  19.496  0.00  0.00    +0.000 A 
ATOM     25  N   UNL     1      48.766   5.658  20.652  0.00  0.00    +0.000 NA
ATOM     26  C   UNL     1      48.837   4.378  20.487  0.00  0.00    +0.000 A 
ATOM     27  N   UNL     1      48.928   3.750  19.272  0.00  0.00    +0.000 N 
ATOM     28  C   UNL     1      49.022   4.436  18.087  0.00  0.00    +0.000 A 
ATOM     29  O   UNL     1      49.239   3.856  17.028  0.00  0.00    +0.000 OA
ATOM     30  C   UNL     1      48.901   5.878  18.211  0.00  0.00    +0.000 A 
ATOM     31  H   UNL     1      49.007   2.744  19.212  0.00  0.00    +0.000 HD
ENDBRANCH  18  21
ENDBRANCH   1  19
TORSDOF 7
ENDMDL
MODEL 4
REMARK VINA RESULT:    -7.667      1.736      2.029
REMARK INTER + INTRA:         -12.137
REMARK INTER:                 -11.297
REMARK INTRA:                  -0.840
REMARK UNBOUND:                -1.332
REMARK  Name = 
REMARK  7 active torsions:
REMARK  status: ('A' for Active; 'I' for Inactive)
REMARK    1  A    between atoms: C_2  and  C_20
REMARK    2  A    between atoms: N_3  and  C_4
REMARK    3  A    between atoms: C_4  and  C_5
REMARK    4  A    between atoms: C_9  and  C_10
REMARK    5  A    between atoms: C_10  and  O_11
REMARK    6  A    between atoms: O_11  and  C_12
REMARK    7  A    between atoms: C_12  and  C_13
REMARK                            x       y       z     vdW  Elec       q    Type
REMARK                         _______ _______ _______ _____ _____    ______ ____
ROOT
ATOM      1  C   UNL     1      47.829   5.876  13.186  0.00  0.00    +0.000 C 
ENDROOT
BRANCH   1   2
ATOM      2  C   UNL     1      46.465   6.123  12.603  0.00  0.00    +0.000 A 
ATOM      3  C   UNL     1      46.033   7.423  12.344  0.00  0.00    +0.000 A 
ATOM      4  C   UNL     1      44.783   7.606  11.777  0.00  0.00    +0.000 A 
ATOM      5  N   UNL     1      43.945   6.598  11.455  0.00  0.00    +0.000 NA
ATOM      6  C   UNL     1      44.351   5.336  11.744  0.00  0.00    +0.000 A 
ATOM      7  C   UNL     1      45.593   5.065  12.321  0.00  0.00    +0.000 A 
BRANCH   6   8
ATOM      8  C   UNL     1      43.412   4.205  11.391  0.00  0.00    +0.000 C 
BRANCH   8   9
ATOM      9  O   UNL     1      44.061   3.315  10.485  0.00  0.00    +0.000 OA
BRANCH   9  10
ATOM     10  C   UNL     1      44.391   3.944   9.251  0.00  0.00    +0.000 C 
BRANCH  10  11
ATOM     11  C   UNL     1      45.341   3.066   8.487  0.00  0.00    +0.000 A 
ATOM     12  C   UNL     1      46.143   3.583   7.464  0.00  0.00    +0.000 A 
ATOM     13  C   UNL     1      47.031   2.746   6.792  0.00  0.00    +0.000 A 
ATOM     14  C   UNL     1      47.098   1.416   7.174  0.00  0.00    +0.000 A 
ATOM     15  N   UNL     1      46.355   0.878   8.163  0.00  0.00    +0.000 NA
ATOM     16  C   UNL     1      45.499   1.717   8.797  0.00  0.00    +0.000 A 
ENDBRANCH  10  11
ENDBRANCH   9  10
ENDBRANCH   8   9
ENDBRANCH   6   8
ENDBRANCH   1   2
BRANCH   1  19
ATOM     17  O   UNL     1      49.945   6.971  14.689  0.00  0.00    +0.000 OA
ATOM     18  C   UNL     1      48.907   6.656  15.264  0.00  0.00    +0.000 C 
ATOM     19  N   UNL     1      47.845   6.088  14.608  0.00  0.00    +0.000 N 
ATOM     20  H   UNL     1      46.952   6.020  15.082  0.00  0.00    +0.000 HD
BRANCH  18  21
ATOM     21  C   UNL     1      48.762   6.804  16.717  0.00  0.00    +0.000 A 
ATOM     22  C   UNL     1      48.556   8.060  17.271  0.00  0.00    +0.000 A 
ATOM     23  S   UNL     1      48.462   8.047  18.975  0.00  0.00    +0.000 S 
ATOM     24  C   UNL     1      48.642   6.356  19.030  0.00  0.00    +0.000 A 
ATOM     25  N   UNL     1      48.629   5.687  20.215  0.00  0.00    +0.000 NA
ATOM     26  C   UNL     1      48.724   4.403  20.104  0.00  0.00    +0.000 A 
ATOM     27  N   UNL     1      48.842   3.727  18.917  0.00  0.00    +0.000 N 
ATOM     28  C   UNL     1      48.938   4.366  17.705  0.00  0.00    +0.000 A 
ATOM     29  O   UNL     1      49.179   3.746  16.674  0.00  0.00    +0.000 OA
ATOM     30  C   UNL     1      48.791   5.809  17.768  0.00  0.00    +0.000 A 
ATOM     31  H   UNL     1      48.939   2.721  18.899  0.00  0.00    +0.000 HD
ENDBRANCH  18  21
ENDBRANCH   1  19
TORSDOF 7
ENDMDL
MODEL 5
REMARK VINA RESULT:    -6.999      2.509      3.083
REMARK INTER + INTRA:         -11.196
REMARK INTER:                 -10.438
REMARK INTRA:                  -0.757
REMARK UNBOUND:                -1.332
REMARK  Name = 
REMARK  7 active torsions:
REMARK  status: ('A' for Active; 'I' for Inactive)
REMARK    1  A    between atoms: C_2  and  C_20
REMARK    2  A    between atoms: N_3  and  C_4
REMARK    3  A    between atoms: C_4  and  C_5
REMARK    4  A    between atoms: C_9  and  C_10
REMARK    5  A    between atoms: C_10  and  O_11
REMARK    6  A    between atoms: O_11  and  C_12
REMARK    7  A    between atoms: C_12  and  C_13
REMARK                            x       y       z     vdW  Elec       q    Type
REMARK                         _______ _______ _______ _____ _____    ______ ____
ROOT
ATOM      1  C   UNL     1      47.134   4.737  14.453  0.00  0.00    +0.000 C 
ENDROOT
BRANCH   1   2
ATOM      2  C   UNL     1      46.238   5.228  13.350  0.00  0.00    +0.000 A 
ATOM      3  C   UNL     1      46.138   6.592  13.077  0.00  0.00    +0.000 A 
ATOM      4  C   UNL     1      45.326   7.001  12.033  0.00  0.00    +0.000 A 
ATOM      5  N   UNL     1      44.616   6.158  11.252  0.00  0.00    +0.000 NA
ATOM      6  C   UNL     1      44.684   4.835  11.545  0.00  0.00    +0.000 A 
ATOM      7  C   UNL     1      45.474   4.340  12.585  0.00  0.00    +0.000 A 
BRANCH   6   8
ATOM      8  C   UNL     1      43.886   3.889  10.678  0.00  0.00    +0.000 C 
BRANCH   8   9
ATOM      9  O   UNL     1      44.626   2.685  10.482  0.00  0.00    +0.000 OA
BRANCH   9  10
ATOM     10  C   UNL     1      44.359   2.086   9.218  0.00  0.00    +0.000 C 
BRANCH  10  11
ATOM     11  C   UNL     1      45.527   2.320   8.303  0.00  0.00    +0.000 A 
ATOM     12  C   UNL     1      46.427   1.293   7.999  0.00  0.00    +0.000 A 
ATOM     13  C   UNL     1      47.485   1.539   7.126  0.00  0.00    +0.000 A 
ATOM     14  C   UNL     1      47.602   2.803   6.572  0.00  0.00    +0.000 A 
ATOM     15  N   UNL     1      46.749   3.817   6.825  0.00  0.00    +0.000 NA
ATOM     16  C   UNL     1      45.732   3.549   7.680  0.00  0.00    +0.000 A 
ENDBRANCH  10  11
ENDBRANCH   9  10
ENDBRANCH   8   9
ENDBRANCH   6   8
ENDBRANCH   1   2
BRANCH   1  19
ATOM     17  O   UNL     1      48.937   4.528  16.608  0.00  0.00    +0.000 OA
ATOM     18  C   UNL     1      48.551   5.641  16.260  0.00  0.00    +0.000 C 
ATOM     19  N   UNL     1      47.650   5.823  15.242  0.00  0.00    +0.000 N 
ATOM     20  H   UNL     1      47.508   6.755  14.870  0.00  0.00    +0.000 HD
BRANCH  18  21
ATOM     21  C   UNL     1      48.980   6.855  16.964  0.00  0.00    +0.000 A 
ATOM     22  C   UNL     1      49.900   7.712  16.375  0.00  0.00    +0.000 A 
ATOM     23  S   UNL     1      50.320   9.042  17.359  0.00  0.00    +0.000 S 
ATOM     24  C   UNL     1      49.249   8.547  18.585  0.00  0.00    +0.000 A 
ATOM     25  N   UNL     1      49.106   9.274  19.727  0.00  0.00    +0.000 NA
ATOM     26  C   UNL     1      48.222   8.809  20.548  0.00  0.00    +0.000 A 
ATOM     27  N   UNL     1      47.477   7.678  20.337  0.00  0.00    +0.000 N 
ATOM     28  C   UNL     1      47.644   6.872  19.237  0.00  0.00    +0.000 A 
ATOM     29  O   UNL     1      47.063   5.797  19.139  0.00  0.00    +0.000 OA
ATOM     30  C   UNL     1      48.593   7.373  18.259  0.00  0.00    +0.000 A 
ATOM     31  H   UNL     1      46.819   7.352  21.032  0.00  0.00    +0.000 HD
ENDBRANCH  18  21
ENDBRANCH   1  19
TORSDOF 7
ENDMDL
MODEL 6
REMARK VINA RESULT:    -6.905      3.187      8.356
REMARK INTER + INTRA:         -11.063
REMARK INTER:                 -10.130
REMARK INTRA:                  -0.933
REMARK UNBOUND:                -1.332
REMARK  Name = 
REMARK  7 active torsions:
REMARK  status: ('A' for Active; 'I' for Inactive)
REMARK    1  A    between atoms: C_2  and  C_20
REMARK    2  A    between atoms: N_3  and  C_4
REMARK    3  A    between atoms: C_4  and  C_5
REMARK    4  A    between atoms: C_9  and  C_10
REMARK    5  A    between atoms: C_10  and  O_11
REMARK    6  A    between atoms: O_11  and  C_12
REMARK    7  A    between atoms: C_12  and  C_13
REMARK                            x       y       z     vdW  Elec       q    Type
REMARK                         _______ _______ _______ _____ _____    ______ ____
ROOT
ATOM      1  C   UNL     1      47.526   7.798  11.900  0.00  0.00    +0.000 C 
ENDROOT
BRANCH   1   2
ATOM      2  C   UNL     1      48.528   7.657  13.013  0.00  0.00    +0.000 A 
ATOM      3  C   UNL     1      49.770   8.285  12.927  0.00  0.00    +0.000 A 
ATOM      4  C   UNL     1      50.652   8.155  13.987  0.00  0.00    +0.000 A 
ATOM      5  N   UNL     1      50.386   7.454  15.111  0.00  0.00    +0.000 NA
ATOM      6  C   UNL     1      49.192   6.813  15.174  0.00  0.00    +0.000 A 
ATOM      7  C   UNL     1      48.249   6.886  14.147  0.00  0.00    +0.000 A 
BRANCH   6   8
ATOM      8  C   UNL     1      48.894   6.022  16.427  0.00  0.00    +0.000 C 
BRANCH   8   9
ATOM      9  O   UNL     1      50.011   5.194  16.744  0.00  0.00    +0.000 OA
BRANCH   9  10
ATOM     10  C   UNL     1      49.626   3.999  17.415  0.00  0.00    +0.000 C 
BRANCH  10  11
ATOM     11  C   UNL     1      50.838   3.138  17.628  0.00  0.00    +0.000 A 
ATOM     12  C   UNL     1      50.842   1.788  17.263  0.00  0.00    +0.000 A 
ATOM     13  C   UNL     1      51.993   1.025  17.452  0.00  0.00    +0.000 A 
ATOM     14  C   UNL     1      53.110   1.641  17.990  0.00  0.00    +0.000 A 
ATOM     15  N   UNL     1      53.155   2.942  18.343  0.00  0.00    +0.000 NA
ATOM     16  C   UNL     1      52.021   3.658  18.149  0.00  0.00    +0.000 A 
ENDBRANCH  10  11
ENDBRANCH   9  10
ENDBRANCH   8   9
ENDBRANCH   6   8
ENDBRANCH   1   2
BRANCH   1  19
ATOM     17  O   UNL     1      44.722   7.550  11.787  0.00  0.00    +0.000 OA
ATOM     18  C   UNL     1      45.416   6.550  11.622  0.00  0.00    +0.000 C 
ATOM     19  N   UNL     1      46.785   6.584  11.694  0.00  0.00    +0.000 N 
ATOM     20  H   UNL     1      47.316   5.783  11.369  0.00  0.00    +0.000 HD
BRANCH  18  21
ATOM     21  C   UNL     1      44.815   5.229  11.406  0.00  0.00    +0.000 A 
ATOM     22  C   UNL     1      44.035   4.649  12.398  0.00  0.00    +0.000 A 
ATOM     23  S   UNL     1      43.464   3.093  11.994  0.00  0.00    +0.000 S 
ATOM     24  C   UNL     1      44.195   3.159  10.459  0.00  0.00    +0.000 A 
ATOM     25  N   UNL     1      44.073   2.129   9.579  0.00  0.00    +0.000 NA
ATOM     26  C   UNL     1      44.637   2.336   8.434  0.00  0.00    +0.000 A 
ATOM     27  N   UNL     1      45.319   3.475   8.093  0.00  0.00    +0.000 N 
ATOM     28  C   UNL     1      45.534   4.505   8.975  0.00  0.00    +0.000 A 
ATOM     29  O   UNL     1      46.261   5.450   8.689  0.00  0.00    +0.000 OA
ATOM     30  C   UNL     1      44.883   4.344  10.263  0.00  0.00    +0.000 A 
ATOM     31  H   UNL     1      45.760   3.564   7.188  0.00  0.00    +0.000 HD
ENDBRANCH  18  21
ENDBRANCH   1  19
TORSDOF 7
ENDMDL
MODEL 7
REMARK VINA RESULT:    -6.589      3.138      4.349
REMARK INTER + INTRA:         -10.618
REMARK INTER:                  -9.607
REMARK INTRA:                  -1.010
REMARK UNBOUND:                -1.332
REMARK  Name = 
REMARK  7 active torsions:
REMARK  status: ('A' for Active; 'I' for Inactive)
REMARK    1  A    between atoms: C_2  and  C_20
REMARK    2  A    between atoms: N_3  and  C_4
REMARK    3  A    between atoms: C_4  and  C_5
REMARK    4  A    between atoms: C_9  and  C_10
REMARK    5  A    between atoms: C_10  and  O_11
REMARK    6  A    between atoms: O_11  and  C_12
REMARK    7  A    between atoms: C_12  and  C_13
REMARK                            x       y       z     vdW  Elec       q    Type
REMARK                         _______ _______ _______ _____ _____    ______ ____
ROOT
ATOM      1  C   UNL     1      47.518   7.644  11.777  0.00  0.00    +0.000 C 
ENDROOT
BRANCH   1   2
ATOM      2  C   UNL     1      46.816   6.420  12.296  0.00  0.00    +0.000 A 
ATOM      3  C   UNL     1      47.268   5.784  13.453  0.00  0.00    +0.000 A 
ATOM      4  C   UNL     1      46.576   4.678  13.915  0.00  0.00    +0.000 A 
ATOM      5  N   UNL     1      45.479   4.168  13.314  0.00  0.00    +0.000 NA
ATOM      6  C   UNL     1      45.065   4.764  12.168  0.00  0.00    +0.000 A 
ATOM      7  C   UNL     1      45.710   5.880  11.631  0.00  0.00    +0.000 A 
BRANCH   6   8
ATOM      8  C   UNL     1      43.841   4.192  11.490  0.00  0.00    +0.000 C 
BRANCH   8   9
ATOM      9  O   UNL     1      44.241   3.201  10.545  0.00  0.00    +0.000 OA
BRANCH   9  10
ATOM     10  C   UNL     1      44.329   3.719   9.222  0.00  0.00    +0.000 C 
BRANCH  10  11
ATOM     11  C   UNL     1      45.374   2.954   8.459  0.00  0.00    +0.000 A 
ATOM     12  C   UNL     1      46.222   3.595   7.550  0.00  0.00    +0.000 A 
ATOM     13  C   UNL     1      47.196   2.860   6.879  0.00  0.00    +0.000 A 
ATOM     14  C   UNL     1      47.301   1.505   7.148  0.00  0.00    +0.000 A 
ATOM     15  N   UNL     1      46.515   0.850   8.027  0.00  0.00    +0.000 NA
ATOM     16  C   UNL     1      45.575   1.591   8.663  0.00  0.00    +0.000 A 
ENDBRANCH  10  11
ENDBRANCH   9  10
ENDBRANCH   8   9
ENDBRANCH   6   8
ENDBRANCH   1   2
BRANCH   1  19
ATOM     17  O   UNL     1      48.619  10.031  12.790  0.00  0.00    +0.000 OA
ATOM     18  C   UNL     1      49.274   8.995  12.865  0.00  0.00    +0.000 C 
ATOM     19  N   UNL     1      48.820   7.801  12.367  0.00  0.00    +0.000 N 
ATOM     20  H   UNL     1      49.306   6.946  12.616  0.00  0.00    +0.000 HD
BRANCH  18  21
ATOM     21  C   UNL     1      50.626   8.983  13.435  0.00  0.00    +0.000 A 
ATOM     22  C   UNL     1      50.840   9.444  14.727  0.00  0.00    +0.000 A 
ATOM     23  S   UNL     1      52.478   9.404  15.203  0.00  0.00    +0.000 S 
ATOM     24  C   UNL     1      52.953   8.721  13.718  0.00  0.00    +0.000 A 
ATOM     25  N   UNL     1      54.255   8.412  13.473  0.00  0.00    +0.000 NA
ATOM     26  C   UNL     1      54.464   7.854  12.326  0.00  0.00    +0.000 A 
ATOM     27  N   UNL     1      53.491   7.587  11.398  0.00  0.00    +0.000 N 
ATOM     28  C   UNL     1      52.179   7.953  11.570  0.00  0.00    +0.000 A 
ATOM     29  O   UNL     1      51.356   7.826  10.669  0.00  0.00    +0.000 OA
ATOM     30  C   UNL     1      51.881   8.543  12.862  0.00  0.00    +0.000 A 
ATOM     31  H   UNL     1      53.724   7.171  10.506  0.00  0.00    +0.000 HD
ENDBRANCH  18  21
ENDBRANCH   1  19
TORSDOF 7
ENDMDL
MODEL 8
REMARK VINA RESULT:    -6.389      3.560      7.980
REMARK INTER + INTRA:         -10.336
REMARK INTER:                  -9.283
REMARK INTRA:                  -1.053
REMARK UNBOUND:                -1.332
REMARK  Name = 
REMARK  7 active torsions:
REMARK  status: ('A' for Active; 'I' for Inactive)
REMARK    1  A    between atoms: C_2  and  C_20
REMARK    2  A    between atoms: N_3  and  C_4
REMARK    3  A    between atoms: C_4  and  C_5
REMARK    4  A    between atoms: C_9  and  C_10
REMARK    5  A    between atoms: C_10  and  O_11
REMARK    6  A    between atoms: O_11  and  C_12
REMARK    7  A    between atoms: C_12  and  C_13
REMARK                            x       y       z     vdW  Elec       q    Type
REMARK                         _______ _______ _______ _____ _____    ______ ____
ROOT
ATOM      1  C   UNL     1      49.405   7.330  13.600  0.00  0.00    +0.000 C 
ENDROOT
BRANCH   1   2
ATOM      2  C   UNL     1      49.307   8.309  14.738  0.00  0.00    +0.000 A 
ATOM      3  C   UNL     1      49.342   9.681  14.494  0.00  0.00    +0.000 A 
ATOM      4  C   UNL     1      49.218  10.548  15.565  0.00  0.00    +0.000 A 
ATOM      5  N   UNL     1      49.063  10.149  16.847  0.00  0.00    +0.000 NA
ATOM      6  C   UNL     1      49.068   8.814  17.086  0.00  0.00    +0.000 A 
ATOM      7  C   UNL     1      49.195   7.872  16.063  0.00  0.00    +0.000 A 
BRANCH   6   8
ATOM      8  C   UNL     1      48.901   8.364  18.519  0.00  0.00    +0.000 C 
BRANCH   8   9
ATOM      9  O   UNL     1      49.558   7.111  18.704  0.00  0.00    +0.000 OA
BRANCH   9  10
ATOM     10  C   UNL     1      48.745   6.172  19.399  0.00  0.00    +0.000 C 
BRANCH  10  11
ATOM     11  C   UNL     1      48.477   4.994  18.506  0.00  0.00    +0.000 A 
ATOM     12  C   UNL     1      49.495   4.099  18.159  0.00  0.00    +0.000 A 
ATOM     13  C   UNL     1      49.205   3.003  17.350  0.00  0.00    +0.000 A 
ATOM     14  C   UNL     1      47.900   2.828  16.920  0.00  0.00    +0.000 A 
ATOM     15  N   UNL     1      46.885   3.657  17.242  0.00  0.00    +0.000 NA
ATOM     16  C   UNL     1      47.198   4.715  18.029  0.00  0.00    +0.000 A 
ENDBRANCH  10  11
ENDBRANCH   9  10
ENDBRANCH   8   9
ENDBRANCH   6   8
ENDBRANCH   1   2
BRANCH   1  19
ATOM     17  O   UNL     1      47.565   5.351  14.397  0.00  0.00    +0.000 OA
ATOM     18  C   UNL     1      47.266   6.105  13.475  0.00  0.00    +0.000 C 
ATOM     19  N   UNL     1      48.119   7.072  13.009  0.00  0.00    +0.000 N 
ATOM     20  H   UNL     1      47.762   7.785  12.382  0.00  0.00    +0.000 HD
BRANCH  18  21
ATOM     21  C   UNL     1      45.991   5.973  12.760  0.00  0.00    +0.000 A 
ATOM     22  C   UNL     1      45.358   7.100  12.253  0.00  0.00    +0.000 A 
ATOM     23  S   UNL     1      43.865   6.762  11.500  0.00  0.00    +0.000 S 
ATOM     24  C   UNL     1      44.036   5.092  11.779  0.00  0.00    +0.000 A 
ATOM     25  N   UNL     1      43.090   4.210  11.357  0.00  0.00    +0.000 NA
ATOM     26  C   UNL     1      43.373   2.971  11.591  0.00  0.00    +0.000 A 
ATOM     27  N   UNL     1      44.511   2.534  12.219  0.00  0.00    +0.000 N 
ATOM     28  C   UNL     1      45.452   3.392  12.731  0.00  0.00    +0.000 A 
ATOM     29  O   UNL     1      46.391   2.981  13.406  0.00  0.00    +0.000 OA
ATOM     30  C   UNL     1      45.206   4.796  12.455  0.00  0.00    +0.000 A 
ATOM     31  H   UNL     1      44.661   1.550  12.396  0.00  0.00    +0.000 HD
ENDBRANCH  18  21
ENDBRANCH   1  19
TORSDOF 7
ENDMDL
MODEL 9
REMARK VINA RESULT:    -6.348      3.716      7.579
REMARK INTER + INTRA:         -10.278
REMARK INTER:                  -8.697
REMARK INTRA:                  -1.581
REMARK UNBOUND:                -1.332
REMARK  Name = 
REMARK  7 active torsions:
REMARK  status: ('A' for Active; 'I' for Inactive)
REMARK    1  A    between atoms: C_2  and  C_20
REMARK    2  A    between atoms: N_3  and  C_4
REMARK    3  A    between atoms: C_4  and  C_5
REMARK    4  A    between atoms: C_9  and  C_10
REMARK    5  A    between atoms: C_10  and  O_11
REMARK    6  A    between atoms: O_11  and  C_12
REMARK    7  A    between atoms: C_12  and  C_13
REMARK                            x       y       z     vdW  Elec       q    Type
REMARK                         _______ _______ _______ _____ _____    ______ ____
ROOT
ATOM      1  C   UNL     1      49.193   8.419  13.350  0.00  0.00    +0.000 C 
ENDROOT
BRANCH   1   2
ATOM      2  C   UNL     1      49.698   7.960  14.690  0.00  0.00    +0.000 A 
ATOM      3  C   UNL     1      51.060   7.736  14.891  0.00  0.00    +0.000 A 
ATOM      4  C   UNL     1      51.488   7.344  16.148  0.00  0.00    +0.000 A 
ATOM      5  N   UNL     1      50.666   7.163  17.204  0.00  0.00    +0.000 NA
ATOM      6  C   UNL     1      49.338   7.344  16.995  0.00  0.00    +0.000 A 
ATOM      7  C   UNL     1      48.822   7.732  15.757  0.00  0.00    +0.000 A 
BRANCH   6   8
ATOM      8  C   UNL     1      48.414   7.136  18.173  0.00  0.00    +0.000 C 
BRANCH   8   9
ATOM      9  O   UNL     1      48.553   5.801  18.656  0.00  0.00    +0.000 OA
BRANCH   9  10
ATOM     10  C   UNL     1      47.894   4.853  17.823  0.00  0.00    +0.000 C 
BRANCH  10  11
ATOM     11  C   UNL     1      48.863   3.769  17.445  0.00  0.00    +0.000 A 
ATOM     12  C   UNL     1      50.158   3.738  17.973  0.00  0.00    +0.000 A 
ATOM     13  C   UNL     1      51.023   2.704  17.620  0.00  0.00    +0.000 A 
ATOM     14  C   UNL     1      50.560   1.724  16.758  0.00  0.00    +0.000 A 
ATOM     15  N   UNL     1      49.315   1.707  16.237  0.00  0.00    +0.000 NA
ATOM     16  C   UNL     1      48.498   2.726  16.597  0.00  0.00    +0.000 A 
ENDBRANCH  10  11
ENDBRANCH   9  10
ENDBRANCH   8   9
ENDBRANCH   6   8
ENDBRANCH   1   2
BRANCH   1  19
ATOM     17  O   UNL     1      46.435   8.963  13.541  0.00  0.00    +0.000 OA
ATOM     18  C   UNL     1      46.802   7.936  12.976  0.00  0.00    +0.000 C 
ATOM     19  N   UNL     1      48.123   7.585  12.871  0.00  0.00    +0.000 N 
ATOM     20  H   UNL     1      48.386   6.836  12.241  0.00  0.00    +0.000 HD
BRANCH  18  21
ATOM     21  C   UNL     1      45.835   6.974  12.435  0.00  0.00    +0.000 A 
ATOM     22  C   UNL     1      44.801   7.412  11.619  0.00  0.00    +0.000 A 
ATOM     23  S   UNL     1      43.746   6.164  11.126  0.00  0.00    +0.000 S 
ATOM     24  C   UNL     1      44.664   4.987  11.943  0.00  0.00    +0.000 A 
ATOM     25  N   UNL     1      44.310   3.673  11.908  0.00  0.00    +0.000 NA
ATOM     26  C   UNL     1      45.124   2.885  12.530  0.00  0.00    +0.000 A 
ATOM     27  N   UNL     1      46.254   3.291  13.192  0.00  0.00    +0.000 N 
ATOM     28  C   UNL     1      46.605   4.612  13.319  0.00  0.00    +0.000 A 
ATOM     29  O   UNL     1      47.544   4.958  14.029  0.00  0.00    +0.000 OA
ATOM     30  C   UNL     1      45.749   5.538  12.600  0.00  0.00    +0.000 A 
ATOM     31  H   UNL     1      46.836   2.626  13.682  0.00  0.00    +0.000 HD
ENDBRANCH  18  21
ENDBRANCH   1  19
TORSDOF 7
ENDMDL
