MODEL 1
REMARK VINA RESULT:    -8.290      0.000      0.000
REMARK INTER + INTRA:         -11.788
REMARK INTER:                 -11.197
REMARK INTRA:                  -0.591
REMARK UNBOUND:                -0.591
REMARK  Name = 
REMARK  7 active torsions:
REMARK  status: ('A' for Active; 'I' for Inactive)
REMARK    1  A    between atoms: C_1  and  C_2
REMARK    2  A    between atoms: C_2  and  N_3
REMARK    3  A    between atoms: C_2  and  C_10
REMARK    4  A    between atoms: N_3  and  C_4
REMARK    5  A    between atoms: C_13  and  C_14
REMARK    6  A    between atoms: C_14  and  N_15
REMARK    7  A    between atoms: C_16  and  C_18
REMARK                            x       y       z     vdW  Elec       q    Type
REMARK                         _______ _______ _______ _____ _____    ______ ____
ROOT
ATOM      1  C   UNL     1      44.842   5.053  11.582  0.00  0.00    +0.000 A 
ATOM      2  C   UNL     1      45.284   6.297  11.132  0.00  0.00    +0.000 A 
ATOM      3  C   UNL     1      46.415   6.874  11.713  0.00  0.00    +0.000 A 
ATOM      4  C   UNL     1      47.085   6.212  12.741  0.00  0.00    +0.000 A 
ATOM      5  C   UNL     1      46.551   5.000  13.160  0.00  0.00    +0.000 A 
ATOM      6  N   UNL     1      45.471   4.408  12.601  0.00  0.00    +0.000 NA
ENDROOT
BRANCH   1   8
ATOM      7  C   UNL     1      43.390   2.946  11.556  0.00  0.00    +0.000 C 
ATOM      8  C   UNL     1      43.628   4.344  10.973  0.00  0.00    +0.000 C 
BRANCH   8   9
ATOM      9  N   UNL     1      43.785   4.250   9.513  0.00  0.00    +0.000 N 
ATOM     10  H   UNL     1      43.535   5.106   9.029  0.00  0.00    +0.000 HD
BRANCH   9  11
ATOM     11  C   UNL     1      44.808   3.522   8.908  0.00  0.00    +0.000 A 
ATOM     12  C   UNL     1      44.953   2.139   9.025  0.00  0.00    +0.000 A 
ATOM     13  C   UNL     1      45.963   1.495   8.321  0.00  0.00    +0.000 A 
ATOM     14  N   UNL     1      46.832   2.123   7.503  0.00  0.00    +0.000 NA
ATOM     15  C   UNL     1      46.662   3.452   7.370  0.00  0.00    +0.000 A 
ATOM     16  C   UNL     1      45.675   4.175   8.029  0.00  0.00    +0.000 A 
ENDBRANCH   9  11
ENDBRANCH   8   9
ENDBRANCH   1   8
BRANCH   4  17
ATOM     17  C   UNL     1      48.283   6.807  13.423  0.00  0.00    +0.000 C 
BRANCH  17  18
ATOM     18  N   UNL     1      48.133   6.751  14.855  0.00  0.00    +0.000 N 
ATOM     19  C   UNL     1      49.195   6.782  15.717  0.00  0.00    +0.000 C 
ATOM     20  O   UNL     1      50.352   6.769  15.313  0.00  0.00    +0.000 OA
ATOM     21  H   UNL     1      47.183   6.752  15.211  0.00  0.00    +0.000 HD
BRANCH  19  22
ATOM     22  C   UNL     1      48.876   6.842  17.155  0.00  0.00    +0.000 A 
ATOM     23  C   UNL     1      48.453   8.039  17.717  0.00  0.00    +0.000 A 
ATOM     24  S   UNL     1      48.094   7.933  19.380  0.00  0.00    +0.000 S 
ATOM     25  C   UNL     1      48.495   6.281  19.419  0.00  0.00    +0.000 A 
ATOM     26  N   UNL     1      48.405   5.567  20.573  0.00  0.00    +0.000 NA
ATOM     27  C   UNL     1      48.733   4.324  20.463  0.00  0.00    +0.000 A 
ATOM     28  N   UNL     1      49.145   3.728  19.302  0.00  0.00    +0.000 N 
ATOM     29  C   UNL     1      49.256   4.408  18.118  0.00  0.00    +0.000 A 
ATOM     30  O   UNL     1      49.645   3.833  17.102  0.00  0.00    +0.000 OA
ATOM     31  C   UNL     1      48.899   5.813  18.179  0.00  0.00    +0.000 A 
ATOM     32  H   UNL     1      49.404   2.753  19.279  0.00  0.00    +0.000 HD
ENDBRANCH  19  22
ENDBRANCH  17  18
ENDBRANCH   4  17
TORSDOF 6
ENDMDL
MODEL 2
REMARK VINA RESULT:    -7.933      1.795      2.820
REMARK INTER + INTRA:         -11.306
REMARK INTER:                 -10.201
REMARK INTRA:                  -1.105
REMARK UNBOUND:                -0.591
REMARK  Name = 
REMARK  7 active torsions:
REMARK  status: ('A' for Active; 'I' for Inactive)
REMARK    1  A    between atoms: C_1  and  C_2
REMARK    2  A    between atoms: C_2  and  N_3
REMARK    3  A    between atoms: C_2  and  C_10
REMARK    4  A    between atoms: N_3  and  C_4
REMARK    5  A    between atoms: C_13  and  C_14
REMARK    6  A    between atoms: C_14  and  N_15
REMARK    7  A    between atoms: C_16  and  C_18
REMARK                            x       y       z     vdW  Elec       q    Type
REMARK                         _______ _______ _______ _____ _____    ______ ____
ROOT
ATOM      1  C   UNL     1      44.948   5.423  11.787  0.00  0.00    +0.000 A 
ATOM      2  C   UNL     1      45.170   4.640  12.919  0.00  0.00    +0.000 A 
ATOM      3  C   UNL     1      46.272   4.909  13.734  0.00  0.00    +0.000 A 
ATOM      4  C   UNL     1      47.145   5.946  13.405  0.00  0.00    +0.000 A 
ATOM      5  C   UNL     1      46.876   6.646  12.236  0.00  0.00    +0.000 A 
ATOM      6  N   UNL     1      45.804   6.422  11.441  0.00  0.00    +0.000 NA
ENDROOT
BRANCH   1   8
ATOM      7  C   UNL     1      42.400   5.480  11.551  0.00  0.00    +0.000 C 
ATOM      8  C   UNL     1      43.744   5.208  10.864  0.00  0.00    +0.000 C 
BRANCH   8   9
ATOM      9  N   UNL     1      43.759   3.836  10.334  0.00  0.00    +0.000 N 
ATOM     10  H   UNL     1      42.836   3.421  10.274  0.00  0.00    +0.000 HD
BRANCH   9  11
ATOM     11  C   UNL     1      44.645   3.420   9.342  0.00  0.00    +0.000 A 
ATOM     12  C   UNL     1      45.275   4.285   8.447  0.00  0.00    +0.000 A 
ATOM     13  C   UNL     1      46.201   3.780   7.543  0.00  0.00    +0.000 A 
ATOM     14  N   UNL     1      46.554   2.480   7.470  0.00  0.00    +0.000 NA
ATOM     15  C   UNL     1      45.966   1.659   8.360  0.00  0.00    +0.000 A 
ATOM     16  C   UNL     1      45.036   2.078   9.303  0.00  0.00    +0.000 A 
ENDBRANCH   9  11
ENDBRANCH   8   9
ENDBRANCH   1   8
BRANCH   4  17
ATOM     17  C   UNL     1      48.363   6.250  14.227  0.00  0.00    +0.000 C 
BRANCH  17  18
ATOM     18  N   UNL     1      48.003   6.481  15.603  0.00  0.00    +0.000 N 
ATOM     19  C   UNL     1      48.796   6.108  16.654  0.00  0.00    +0.000 C 
ATOM     20  O   UNL     1      49.828   5.469  16.486  0.00  0.00    +0.000 OA
ATOM     21  H   UNL     1      47.147   7.000  15.766  0.00  0.00    +0.000 HD
BRANCH  19  22
ATOM     22  C   UNL     1      48.350   6.522  17.997  0.00  0.00    +0.000 A 
ATOM     23  C   UNL     1      48.253   5.578  19.011  0.00  0.00    +0.000 A 
ATOM     24  S   UNL     1      47.753   6.222  20.508  0.00  0.00    +0.000 S 
ATOM     25  C   UNL     1      47.641   7.790  19.861  0.00  0.00    +0.000 A 
ATOM     26  N   UNL     1      47.255   8.839  20.635  0.00  0.00    +0.000 NA
ATOM     27  C   UNL     1      47.217   9.974  20.023  0.00  0.00    +0.000 A 
ATOM     28  N   UNL     1      47.528  10.156  18.703  0.00  0.00    +0.000 N 
ATOM     29  C   UNL     1      47.916   9.129  17.883  0.00  0.00    +0.000 A 
ATOM     30  O   UNL     1      48.172   9.338  16.698  0.00  0.00    +0.000 OA
ATOM     31  C   UNL     1      47.979   7.825  18.517  0.00  0.00    +0.000 A 
ATOM     32  H   UNL     1      47.465  11.066  18.271  0.00  0.00    +0.000 HD
ENDBRANCH  19  22
ENDBRANCH  17  18
ENDBRANCH   4  17
TORSDOF 6
ENDMDL
MODEL 3
REMARK VINA RESULT:    -7.388      4.284      9.734
REMARK INTER + INTRA:         -10.570
REMARK INTER:                  -9.595
REMARK INTRA:                  -0.975
REMARK UNBOUND:                -0.591
REMARK  Name = 
REMARK  7 active torsions:
REMARK  status: ('A' for Active; 'I' for Inactive)
REMARK    1  A    between atoms: C_1  and  C_2
REMARK    2  A    between atoms: C_2  and  N_3
REMARK    3  A    between atoms: C_2  and  C_10
REMARK    4  A    between atoms: N_3  and  C_4
REMARK    5  A    between atoms: C_13  and  C_14
REMARK    6  A    between atoms: C_14  and  N_15
REMARK    7  A    between atoms: C_16  and  C_18
REMARK                            x       y       z     vdW  Elec       q    Type
REMARK                         _______ _______ _______ _____ _____    ______ ____
ROOT
ATOM      1  C   UNL     1      51.360   3.388  17.769  0.00  0.00    +0.000 A 
ATOM      2  C   UNL     1      50.774   2.198  17.339  0.00  0.00    +0.000 A 
ATOM      3  C   UNL     1      49.413   2.176  17.028  0.00  0.00    +0.000 A 
ATOM      4  C   UNL     1      48.650   3.337  17.160  0.00  0.00    +0.000 A 
ATOM      5  C   UNL     1      49.301   4.466  17.638  0.00  0.00    +0.000 A 
ATOM      6  N   UNL     1      50.622   4.520  17.926  0.00  0.00    +0.000 NA
ENDROOT
BRANCH   1   8
ATOM      7  C   UNL     1      53.499   4.776  17.556  0.00  0.00    +0.000 C 
ATOM      8  C   UNL     1      52.852   3.497  18.099  0.00  0.00    +0.000 C 
BRANCH   8   9
ATOM      9  N   UNL     1      53.566   2.321  17.575  0.00  0.00    +0.000 N 
ATOM     10  H   UNL     1      54.050   2.505  16.704  0.00  0.00    +0.000 HD
BRANCH   9  11
ATOM     11  C   UNL     1      54.194   1.390  18.400  0.00  0.00    +0.000 A 
ATOM     12  C   UNL     1      54.905   1.725  19.554  0.00  0.00    +0.000 A 
ATOM     13  C   UNL     1      55.430   0.716  20.351  0.00  0.00    +0.000 A 
ATOM     14  N   UNL     1      55.291  -0.600  20.092  0.00  0.00    +0.000 NA
ATOM     15  C   UNL     1      54.574  -0.914  18.996  0.00  0.00    +0.000 A 
ATOM     16  C   UNL     1      54.007   0.028  18.147  0.00  0.00    +0.000 A 
ENDBRANCH   9  11
ENDBRANCH   8   9
ENDBRANCH   1   8
BRANCH   4  17
ATOM     17  C   UNL     1      47.176   3.355  16.873  0.00  0.00    +0.000 C 
BRANCH  17  18
ATOM     18  N   UNL     1      46.863   4.356  15.885  0.00  0.00    +0.000 N 
ATOM     19  C   UNL     1      46.853   4.098  14.541  0.00  0.00    +0.000 C 
ATOM     20  O   UNL     1      47.201   3.013  14.091  0.00  0.00    +0.000 OA
ATOM     21  H   UNL     1      46.581   5.265  16.235  0.00  0.00    +0.000 HD
BRANCH  19  22
ATOM     22  C   UNL     1      46.394   5.191  13.664  0.00  0.00    +0.000 A 
ATOM     23  C   UNL     1      47.232   6.269  13.412  0.00  0.00    +0.000 A 
ATOM     24  S   UNL     1      46.566   7.430  12.355  0.00  0.00    +0.000 S 
ATOM     25  C   UNL     1      45.126   6.540  12.195  0.00  0.00    +0.000 A 
ATOM     26  N   UNL     1      44.111   6.989  11.409  0.00  0.00    +0.000 NA
ATOM     27  C   UNL     1      43.079   6.217  11.370  0.00  0.00    +0.000 A 
ATOM     28  N   UNL     1      42.966   5.033  12.048  0.00  0.00    +0.000 N 
ATOM     29  C   UNL     1      43.960   4.544  12.855  0.00  0.00    +0.000 A 
ATOM     30  O   UNL     1      43.809   3.483  13.458  0.00  0.00    +0.000 OA
ATOM     31  C   UNL     1      45.150   5.371  12.938  0.00  0.00    +0.000 A 
ATOM     32  H   UNL     1      42.127   4.477  11.993  0.00  0.00    +0.000 HD
ENDBRANCH  19  22
ENDBRANCH  17  18
ENDBRANCH   4  17
TORSDOF 6
ENDMDL
MODEL 4
REMARK VINA RESULT:    -7.348      1.835      2.379
REMARK INTER + INTRA:         -10.516
REMARK INTER:                 -10.130
REMARK INTRA:                  -0.386
REMARK UNBOUND:                -0.591
REMARK  Name = 
REMARK  7 active torsions:
REMARK  status: ('A' for Active; 'I' for Inactive)
REMARK    1  A    between atoms: C_1  and  C_2
REMARK    2  A    between atoms: C_2  and  N_3
REMARK    3  A    between atoms: C_2  and  C_10
REMARK    4  A    between atoms: N_3  and  C_4
REMARK    5  A    between atoms: C_13  and  C_14
REMARK    6  A    between atoms: C_14  and  N_15
REMARK    7  A    between atoms: C_16  and  C_18
REMARK                            x       y       z     vdW  Elec       q    Type
REMARK                         _______ _______ _______ _____ _____    ______ ____
ROOT
ATOM      1  C   UNL     1      44.855   5.021  11.338  0.00  0.00    +0.000 A 
ATOM      2  C   UNL     1      45.524   4.396  12.391  0.00  0.00    +0.000 A 
ATOM      3  C   UNL     1      46.481   5.109  13.115  0.00  0.00    +0.000 A 
ATOM      4  C   UNL     1      46.768   6.431  12.776  0.00  0.00    +0.000 A 
ATOM      5  C   UNL     1      46.091   6.962  11.687  0.00  0.00    +0.000 A 
ATOM      6  N   UNL     1      45.143   6.301  10.982  0.00  0.00    +0.000 NA
ENDROOT
BRANCH   1   8
ATOM      7  C   UNL     1      43.482   2.887  11.004  0.00  0.00    +0.000 C 
ATOM      8  C   UNL     1      43.772   4.313  10.519  0.00  0.00    +0.000 C 
BRANCH   8   9
ATOM      9  N   UNL     1      44.158   4.282   9.099  0.00  0.00    +0.000 N 
ATOM     10  H   UNL     1      44.104   5.190   8.652  0.00  0.00    +0.000 HD
BRANCH   9  11
ATOM     11  C   UNL     1      45.167   3.456   8.609  0.00  0.00    +0.000 A 
ATOM     12  C   UNL     1      45.221   2.078   8.828  0.00  0.00    +0.000 A 
ATOM     13  C   UNL     1      46.228   1.330   8.232  0.00  0.00    +0.000 A 
ATOM     14  N   UNL     1      47.178   1.847   7.427  0.00  0.00    +0.000 NA
ATOM     15  C   UNL     1      47.097   3.171   7.194  0.00  0.00    +0.000 A 
ATOM     16  C   UNL     1      46.121   3.995   7.741  0.00  0.00    +0.000 A 
ENDBRANCH   9  11
ENDBRANCH   8   9
ENDBRANCH   1   8
BRANCH   4  17
ATOM     17  C   UNL     1      47.815   7.228  13.501  0.00  0.00    +0.000 C 
BRANCH  17  18
ATOM     18  N   UNL     1      48.437   6.433  14.529  0.00  0.00    +0.000 N 
ATOM     19  C   UNL     1      48.803   6.942  15.745  0.00  0.00    +0.000 C 
ATOM     20  O   UNL     1      48.704   8.137  15.998  0.00  0.00    +0.000 OA
ATOM     21  H   UNL     1      48.537   5.442  14.337  0.00  0.00    +0.000 HD
BRANCH  19  22
ATOM     22  C   UNL     1      49.314   5.978  16.737  0.00  0.00    +0.000 A 
ATOM     23  C   UNL     1      48.421   5.227  17.490  0.00  0.00    +0.000 A 
ATOM     24  S   UNL     1      49.171   4.138  18.567  0.00  0.00    +0.000 S 
ATOM     25  C   UNL     1      50.722   4.631  18.074  0.00  0.00    +0.000 A 
ATOM     26  N   UNL     1      51.837   4.077  18.620  0.00  0.00    +0.000 NA
ATOM     27  C   UNL     1      52.949   4.536  18.154  0.00  0.00    +0.000 A 
ATOM     28  N   UNL     1      53.049   5.502  17.189  0.00  0.00    +0.000 N 
ATOM     29  C   UNL     1      51.954   6.092  16.615  0.00  0.00    +0.000 A 
ATOM     30  O   UNL     1      52.092   6.967  15.762  0.00  0.00    +0.000 OA
ATOM     31  C   UNL     1      50.672   5.615  17.100  0.00  0.00    +0.000 A 
ATOM     32  H   UNL     1      53.947   5.834  16.873  0.00  0.00    +0.000 HD
ENDBRANCH  19  22
ENDBRANCH  17  18
ENDBRANCH   4  17
TORSDOF 6
ENDMDL
MODEL 5
REMARK VINA RESULT:    -7.306      3.851      9.011
REMARK INTER + INTRA:         -10.459
REMARK INTER:                  -9.468
REMARK INTRA:                  -0.991
REMARK UNBOUND:                -0.591
REMARK  Name = 
REMARK  7 active torsions:
REMARK  status: ('A' for Active; 'I' for Inactive)
REMARK    1  A    between atoms: C_1  and  C_2
REMARK    2  A    between atoms: C_2  and  N_3
REMARK    3  A    between atoms: C_2  and  C_10
REMARK    4  A    between atoms: N_3  and  C_4
REMARK    5  A    between atoms: C_13  and  C_14
REMARK    6  A    between atoms: C_14  and  N_15
REMARK    7  A    between atoms: C_16  and  C_18
REMARK                            x       y       z     vdW  Elec       q    Type
REMARK                         _______ _______ _______ _____ _____    ______ ____
ROOT
ATOM      1  C   UNL     1      51.332   3.759  17.745  0.00  0.00    +0.000 A 
ATOM      2  C   UNL     1      50.815   2.515  17.386  0.00  0.00    +0.000 A 
ATOM      3  C   UNL     1      49.460   2.401  17.064  0.00  0.00    +0.000 A 
ATOM      4  C   UNL     1      48.637   3.526  17.115  0.00  0.00    +0.000 A 
ATOM      5  C   UNL     1      49.222   4.715  17.527  0.00  0.00    +0.000 A 
ATOM      6  N   UNL     1      50.535   4.858  17.823  0.00  0.00    +0.000 NA
ENDROOT
BRANCH   1   8
ATOM      7  C   UNL     1      53.171   3.548  19.512  0.00  0.00    +0.000 C 
ATOM      8  C   UNL     1      52.812   3.966  18.081  0.00  0.00    +0.000 C 
BRANCH   8   9
ATOM      9  N   UNL     1      53.180   5.375  17.872  0.00  0.00    +0.000 N 
ATOM     10  H   UNL     1      53.517   5.829  18.713  0.00  0.00    +0.000 HD
BRANCH   9  11
ATOM     11  C   UNL     1      53.765   5.836  16.693  0.00  0.00    +0.000 A 
ATOM     12  C   UNL     1      53.255   6.886  15.929  0.00  0.00    +0.000 A 
ATOM     13  C   UNL     1      53.954   7.320  14.810  0.00  0.00    +0.000 A 
ATOM     14  N   UNL     1      55.127   6.795  14.401  0.00  0.00    +0.000 NA
ATOM     15  C   UNL     1      55.627   5.805  15.164  0.00  0.00    +0.000 A 
ATOM     16  C   UNL     1      55.001   5.313  16.303  0.00  0.00    +0.000 A 
ENDBRANCH   9  11
ENDBRANCH   8   9
ENDBRANCH   1   8
BRANCH   4  17
ATOM     17  C   UNL     1      47.168   3.449  16.814  0.00  0.00    +0.000 C 
BRANCH  17  18
ATOM     18  N   UNL     1      46.798   4.434  15.830  0.00  0.00    +0.000 N 
ATOM     19  C   UNL     1      46.821   4.190  14.484  0.00  0.00    +0.000 C 
ATOM     20  O   UNL     1      47.248   3.135  14.030  0.00  0.00    +0.000 OA
ATOM     21  H   UNL     1      46.450   5.319  16.185  0.00  0.00    +0.000 HD
BRANCH  19  22
ATOM     22  C   UNL     1      46.298   5.256  13.611  0.00  0.00    +0.000 A 
ATOM     23  C   UNL     1      47.079   6.374  13.346  0.00  0.00    +0.000 A 
ATOM     24  S   UNL     1      46.343   7.497  12.296  0.00  0.00    +0.000 S 
ATOM     25  C   UNL     1      44.947   6.538  12.156  0.00  0.00    +0.000 A 
ATOM     26  N   UNL     1      43.901   6.936  11.383  0.00  0.00    +0.000 NA
ATOM     27  C   UNL     1      42.907   6.114  11.360  0.00  0.00    +0.000 A 
ATOM     28  N   UNL     1      42.861   4.928  12.041  0.00  0.00    +0.000 N 
ATOM     29  C   UNL     1      43.888   4.489  12.836  0.00  0.00    +0.000 A 
ATOM     30  O   UNL     1      43.796   3.424  13.443  0.00  0.00    +0.000 OA
ATOM     31  C   UNL     1      45.037   5.374  12.902  0.00  0.00    +0.000 A 
ATOM     32  H   UNL     1      42.049   4.331  11.999  0.00  0.00    +0.000 HD
ENDBRANCH  19  22
ENDBRANCH  17  18
ENDBRANCH   4  17
TORSDOF 6
ENDMDL
MODEL 6
REMARK VINA RESULT:    -7.159      3.156      7.898
REMARK INTER + INTRA:         -10.262
REMARK INTER:                  -8.808
REMARK INTRA:                  -1.454
REMARK UNBOUND:                -0.591
REMARK  Name = 
REMARK  7 active torsions:
REMARK  status: ('A' for Active; 'I' for Inactive)
REMARK    1  A    between atoms: C_1  and  C_2
REMARK    2  A    between atoms: C_2  and  N_3
REMARK    3  A    between atoms: C_2  and  C_10
REMARK    4  A    between atoms: N_3  and  C_4
REMARK    5  A    between atoms: C_13  and  C_14
REMARK    6  A    between atoms: C_14  and  N_15
REMARK    7  A    between atoms: C_16  and  C_18
REMARK                            x       y       z     vdW  Elec       q    Type
REMARK                         _______ _______ _______ _____ _____    ______ ____
ROOT
ATOM      1  C   UNL     1      50.371   6.521  17.980  0.00  0.00    +0.000 A 
ATOM      2  C   UNL     1      50.831   6.586  16.666  0.00  0.00    +0.000 A 
ATOM      3  C   UNL     1      50.175   7.410  15.749  0.00  0.00    +0.000 A 
ATOM      4  C   UNL     1      49.063   8.151  16.150  0.00  0.00    +0.000 A 
ATOM      5  C   UNL     1      48.643   7.992  17.464  0.00  0.00    +0.000 A 
ATOM      6  N   UNL     1      49.273   7.218  18.379  0.00  0.00    +0.000 NA
ENDROOT
BRANCH   1   8
ATOM      7  C   UNL     1      52.524   5.354  18.724  0.00  0.00    +0.000 C 
ATOM      8  C   UNL     1      51.057   5.663  19.048  0.00  0.00    +0.000 C 
BRANCH   8   9
ATOM      9  N   UNL     1      50.316   4.405  19.232  0.00  0.00    +0.000 N 
ATOM     10  H   UNL     1      49.610   4.461  19.958  0.00  0.00    +0.000 HD
BRANCH   9  11
ATOM     11  C   UNL     1      49.992   3.558  18.174  0.00  0.00    +0.000 A 
ATOM     12  C   UNL     1      50.866   2.611  17.638  0.00  0.00    +0.000 A 
ATOM     13  C   UNL     1      50.421   1.762  16.633  0.00  0.00    +0.000 A 
ATOM     14  N   UNL     1      49.171   1.777  16.129  0.00  0.00    +0.000 NA
ATOM     15  C   UNL     1      48.325   2.671  16.676  0.00  0.00    +0.000 A 
ATOM     16  C   UNL     1      48.681   3.553  17.689  0.00  0.00    +0.000 A 
ENDBRANCH   9  11
ENDBRANCH   8   9
ENDBRANCH   1   8
BRANCH   4  17
ATOM     17  C   UNL     1      48.302   9.022  15.194  0.00  0.00    +0.000 C 
BRANCH  17  18
ATOM     18  N   UNL     1      47.283   8.263  14.515  0.00  0.00    +0.000 N 
ATOM     19  C   UNL     1      47.252   8.104  13.156  0.00  0.00    +0.000 C 
ATOM     20  O   UNL     1      48.047   8.682  12.424  0.00  0.00    +0.000 OA
ATOM     21  H   UNL     1      46.608   7.784  15.103  0.00  0.00    +0.000 HD
BRANCH  19  22
ATOM     22  C   UNL     1      46.219   7.199  12.621  0.00  0.00    +0.000 A 
ATOM     23  C   UNL     1      45.205   7.709  11.820  0.00  0.00    +0.000 A 
ATOM     24  S   UNL     1      44.111   6.529  11.257  0.00  0.00    +0.000 S 
ATOM     25  C   UNL     1      44.946   5.287  12.066  0.00  0.00    +0.000 A 
ATOM     26  N   UNL     1      44.520   3.998  11.994  0.00  0.00    +0.000 NA
ATOM     27  C   UNL     1      45.245   3.155  12.648  0.00  0.00    +0.000 A 
ATOM     28  N   UNL     1      46.360   3.484  13.371  0.00  0.00    +0.000 N 
ATOM     29  C   UNL     1      46.823   4.770  13.476  0.00  0.00    +0.000 A 
ATOM     30  O   UNL     1      47.820   5.021  14.149  0.00  0.00    +0.000 OA
ATOM     31  C   UNL     1      46.046   5.765  12.759  0.00  0.00    +0.000 A 
ATOM     32  H   UNL     1      46.880   2.784  13.876  0.00  0.00    +0.000 HD
ENDBRANCH  19  22
ENDBRANCH  17  18
ENDBRANCH   4  17
TORSDOF 6
ENDMDL
MODEL 7
REMARK VINA RESULT:    -7.085      2.348      3.435
REMARK INTER + INTRA:         -10.160
REMARK INTER:                  -8.653
REMARK INTRA:                  -1.507
REMARK UNBOUND:                -0.591
REMARK  Name = 
REMARK  7 active torsions:
REMARK  status: ('A' for Active; 'I' for Inactive)
REMARK    1  A    between atoms: C_1  and  C_2
REMARK    2  A    between atoms: C_2  and  N_3
REMARK    3  A    between atoms: C_2  and  C_10
REMARK    4  A    between atoms: N_3  and  C_4
REMARK    5  A    between atoms: C_13  and  C_14
REMARK    6  A    between atoms: C_14  and  N_15
REMARK    7  A    between atoms: C_16  and  C_18
REMARK                            x       y       z     vdW  Elec       q    Type
REMARK                         _______ _______ _______ _____ _____    ______ ____
ROOT
ATOM      1  C   UNL     1      45.914   7.881  11.790  0.00  0.00    +0.000 A 
ATOM      2  C   UNL     1      46.829   6.851  11.576  0.00  0.00    +0.000 A 
ATOM      3  C   UNL     1      48.057   6.874  12.241  0.00  0.00    +0.000 A 
ATOM      4  C   UNL     1      48.363   7.929  13.101  0.00  0.00    +0.000 A 
ATOM      5  C   UNL     1      47.415   8.937  13.221  0.00  0.00    +0.000 A 
ATOM      6  N   UNL     1      46.210   8.928  12.606  0.00  0.00    +0.000 NA
ENDROOT
BRANCH   1   8
ATOM      7  C   UNL     1      43.942   9.317  11.015  0.00  0.00    +0.000 C 
ATOM      8  C   UNL     1      44.536   7.907  11.121  0.00  0.00    +0.000 C 
BRANCH   8   9
ATOM      9  N   UNL     1      43.607   7.033  11.854  0.00  0.00    +0.000 N 
ATOM     10  H   UNL     1      42.698   7.455  12.006  0.00  0.00    +0.000 HD
BRANCH   9  11
ATOM     11  C   UNL     1      43.582   5.650  11.688  0.00  0.00    +0.000 A 
ATOM     12  C   UNL     1      43.818   5.006  10.472  0.00  0.00    +0.000 A 
ATOM     13  C   UNL     1      43.845   3.618  10.427  0.00  0.00    +0.000 A 
ATOM     14  N   UNL     1      43.665   2.824  11.502  0.00  0.00    +0.000 NA
ATOM     15  C   UNL     1      43.472   3.454  12.676  0.00  0.00    +0.000 A 
ATOM     16  C   UNL     1      43.438   4.836  12.815  0.00  0.00    +0.000 A 
ENDBRANCH   9  11
ENDBRANCH   8   9
ENDBRANCH   1   8
BRANCH   4  17
ATOM     17  C   UNL     1      49.683   8.019  13.810  0.00  0.00    +0.000 C 
BRANCH  17  18
ATOM     18  N   UNL     1      49.728   7.100  14.919  0.00  0.00    +0.000 N 
ATOM     19  C   UNL     1      49.309   7.430  16.179  0.00  0.00    +0.000 C 
ATOM     20  O   UNL     1      48.951   8.569  16.459  0.00  0.00    +0.000 OA
ATOM     21  H   UNL     1      50.031   6.154  14.711  0.00  0.00    +0.000 HD
BRANCH  19  22
ATOM     22  C   UNL     1      49.302   6.346  17.177  0.00  0.00    +0.000 A 
ATOM     23  C   UNL     1      50.020   6.493  18.357  0.00  0.00    +0.000 A 
ATOM     24  S   UNL     1      49.884   5.165  19.418  0.00  0.00    +0.000 S 
ATOM     25  C   UNL     1      48.862   4.336  18.341  0.00  0.00    +0.000 A 
ATOM     26  N   UNL     1      48.373   3.106  18.649  0.00  0.00    +0.000 NA
ATOM     27  C   UNL     1      47.607   2.591  17.748  0.00  0.00    +0.000 A 
ATOM     28  N   UNL     1      47.284   3.194  16.563  0.00  0.00    +0.000 N 
ATOM     29  C   UNL     1      47.758   4.430  16.207  0.00  0.00    +0.000 A 
ATOM     30  O   UNL     1      47.454   4.927  15.124  0.00  0.00    +0.000 OA
ATOM     31  C   UNL     1      48.627   5.061  17.183  0.00  0.00    +0.000 A 
ATOM     32  H   UNL     1      46.692   2.736  15.887  0.00  0.00    +0.000 HD
ENDBRANCH  19  22
ENDBRANCH  17  18
ENDBRANCH   4  17
TORSDOF 6
ENDMDL
MODEL 8
REMARK VINA RESULT:    -7.055      3.142      5.019
REMARK INTER + INTRA:         -10.120
REMARK INTER:                  -9.198
REMARK INTRA:                  -0.922
REMARK UNBOUND:                -0.591
REMARK  Name = 
REMARK  7 active torsions:
REMARK  status: ('A' for Active; 'I' for Inactive)
REMARK    1  A    between atoms: C_1  and  C_2
REMARK    2  A    between atoms: C_2  and  N_3
REMARK    3  A    between atoms: C_2  and  C_10
REMARK    4  A    between atoms: N_3  and  C_4
REMARK    5  A    between atoms: C_13  and  C_14
REMARK    6  A    between atoms: C_14  and  N_15
REMARK    7  A    between atoms: C_16  and  C_18
REMARK                            x       y       z     vdW  Elec       q    Type
REMARK                         _______ _______ _______ _____ _____    ______ ____
ROOT
ATOM      1  C   UNL     1      47.534   5.897  13.712  0.00  0.00    +0.000 A 
ATOM      2  C   UNL     1      48.221   6.469  14.783  0.00  0.00    +0.000 A 
ATOM      3  C   UNL     1      48.321   5.768  15.987  0.00  0.00    +0.000 A 
ATOM      4  C   UNL     1      47.727   4.513  16.113  0.00  0.00    +0.000 A 
ATOM      5  C   UNL     1      47.024   4.037  15.015  0.00  0.00    +0.000 A 
ATOM      6  N   UNL     1      46.929   4.685  13.830  0.00  0.00    +0.000 NA
ENDROOT
BRANCH   1   8
ATOM      7  C   UNL     1      48.283   7.846  12.232  0.00  0.00    +0.000 C 
ATOM      8  C   UNL     1      47.409   6.592  12.353  0.00  0.00    +0.000 C 
BRANCH   8   9
ATOM      9  N   UNL     1      46.002   6.944  12.098  0.00  0.00    +0.000 N 
ATOM     10  H   UNL     1      45.879   7.907  11.808  0.00  0.00    +0.000 HD
BRANCH   9  11
ATOM     11  C   UNL     1      45.089   6.050  11.542  0.00  0.00    +0.000 A 
ATOM     12  C   UNL     1      45.376   5.217  10.459  0.00  0.00    +0.000 A 
ATOM     13  C   UNL     1      44.421   4.306  10.026  0.00  0.00    +0.000 A 
ATOM     14  N   UNL     1      43.208   4.155  10.595  0.00  0.00    +0.000 NA
ATOM     15  C   UNL     1      42.954   4.939  11.660  0.00  0.00    +0.000 A 
ATOM     16  C   UNL     1      43.852   5.871  12.166  0.00  0.00    +0.000 A 
ENDBRANCH   9  11
ENDBRANCH   8   9
ENDBRANCH   1   8
BRANCH   4  17
ATOM     17  C   UNL     1      47.776   3.736  17.397  0.00  0.00    +0.000 C 
BRANCH  17  18
ATOM     18  N   UNL     1      49.135   3.402  17.738  0.00  0.00    +0.000 N 
ATOM     19  C   UNL     1      49.860   2.454  17.069  0.00  0.00    +0.000 C 
ATOM     20  O   UNL     1      49.359   1.764  16.189  0.00  0.00    +0.000 OA
ATOM     21  H   UNL     1      49.567   3.956  18.471  0.00  0.00    +0.000 HD
BRANCH  19  22
ATOM     22  C   UNL     1      51.276   2.313  17.455  0.00  0.00    +0.000 A 
ATOM     23  C   UNL     1      51.844   1.048  17.534  0.00  0.00    +0.000 A 
ATOM     24  S   UNL     1      53.495   1.058  17.961  0.00  0.00    +0.000 S 
ATOM     25  C   UNL     1      53.516   2.755  18.064  0.00  0.00    +0.000 A 
ATOM     26  N   UNL     1      54.655   3.420  18.397  0.00  0.00    +0.000 NA
ATOM     27  C   UNL     1      54.536   4.704  18.433  0.00  0.00    +0.000 A 
ATOM     28  N   UNL     1      53.380   5.386  18.168  0.00  0.00    +0.000 N 
ATOM     29  C   UNL     1      52.208   4.759  17.835  0.00  0.00    +0.000 A 
ATOM     30  O   UNL     1      51.189   5.413  17.620  0.00  0.00    +0.000 OA
ATOM     31  C   UNL     1      52.280   3.310  17.777  0.00  0.00    +0.000 A 
ATOM     32  H   UNL     1      53.341   6.392  18.228  0.00  0.00    +0.000 HD
ENDBRANCH  19  22
ENDBRANCH  17  18
ENDBRANCH   4  17
TORSDOF 6
ENDMDL
MODEL 9
REMARK VINA RESULT:    -6.863      3.336      5.248
REMARK INTER + INTRA:          -9.860
REMARK INTER:                  -8.669
REMARK INTRA:                  -1.191
REMARK UNBOUND:                -0.591
REMARK  Name = 
REMARK  7 active torsions:
REMARK  status: ('A' for Active; 'I' for Inactive)
REMARK    1  A    between atoms: C_1  and  C_2
REMARK    2  A    between atoms: C_2  and  N_3
REMARK    3  A    between atoms: C_2  and  C_10
REMARK    4  A    between atoms: N_3  and  C_4
REMARK    5  A    between atoms: C_13  and  C_14
REMARK    6  A    between atoms: C_14  and  N_15
REMARK    7  A    between atoms: C_16  and  C_18
REMARK                            x       y       z     vdW  Elec       q    Type
REMARK                         _______ _______ _______ _____ _____    ______ ____
ROOT
ATOM      1  C   UNL     1      47.912   5.938  14.654  0.00  0.00    +0.000 A 
ATOM      2  C   UNL     1      48.654   7.091  14.908  0.00  0.00    +0.000 A 
ATOM      3  C   UNL     1      49.349   7.209  16.113  0.00  0.00    +0.000 A 
ATOM      4  C   UNL     1      49.288   6.182  17.054  0.00  0.00    +0.000 A 
ATOM      5  C   UNL     1      48.490   5.089  16.742  0.00  0.00    +0.000 A 
ATOM      6  N   UNL     1      47.824   4.940  15.574  0.00  0.00    +0.000 NA
ENDROOT
BRANCH   1   8
ATOM      7  C   UNL     1      47.520   6.741  12.256  0.00  0.00    +0.000 C 
ATOM      8  C   UNL     1      47.149   5.725  13.343  0.00  0.00    +0.000 C 
BRANCH   8   9
ATOM      9  N   UNL     1      45.700   5.777  13.593  0.00  0.00    +0.000 N 
ATOM     10  H   UNL     1      45.378   6.693  13.884  0.00  0.00    +0.000 HD
BRANCH   9  11
ATOM     11  C   UNL     1      44.777   5.053  12.841  0.00  0.00    +0.000 A 
ATOM     12  C   UNL     1      43.508   5.523  12.501  0.00  0.00    +0.000 A 
ATOM     13  C   UNL     1      42.690   4.754  11.682  0.00  0.00    +0.000 A 
ATOM     14  N   UNL     1      43.045   3.559  11.168  0.00  0.00    +0.000 NA
ATOM     15  C   UNL     1      44.284   3.130  11.474  0.00  0.00    +0.000 A 
ATOM     16  C   UNL     1      45.170   3.835  12.278  0.00  0.00    +0.000 A 
ENDBRANCH   9  11
ENDBRANCH   8   9
ENDBRANCH   1   8
BRANCH   4  17
ATOM     17  C   UNL     1      49.988   6.276  18.380  0.00  0.00    +0.000 C 
BRANCH  17  18
ATOM     18  N   UNL     1      50.909   5.181  18.547  0.00  0.00    +0.000 N 
ATOM     19  C   UNL     1      52.205   5.223  18.110  0.00  0.00    +0.000 C 
ATOM     20  O   UNL     1      52.634   6.172  17.463  0.00  0.00    +0.000 OA
ATOM     21  H   UNL     1      50.571   4.381  19.072  0.00  0.00    +0.000 HD
BRANCH  19  22
ATOM     22  C   UNL     1      53.058   4.075  18.464  0.00  0.00    +0.000 A 
ATOM     23  C   UNL     1      54.235   4.284  19.171  0.00  0.00    +0.000 A 
ATOM     24  S   UNL     1      55.090   2.853  19.528  0.00  0.00    +0.000 S 
ATOM     25  C   UNL     1      53.924   1.894  18.747  0.00  0.00    +0.000 A 
ATOM     26  N   UNL     1      54.057   0.542  18.688  0.00  0.00    +0.000 NA
ATOM     27  C   UNL     1      53.100  -0.066  18.072  0.00  0.00    +0.000 A 
ATOM     28  N   UNL     1      52.020   0.555  17.506  0.00  0.00    +0.000 N 
ATOM     29  C   UNL     1      51.847   1.914  17.536  0.00  0.00    +0.000 A 
ATOM     30  O   UNL     1      50.868   2.431  17.000  0.00  0.00    +0.000 OA
ATOM     31  C   UNL     1      52.893   2.654  18.217  0.00  0.00    +0.000 A 
ATOM     32  H   UNL     1      51.308   0.029  17.022  0.00  0.00    +0.000 HD
ENDBRANCH  19  22
ENDBRANCH  17  18
ENDBRANCH   4  17
TORSDOF 6
ENDMDL
