MODEL 1
REMARK VINA RESULT:    -8.237      0.000      0.000
REMARK INTER + INTRA:         -11.388
REMARK INTER:                 -10.644
REMARK INTRA:                  -0.744
REMARK UNBOUND:                -0.744
REMARK  Name = 
REMARK  7 active torsions:
REMARK  status: ('A' for Active; 'I' for Inactive)
REMARK    1  A    between atoms: C_1  and  O_2
REMARK    2  A    between atoms: O_2  and  C_3
REMARK    3  A    between atoms: C_6  and  C_7
REMARK    4  A    between atoms: C_7  and  C_8
REMARK    5  A    between atoms: C_7  and  N_9
REMARK    6  A    between atoms: N_9  and  C_10
REMARK    7  A    between atoms: C_13  and  C_14
REMARK                            x       y       z     vdW  Elec       q    Type
REMARK                         _______ _______ _______ _____ _____    ______ ____
ROOT
ATOM      1  N   UNL     1      43.754   4.832   9.847  0.00  0.00    +0.000 N 
ATOM      2  H   UNL     1      44.010   5.797   9.636  0.00  0.00    +0.000 HD
ENDROOT
BRANCH   1   3
ATOM      3  C   UNL     1      44.573   3.930   9.158  0.00  0.00    +0.000 A 
ATOM      4  C   UNL     1      45.573   4.317   8.266  0.00  0.00    +0.000 A 
ATOM      5  C   UNL     1      46.404   3.371   7.663  0.00  0.00    +0.000 A 
ATOM      6  C   UNL     1      46.223   2.037   7.982  0.00  0.00    +0.000 A 
ATOM      7  N   UNL     1      45.296   1.595   8.874  0.00  0.00    +0.000 NA
ATOM      8  C   UNL     1      44.524   2.557   9.446  0.00  0.00    +0.000 A 
BRANCH   6   9
ATOM      9  C   UNL     1      47.079   1.008   7.310  0.00  0.00    +0.000 C 
ATOM     10  N   UNL     1      46.808  -0.291   7.636  0.00  0.00    +0.000 N 
ATOM     11  O   UNL     1      47.963   1.300   6.512  0.00  0.00    +0.000 OA
ATOM     12  H   UNL     1      46.069  -0.499   8.296  0.00  0.00    +0.000 HD
ATOM     13  H   UNL     1      47.345  -1.032   7.207  0.00  0.00    +0.000 HD
ENDBRANCH   6   9
ENDBRANCH   1   3
BRANCH   1  14
ATOM     14  C   UNL     1      43.494   4.657  11.286  0.00  0.00    +0.000 C 
ATOM     15  C   UNL     1      42.354   5.559  11.767  0.00  0.00    +0.000 C 
BRANCH  14  19
ATOM     16  C   UNL     1      47.146   5.545  13.477  0.00  0.00    +0.000 A 
ATOM     17  C   UNL     1      46.534   4.299  13.595  0.00  0.00    +0.000 A 
ATOM     18  C   UNL     1      45.358   4.019  12.888  0.00  0.00    +0.000 A 
ATOM     19  C   UNL     1      44.771   4.983  12.056  0.00  0.00    +0.000 A 
ATOM     20  C   UNL     1      45.389   6.239  11.954  0.00  0.00    +0.000 A 
ATOM     21  C   UNL     1      46.562   6.515  12.661  0.00  0.00    +0.000 A 
BRANCH  16  23
ATOM     22  C   UNL     1      49.006   7.022  13.509  0.00  0.00    +0.000 C 
ATOM     23  O   UNL     1      48.302   5.934  14.095  0.00  0.00    +0.000 OA
ENDBRANCH  16  23
ENDBRANCH  14  19
ENDBRANCH   1  14
TORSDOF 5
ENDMDL
MODEL 2
REMARK VINA RESULT:    -6.850      2.186      6.214
REMARK INTER + INTRA:          -9.595
REMARK INTER:                 -10.040
REMARK INTRA:                   0.445
REMARK UNBOUND:                -0.744
REMARK  Name = 
REMARK  7 active torsions:
REMARK  status: ('A' for Active; 'I' for Inactive)
REMARK    1  A    between atoms: C_1  and  O_2
REMARK    2  A    between atoms: O_2  and  C_3
REMARK    3  A    between atoms: C_6  and  C_7
REMARK    4  A    between atoms: C_7  and  C_8
REMARK    5  A    between atoms: C_7  and  N_9
REMARK    6  A    between atoms: N_9  and  C_10
REMARK    7  A    between atoms: C_13  and  C_14
REMARK                            x       y       z     vdW  Elec       q    Type
REMARK                         _______ _______ _______ _____ _____    ______ ____
ROOT
ATOM      1  N   UNL     1      44.657   5.458  10.542  0.00  0.00    +0.000 N 
ATOM      2  H   UNL     1      44.034   6.260  10.632  0.00  0.00    +0.000 HD
ENDROOT
BRANCH   1   3
ATOM      3  C   UNL     1      45.426   5.284  11.699  0.00  0.00    +0.000 A 
ATOM      4  C   UNL     1      46.589   6.003  11.971  0.00  0.00    +0.000 A 
ATOM      5  C   UNL     1      47.274   5.835  13.175  0.00  0.00    +0.000 A 
ATOM      6  C   UNL     1      46.763   4.945  14.104  0.00  0.00    +0.000 A 
ATOM      7  N   UNL     1      45.612   4.244  13.921  0.00  0.00    +0.000 NA
ATOM      8  C   UNL     1      44.975   4.457  12.739  0.00  0.00    +0.000 A 
BRANCH   6   9
ATOM      9  C   UNL     1      47.511   4.723  15.383  0.00  0.00    +0.000 C 
ATOM     10  N   UNL     1      47.079   3.674  16.145  0.00  0.00    +0.000 N 
ATOM     11  O   UNL     1      48.454   5.424  15.730  0.00  0.00    +0.000 OA
ATOM     12  H   UNL     1      46.299   3.111  15.828  0.00  0.00    +0.000 HD
ATOM     13  H   UNL     1      47.550   3.465  17.014  0.00  0.00    +0.000 HD
ENDBRANCH   6   9
ENDBRANCH   1   3
BRANCH   1  14
ATOM     14  C   UNL     1      43.961   4.315   9.927  0.00  0.00    +0.000 C 
ATOM     15  C   UNL     1      43.383   3.371  10.985  0.00  0.00    +0.000 C 
BRANCH  14  19
ATOM     16  C   UNL     1      46.754   2.124   7.412  0.00  0.00    +0.000 A 
ATOM     17  C   UNL     1      45.987   1.458   8.367  0.00  0.00    +0.000 A 
ATOM     18  C   UNL     1      45.090   2.169   9.175  0.00  0.00    +0.000 A 
ATOM     19  C   UNL     1      44.950   3.558   9.046  0.00  0.00    +0.000 A 
ATOM     20  C   UNL     1      45.737   4.220   8.090  0.00  0.00    +0.000 A 
ATOM     21  C   UNL     1      46.630   3.508   7.286  0.00  0.00    +0.000 A 
BRANCH  16  23
ATOM     22  C   UNL     1      48.029   2.311   5.417  0.00  0.00    +0.000 C 
ATOM     23  O   UNL     1      47.645   1.545   6.552  0.00  0.00    +0.000 OA
ENDBRANCH  16  23
ENDBRANCH  14  19
ENDBRANCH   1  14
TORSDOF 5
ENDMDL
MODEL 3
REMARK VINA RESULT:    -6.565      2.653      6.500
REMARK INTER + INTRA:          -9.228
REMARK INTER:                  -8.546
REMARK INTRA:                  -0.682
REMARK UNBOUND:                -0.744
REMARK  Name = 
REMARK  7 active torsions:
REMARK  status: ('A' for Active; 'I' for Inactive)
REMARK    1  A    between atoms: C_1  and  O_2
REMARK    2  A    between atoms: O_2  and  C_3
REMARK    3  A    between atoms: C_6  and  C_7
REMARK    4  A    between atoms: C_7  and  C_8
REMARK    5  A    between atoms: C_7  and  N_9
REMARK    6  A    between atoms: N_9  and  C_10
REMARK    7  A    between atoms: C_13  and  C_14
REMARK                            x       y       z     vdW  Elec       q    Type
REMARK                         _______ _______ _______ _____ _____    ______ ____
ROOT
ATOM      1  N   UNL     1      45.005   4.607  12.521  0.00  0.00    +0.000 N 
ATOM      2  H   UNL     1      45.170   3.602  12.547  0.00  0.00    +0.000 HD
ENDROOT
BRANCH   1   3
ATOM      3  C   UNL     1      46.138   5.317  12.935  0.00  0.00    +0.000 A 
ATOM      4  C   UNL     1      46.515   6.552  12.407  0.00  0.00    +0.000 A 
ATOM      5  C   UNL     1      47.616   7.244  12.911  0.00  0.00    +0.000 A 
ATOM      6  C   UNL     1      48.322   6.683  13.962  0.00  0.00    +0.000 A 
ATOM      7  N   UNL     1      47.984   5.505  14.551  0.00  0.00    +0.000 NA
ATOM      8  C   UNL     1      46.894   4.879  14.033  0.00  0.00    +0.000 A 
BRANCH   6   9
ATOM      9  C   UNL     1      49.532   7.394  14.484  0.00  0.00    +0.000 C 
ATOM     10  N   UNL     1      50.559   7.545  13.595  0.00  0.00    +0.000 N 
ATOM     11  O   UNL     1      49.605   7.823  15.630  0.00  0.00    +0.000 OA
ATOM     12  H   UNL     1      50.465   7.182  12.654  0.00  0.00    +0.000 HD
ATOM     13  H   UNL     1      51.399   8.027  13.884  0.00  0.00    +0.000 HD
ENDBRANCH   6   9
ENDBRANCH   1   3
BRANCH   1  14
ATOM     14  C   UNL     1      44.288   4.994  11.294  0.00  0.00    +0.000 C 
ATOM     15  C   UNL     1      42.786   4.721  11.408  0.00  0.00    +0.000 C 
BRANCH  14  19
ATOM     16  C   UNL     1      45.910   2.729   7.953  0.00  0.00    +0.000 A 
ATOM     17  C   UNL     1      45.259   2.080   9.000  0.00  0.00    +0.000 A 
ATOM     18  C   UNL     1      44.739   2.814  10.074  0.00  0.00    +0.000 A 
ATOM     19  C   UNL     1      44.868   4.210  10.121  0.00  0.00    +0.000 A 
ATOM     20  C   UNL     1      45.537   4.852   9.067  0.00  0.00    +0.000 A 
ATOM     21  C   UNL     1      46.053   4.116   7.998  0.00  0.00    +0.000 A 
BRANCH  16  23
ATOM     22  C   UNL     1      47.828   1.826   6.882  0.00  0.00    +0.000 C 
ATOM     23  O   UNL     1      46.440   2.132   6.843  0.00  0.00    +0.000 OA
ENDBRANCH  16  23
ENDBRANCH  14  19
ENDBRANCH   1  14
TORSDOF 5
ENDMDL
MODEL 4
REMARK VINA RESULT:    -5.920      3.456      7.187
REMARK INTER + INTRA:          -8.394
REMARK INTER:                  -7.860
REMARK INTRA:                  -0.534
REMARK UNBOUND:                -0.744
REMARK  Name = 
REMARK  7 active torsions:
REMARK  status: ('A' for Active; 'I' for Inactive)
REMARK    1  A    between atoms: C_1  and  O_2
REMARK    2  A    between atoms: O_2  and  C_3
REMARK    3  A    between atoms: C_6  and  C_7
REMARK    4  A    between atoms: C_7  and  C_8
REMARK    5  A    between atoms: C_7  and  N_9
REMARK    6  A    between atoms: N_9  and  C_10
REMARK    7  A    between atoms: C_13  and  C_14
REMARK                            x       y       z     vdW  Elec       q    Type
REMARK                         _______ _______ _______ _____ _____    ______ ____
ROOT
ATOM      1  N   UNL     1      45.883   3.866  13.482  0.00  0.00    +0.000 N 
ATOM      2  H   UNL     1      46.401   3.249  12.856  0.00  0.00    +0.000 HD
ENDROOT
BRANCH   1   3
ATOM      3  C   UNL     1      46.748   4.560  14.336  0.00  0.00    +0.000 A 
ATOM      4  C   UNL     1      47.045   4.152  15.637  0.00  0.00    +0.000 A 
ATOM      5  C   UNL     1      47.970   4.848  16.415  0.00  0.00    +0.000 A 
ATOM      6  C   UNL     1      48.601   5.949  15.862  0.00  0.00    +0.000 A 
ATOM      7  N   UNL     1      48.390   6.375  14.587  0.00  0.00    +0.000 NA
ATOM      8  C   UNL     1      47.492   5.653  13.866  0.00  0.00    +0.000 A 
BRANCH   6   9
ATOM      9  C   UNL     1      49.564   6.731  16.701  0.00  0.00    +0.000 C 
ATOM     10  N   UNL     1      49.886   6.173  17.906  0.00  0.00    +0.000 N 
ATOM     11  O   UNL     1      50.044   7.798  16.338  0.00  0.00    +0.000 OA
ATOM     12  H   UNL     1      49.474   5.287  18.175  0.00  0.00    +0.000 HD
ATOM     13  H   UNL     1      50.540   6.646  18.513  0.00  0.00    +0.000 HD
ENDBRANCH   6   9
ENDBRANCH   1   3
BRANCH   1  14
ATOM     14  C   UNL     1      44.815   4.577  12.760  0.00  0.00    +0.000 C 
ATOM     15  C   UNL     1      43.428   4.062  13.154  0.00  0.00    +0.000 C 
BRANCH  14  19
ATOM     16  C   UNL     1      45.463   4.067   8.488  0.00  0.00    +0.000 A 
ATOM     17  C   UNL     1      45.788   5.268   9.117  0.00  0.00    +0.000 A 
ATOM     18  C   UNL     1      45.576   5.427  10.492  0.00  0.00    +0.000 A 
ATOM     19  C   UNL     1      45.030   4.390  11.261  0.00  0.00    +0.000 A 
ATOM     20  C   UNL     1      44.694   3.189  10.616  0.00  0.00    +0.000 A 
ATOM     21  C   UNL     1      44.907   3.034   9.244  0.00  0.00    +0.000 A 
BRANCH  16  23
ATOM     22  C   UNL     1      46.873   3.174   6.798  0.00  0.00    +0.000 C 
ATOM     23  O   UNL     1      45.639   3.780   7.163  0.00  0.00    +0.000 OA
ENDBRANCH  16  23
ENDBRANCH  14  19
ENDBRANCH   1  14
TORSDOF 5
ENDMDL
MODEL 5
REMARK VINA RESULT:    -5.728      4.609      6.313
REMARK INTER + INTRA:          -8.147
REMARK INTER:                  -7.595
REMARK INTRA:                  -0.551
REMARK UNBOUND:                -0.744
REMARK  Name = 
REMARK  7 active torsions:
REMARK  status: ('A' for Active; 'I' for Inactive)
REMARK    1  A    between atoms: C_1  and  O_2
REMARK    2  A    between atoms: O_2  and  C_3
REMARK    3  A    between atoms: C_6  and  C_7
REMARK    4  A    between atoms: C_7  and  C_8
REMARK    5  A    between atoms: C_7  and  N_9
REMARK    6  A    between atoms: N_9  and  C_10
REMARK    7  A    between atoms: C_13  and  C_14
REMARK                            x       y       z     vdW  Elec       q    Type
REMARK                         _______ _______ _______ _____ _____    ______ ____
ROOT
ATOM      1  N   UNL     1      47.633   5.185  15.520  0.00  0.00    +0.000 N 
ATOM      2  H   UNL     1      48.604   5.368  15.270  0.00  0.00    +0.000 HD
ENDROOT
BRANCH   1   3
ATOM      3  C   UNL     1      46.865   4.895  14.386  0.00  0.00    +0.000 A 
ATOM      4  C   UNL     1      46.412   5.862  13.489  0.00  0.00    +0.000 A 
ATOM      5  C   UNL     1      45.710   5.503  12.337  0.00  0.00    +0.000 A 
ATOM      6  C   UNL     1      45.485   4.159  12.096  0.00  0.00    +0.000 A 
ATOM      7  N   UNL     1      45.935   3.163  12.906  0.00  0.00    +0.000 NA
ATOM      8  C   UNL     1      46.627   3.565  14.005  0.00  0.00    +0.000 A 
BRANCH   6   9
ATOM      9  C   UNL     1      44.696   3.762  10.886  0.00  0.00    +0.000 C 
ATOM     10  N   UNL     1      44.931   2.501  10.415  0.00  0.00    +0.000 N 
ATOM     11  O   UNL     1      43.885   4.508  10.350  0.00  0.00    +0.000 OA
ATOM     12  H   UNL     1      45.606   1.908  10.884  0.00  0.00    +0.000 HD
ATOM     13  H   UNL     1      44.421   2.170   9.608  0.00  0.00    +0.000 HD
ENDBRANCH   6   9
ENDBRANCH   1   3
BRANCH   1  14
ATOM     14  C   UNL     1      47.546   4.334  16.718  0.00  0.00    +0.000 C 
ATOM     15  C   UNL     1      47.038   5.119  17.932  0.00  0.00    +0.000 C 
BRANCH  14  19
ATOM     16  C   UNL     1      51.497   2.737  17.595  0.00  0.00    +0.000 A 
ATOM     17  C   UNL     1      51.219   4.089  17.791  0.00  0.00    +0.000 A 
ATOM     18  C   UNL     1      49.946   4.598  17.506  0.00  0.00    +0.000 A 
ATOM     19  C   UNL     1      48.930   3.765  17.014  0.00  0.00    +0.000 A 
ATOM     20  C   UNL     1      49.225   2.408  16.809  0.00  0.00    +0.000 A 
ATOM     21  C   UNL     1      50.496   1.904  17.095  0.00  0.00    +0.000 A 
BRANCH  16  23
ATOM     22  C   UNL     1      52.693   0.695  17.795  0.00  0.00    +0.000 C 
ATOM     23  O   UNL     1      52.687   2.116  17.853  0.00  0.00    +0.000 OA
ENDBRANCH  16  23
ENDBRANCH  14  19
ENDBRANCH   1  14
TORSDOF 5
ENDMDL
MODEL 6
REMARK VINA RESULT:    -5.689      3.214      6.535
REMARK INTER + INTRA:          -8.095
REMARK INTER:                  -8.007
REMARK INTRA:                  -0.088
REMARK UNBOUND:                -0.744
REMARK  Name = 
REMARK  7 active torsions:
REMARK  status: ('A' for Active; 'I' for Inactive)
REMARK    1  A    between atoms: C_1  and  O_2
REMARK    2  A    between atoms: O_2  and  C_3
REMARK    3  A    between atoms: C_6  and  C_7
REMARK    4  A    between atoms: C_7  and  C_8
REMARK    5  A    between atoms: C_7  and  N_9
REMARK    6  A    between atoms: N_9  and  C_10
REMARK    7  A    between atoms: C_13  and  C_14
REMARK                            x       y       z     vdW  Elec       q    Type
REMARK                         _______ _______ _______ _____ _____    ______ ____
ROOT
ATOM      1  N   UNL     1      46.690   6.211  12.461  0.00  0.00    +0.000 N 
ATOM      2  H   UNL     1      46.999   7.177  12.562  0.00  0.00    +0.000 HD
ENDROOT
BRANCH   1   3
ATOM      3  C   UNL     1      47.084   5.437  13.560  0.00  0.00    +0.000 A 
ATOM      4  C   UNL     1      47.474   5.976  14.786  0.00  0.00    +0.000 A 
ATOM      5  C   UNL     1      47.788   5.151  15.866  0.00  0.00    +0.000 A 
ATOM      6  C   UNL     1      47.690   3.780  15.699  0.00  0.00    +0.000 A 
ATOM      7  N   UNL     1      47.276   3.191  14.545  0.00  0.00    +0.000 NA
ATOM      8  C   UNL     1      46.966   4.039  13.529  0.00  0.00    +0.000 A 
BRANCH   6   9
ATOM      9  C   UNL     1      48.065   2.882  16.837  0.00  0.00    +0.000 C 
ATOM     10  N   UNL     1      47.065   2.604  17.725  0.00  0.00    +0.000 N 
ATOM     11  O   UNL     1      49.191   2.415  16.969  0.00  0.00    +0.000 OA
ATOM     12  H   UNL     1      46.145   3.003  17.586  0.00  0.00    +0.000 HD
ATOM     13  H   UNL     1      47.252   1.994  18.509  0.00  0.00    +0.000 HD
ENDBRANCH   6   9
ENDBRANCH   1   3
BRANCH   1  14
ATOM     14  C   UNL     1      45.307   6.146  11.960  0.00  0.00    +0.000 C 
ATOM     15  C   UNL     1      44.366   5.503  12.982  0.00  0.00    +0.000 C 
BRANCH  14  19
ATOM     16  C   UNL     1      45.227   3.838   8.273  0.00  0.00    +0.000 A 
ATOM     17  C   UNL     1      44.428   3.474   9.356  0.00  0.00    +0.000 A 
ATOM     18  C   UNL     1      44.459   4.220  10.541  0.00  0.00    +0.000 A 
ATOM     19  C   UNL     1      45.294   5.339  10.665  0.00  0.00    +0.000 A 
ATOM     20  C   UNL     1      46.103   5.690   9.573  0.00  0.00    +0.000 A 
ATOM     21  C   UNL     1      46.070   4.943   8.393  0.00  0.00    +0.000 A 
BRANCH  16  23
ATOM     22  C   UNL     1      46.560   3.018   6.487  0.00  0.00    +0.000 C 
ATOM     23  O   UNL     1      45.273   3.208   7.061  0.00  0.00    +0.000 OA
ENDBRANCH  16  23
ENDBRANCH  14  19
ENDBRANCH   1  14
TORSDOF 5
ENDMDL
