MODEL 1
REMARK VINA RESULT:    -8.747      0.000      0.000
REMARK INTER + INTRA:         -11.302
REMARK INTER:                 -11.304
REMARK INTRA:                   0.001
REMARK UNBOUND:                 0.001
REMARK  Name = 
REMARK  5 active torsions:
REMARK  status: ('A' for Active; 'I' for Inactive)
REMARK    1  A    between atoms: C_2  and  C_3
REMARK    2  A    between atoms: C_6  and  N_7
REMARK    3  A    between atoms: N_7  and  C_8
REMARK    4  A    between atoms: C_8  and  C_9
REMARK    5  A    between atoms: C_13  and  C_14
REMARK                            x       y       z     vdW  Elec       q    Type
REMARK                         _______ _______ _______ _____ _____    ______ ____
ROOT
ATOM      1  C   UNL     1      43.956   4.887  11.582  0.00  0.00    +0.000 C 
ATOM      2  C   UNL     1      43.388   3.722  12.389  0.00  0.00    +0.000 C 
ATOM      3  C   UNL     1      42.813   5.092  12.552  0.00  0.00    +0.000 C 
ENDROOT
BRANCH   1   4
ATOM      4  C   UNL     1      45.354   5.389  11.924  0.00  0.00    +0.000 A 
ATOM      5  C   UNL     1      46.005   6.323  11.101  0.00  0.00    +0.000 A 
ATOM      6  C   UNL     1      47.151   6.988  11.529  0.00  0.00    +0.000 A 
ATOM      7  C   UNL     1      47.688   6.708  12.786  0.00  0.00    +0.000 A 
ATOM      8  C   UNL     1      47.117   5.736  13.624  0.00  0.00    +0.000 A 
ATOM      9  C   UNL     1      45.954   5.086  13.161  0.00  0.00    +0.000 A 
BRANCH   8  10
ATOM     10  C   UNL     1      47.689   5.431  14.955  0.00  0.00    +0.000 A 
ATOM     11  C   UNL     1      48.663   6.260  15.547  0.00  0.00    +0.000 A 
ATOM     12  C   UNL     1      49.214   5.966  16.798  0.00  0.00    +0.000 A 
ATOM     13  C   UNL     1      48.793   4.837  17.495  0.00  0.00    +0.000 A 
ATOM     14  C   UNL     1      47.825   4.011  16.936  0.00  0.00    +0.000 A 
ATOM     15 CL   UNL     1      47.289   2.620  17.798  0.00  0.00    +0.000 Cl
ATOM     16  C   UNL     1      47.282   4.298  15.682  0.00  0.00    +0.000 A 
ENDBRANCH   8  10
ENDBRANCH   1   4
BRANCH   1  17
ATOM     17  N   UNL     1      43.785   4.749  10.127  0.00  0.00    +0.000 N 
ATOM     18  H   UNL     1      42.819   4.637   9.819  0.00  0.00    +0.000 HD
BRANCH  17  22
ATOM     19  C   UNL     1      46.324   2.545   7.792  0.00  0.00    +0.000 A 
ATOM     20  C   UNL     1      46.120   3.899   7.605  0.00  0.00    +0.000 A 
ATOM     21  N   UNL     1      45.234   4.613   8.337  0.00  0.00    +0.000 NA
ATOM     22  C   UNL     1      44.537   3.943   9.282  0.00  0.00    +0.000 A 
ATOM     23  C   UNL     1      44.716   2.570   9.422  0.00  0.00    +0.000 A 
ATOM     24  N   UNL     1      45.603   1.836   8.693  0.00  0.00    +0.000 NA
BRANCH  19  26
ATOM     25  N   UNL     1      48.209   1.344   6.476  0.00  0.00    +0.000 NA
ATOM     26  C   UNL     1      47.358   1.853   7.081  0.00  0.00    +0.000 C 
ENDBRANCH  19  26
ENDBRANCH  17  22
ENDBRANCH   1  17
TORSDOF 5
ENDMDL
MODEL 2
REMARK VINA RESULT:    -8.402      2.636      3.895
REMARK INTER + INTRA:         -10.857
REMARK INTER:                  -9.911
REMARK INTRA:                  -0.947
REMARK UNBOUND:                 0.001
REMARK  Name = 
REMARK  5 active torsions:
REMARK  status: ('A' for Active; 'I' for Inactive)
REMARK    1  A    between atoms: C_2  and  C_3
REMARK    2  A    between atoms: C_6  and  N_7
REMARK    3  A    between atoms: N_7  and  C_8
REMARK    4  A    between atoms: C_8  and  C_9
REMARK    5  A    between atoms: C_13  and  C_14
REMARK                            x       y       z     vdW  Elec       q    Type
REMARK                         _______ _______ _______ _____ _____    ______ ____
ROOT
ATOM      1  C   UNL     1      43.861   5.001  11.289  0.00  0.00    +0.000 C 
ATOM      2  C   UNL     1      42.499   5.189  11.953  0.00  0.00    +0.000 C 
ATOM      3  C   UNL     1      42.965   6.162  10.919  0.00  0.00    +0.000 C 
ENDROOT
BRANCH   1   4
ATOM      4  C   UNL     1      45.112   5.232  12.129  0.00  0.00    +0.000 A 
ATOM      5  C   UNL     1      45.549   4.266  13.051  0.00  0.00    +0.000 A 
ATOM      6  C   UNL     1      46.816   4.336  13.623  0.00  0.00    +0.000 A 
ATOM      7  C   UNL     1      47.665   5.396  13.305  0.00  0.00    +0.000 A 
ATOM      8  C   UNL     1      47.256   6.425  12.441  0.00  0.00    +0.000 A 
ATOM      9  C   UNL     1      45.969   6.320  11.875  0.00  0.00    +0.000 A 
BRANCH   8  10
ATOM     10  C   UNL     1      48.152   7.556  12.107  0.00  0.00    +0.000 A 
ATOM     11  C   UNL     1      47.686   8.885  12.085  0.00  0.00    +0.000 A 
ATOM     12  C   UNL     1      48.529   9.952  11.756  0.00  0.00    +0.000 A 
ATOM     13  C   UNL     1      49.866   9.714  11.454  0.00  0.00    +0.000 A 
ATOM     14  C   UNL     1      50.351   8.412  11.481  0.00  0.00    +0.000 A 
ATOM     15 CL   UNL     1      52.007   8.110  11.121  0.00  0.00    +0.000 Cl
ATOM     16  C   UNL     1      49.508   7.345  11.798  0.00  0.00    +0.000 A 
ENDBRANCH   8  10
ENDBRANCH   1   4
BRANCH   1  17
ATOM     17  N   UNL     1      43.977   3.767  10.496  0.00  0.00    +0.000 N 
ATOM     18  H   UNL     1      43.877   2.904  11.030  0.00  0.00    +0.000 HD
BRANCH  17  22
ATOM     19  C   UNL     1      46.539   2.765   7.464  0.00  0.00    +0.000 A 
ATOM     20  C   UNL     1      46.053   1.841   8.369  0.00  0.00    +0.000 A 
ATOM     21  N   UNL     1      45.256   2.184   9.407  0.00  0.00    +0.000 NA
ATOM     22  C   UNL     1      44.942   3.494   9.535  0.00  0.00    +0.000 A 
ATOM     23  C   UNL     1      45.483   4.418   8.646  0.00  0.00    +0.000 A 
ATOM     24  N   UNL     1      46.287   4.090   7.596  0.00  0.00    +0.000 NA
BRANCH  19  26
ATOM     25  N   UNL     1      47.917   1.980   5.411  0.00  0.00    +0.000 NA
ATOM     26  C   UNL     1      47.277   2.344   6.310  0.00  0.00    +0.000 C 
ENDBRANCH  19  26
ENDBRANCH  17  22
ENDBRANCH   1  17
TORSDOF 5
ENDMDL
MODEL 3
REMARK VINA RESULT:    -8.244      3.670      7.460
REMARK INTER + INTRA:         -10.652
REMARK INTER:                  -9.938
REMARK INTRA:                  -0.714
REMARK UNBOUND:                 0.001
REMARK  Name = 
REMARK  5 active torsions:
REMARK  status: ('A' for Active; 'I' for Inactive)
REMARK    1  A    between atoms: C_2  and  C_3
REMARK    2  A    between atoms: C_6  and  N_7
REMARK    3  A    between atoms: N_7  and  C_8
REMARK    4  A    between atoms: C_8  and  C_9
REMARK    5  A    between atoms: C_13  and  C_14
REMARK                            x       y       z     vdW  Elec       q    Type
REMARK                         _______ _______ _______ _____ _____    ______ ____
ROOT
ATOM      1  C   UNL     1      45.997   7.111  12.278  0.00  0.00    +0.000 C 
ATOM      2  C   UNL     1      46.030   8.489  11.623  0.00  0.00    +0.000 C 
ATOM      3  C   UNL     1      45.261   8.283  12.888  0.00  0.00    +0.000 C 
ENDROOT
BRANCH   1   4
ATOM      4  C   UNL     1      45.225   5.997  11.580  0.00  0.00    +0.000 A 
ATOM      5  C   UNL     1      43.846   5.835  11.790  0.00  0.00    +0.000 A 
ATOM      6  C   UNL     1      43.082   5.009  10.970  0.00  0.00    +0.000 A 
ATOM      7  C   UNL     1      43.694   4.301   9.935  0.00  0.00    +0.000 A 
ATOM      8  C   UNL     1      45.080   4.373   9.721  0.00  0.00    +0.000 A 
ATOM      9  C   UNL     1      45.822   5.223  10.566  0.00  0.00    +0.000 A 
BRANCH   8  10
ATOM     10  C   UNL     1      45.733   3.616   8.627  0.00  0.00    +0.000 A 
ATOM     11  C   UNL     1      46.263   4.266   7.495  0.00  0.00    +0.000 A 
ATOM     12  C   UNL     1      46.867   3.550   6.456  0.00  0.00    +0.000 A 
ATOM     13  C   UNL     1      46.967   2.164   6.532  0.00  0.00    +0.000 A 
ATOM     14  C   UNL     1      46.462   1.503   7.646  0.00  0.00    +0.000 A 
ATOM     15 CL   UNL     1      46.593  -0.210   7.754  0.00  0.00    +0.000 Cl
ATOM     16  C   UNL     1      45.848   2.215   8.679  0.00  0.00    +0.000 A 
ENDBRANCH   8  10
ENDBRANCH   1   4
BRANCH   1  17
ATOM     17  N   UNL     1      47.310   6.634  12.741  0.00  0.00    +0.000 N 
ATOM     18  H   UNL     1      47.906   6.246  12.010  0.00  0.00    +0.000 HD
BRANCH  17  22
ATOM     19  C   UNL     1      47.860   4.631  16.268  0.00  0.00    +0.000 A 
ATOM     20  C   UNL     1      48.568   5.771  15.937  0.00  0.00    +0.000 A 
ATOM     21  N   UNL     1      48.429   6.396  14.744  0.00  0.00    +0.000 NA
ATOM     22  C   UNL     1      47.554   5.856  13.865  0.00  0.00    +0.000 A 
ATOM     23  C   UNL     1      46.889   4.679  14.195  0.00  0.00    +0.000 A 
ATOM     24  N   UNL     1      47.018   4.037  15.390  0.00  0.00    +0.000 NA
BRANCH  19  26
ATOM     25  N   UNL     1      48.058   3.586  18.635  0.00  0.00    +0.000 NA
ATOM     26  C   UNL     1      47.945   4.073  17.586  0.00  0.00    +0.000 C 
ENDBRANCH  19  26
ENDBRANCH  17  22
ENDBRANCH   1  17
TORSDOF 5
ENDMDL
MODEL 4
REMARK VINA RESULT:    -7.955      2.178      2.805
REMARK INTER + INTRA:         -10.279
REMARK INTER:                 -10.251
REMARK INTRA:                  -0.027
REMARK UNBOUND:                 0.001
REMARK  Name = 
REMARK  5 active torsions:
REMARK  status: ('A' for Active; 'I' for Inactive)
REMARK    1  A    between atoms: C_2  and  C_3
REMARK    2  A    between atoms: C_6  and  N_7
REMARK    3  A    between atoms: N_7  and  C_8
REMARK    4  A    between atoms: C_8  and  C_9
REMARK    5  A    between atoms: C_13  and  C_14
REMARK                            x       y       z     vdW  Elec       q    Type
REMARK                         _______ _______ _______ _____ _____    ______ ____
ROOT
ATOM      1  C   UNL     1      44.288   4.481  11.578  0.00  0.00    +0.000 C 
ATOM      2  C   UNL     1      45.040   3.419  12.376  0.00  0.00    +0.000 C 
ATOM      3  C   UNL     1      43.734   3.944  12.879  0.00  0.00    +0.000 C 
ENDROOT
BRANCH   1   4
ATOM      4  C   UNL     1      44.874   5.886  11.513  0.00  0.00    +0.000 A 
ATOM      5  C   UNL     1      44.054   6.999  11.267  0.00  0.00    +0.000 A 
ATOM      6  C   UNL     1      44.516   8.296  11.468  0.00  0.00    +0.000 A 
ATOM      7  C   UNL     1      45.827   8.508  11.894  0.00  0.00    +0.000 A 
ATOM      8  C   UNL     1      46.713   7.436  12.092  0.00  0.00    +0.000 A 
ATOM      9  C   UNL     1      46.210   6.135  11.884  0.00  0.00    +0.000 A 
BRANCH   8  10
ATOM     10  C   UNL     1      48.108   7.658  12.536  0.00  0.00    +0.000 A 
ATOM     11  C   UNL     1      49.051   8.305  11.712  0.00  0.00    +0.000 A 
ATOM     12  C   UNL     1      50.372   8.503  12.126  0.00  0.00    +0.000 A 
ATOM     13  C   UNL     1      50.779   8.069  13.385  0.00  0.00    +0.000 A 
ATOM     14  C   UNL     1      49.863   7.440  14.219  0.00  0.00    +0.000 A 
ATOM     15 CL   UNL     1      50.355   6.912  15.782  0.00  0.00    +0.000 Cl
ATOM     16  C   UNL     1      48.547   7.231  13.803  0.00  0.00    +0.000 A 
ENDBRANCH   8  10
ENDBRANCH   1   4
BRANCH   1  17
ATOM     17  N   UNL     1      43.846   4.030  10.248  0.00  0.00    +0.000 N 
ATOM     18  H   UNL     1      42.977   3.498  10.244  0.00  0.00    +0.000 HD
BRANCH  17  22
ATOM     19  C   UNL     1      46.498   2.488   7.537  0.00  0.00    +0.000 A 
ATOM     20  C   UNL     1      46.141   3.823   7.559  0.00  0.00    +0.000 A 
ATOM     21  N   UNL     1      45.218   4.319   8.415  0.00  0.00    +0.000 NA
ATOM     22  C   UNL     1      44.641   3.445   9.271  0.00  0.00    +0.000 A 
ATOM     23  C   UNL     1      44.974   2.095   9.200  0.00  0.00    +0.000 A 
ATOM     24  N   UNL     1      45.900   1.580   8.344  0.00  0.00    +0.000 NA
BRANCH  19  26
ATOM     25  N   UNL     1      48.396   1.619   5.996  0.00  0.00    +0.000 NA
ATOM     26  C   UNL     1      47.568   2.028   6.701  0.00  0.00    +0.000 C 
ENDBRANCH  19  26
ENDBRANCH  17  22
ENDBRANCH   1  17
TORSDOF 5
ENDMDL
MODEL 5
REMARK VINA RESULT:    -7.455      4.327      7.981
REMARK INTER + INTRA:          -9.632
REMARK INTER:                  -8.745
REMARK INTRA:                  -0.887
REMARK UNBOUND:                 0.001
REMARK  Name = 
REMARK  5 active torsions:
REMARK  status: ('A' for Active; 'I' for Inactive)
REMARK    1  A    between atoms: C_2  and  C_3
REMARK    2  A    between atoms: C_6  and  N_7
REMARK    3  A    between atoms: N_7  and  C_8
REMARK    4  A    between atoms: C_8  and  C_9
REMARK    5  A    between atoms: C_13  and  C_14
REMARK                            x       y       z     vdW  Elec       q    Type
REMARK                         _______ _______ _______ _____ _____    ______ ____
ROOT
ATOM      1  C   UNL     1      48.602   8.008  12.725  0.00  0.00    +0.000 C 
ATOM      2  C   UNL     1      49.518   8.476  11.597  0.00  0.00    +0.000 C 
ATOM      3  C   UNL     1      49.098   9.436  12.663  0.00  0.00    +0.000 C 
ENDROOT
BRANCH   1   4
ATOM      4  C   UNL     1      47.151   7.683  12.391  0.00  0.00    +0.000 A 
ATOM      5  C   UNL     1      46.140   8.643  12.560  0.00  0.00    +0.000 A 
ATOM      6  C   UNL     1      44.872   8.460  12.016  0.00  0.00    +0.000 A 
ATOM      7  C   UNL     1      44.580   7.292  11.311  0.00  0.00    +0.000 A 
ATOM      8  C   UNL     1      45.532   6.269  11.168  0.00  0.00    +0.000 A 
ATOM      9  C   UNL     1      46.807   6.490  11.727  0.00  0.00    +0.000 A 
BRANCH   8  10
ATOM     10  C   UNL     1      45.222   5.024  10.427  0.00  0.00    +0.000 A 
ATOM     11  C   UNL     1      44.452   3.995  11.004  0.00  0.00    +0.000 A 
ATOM     12  C   UNL     1      44.171   2.813  10.311  0.00  0.00    +0.000 A 
ATOM     13  C   UNL     1      44.644   2.639   9.013  0.00  0.00    +0.000 A 
ATOM     14  C   UNL     1      45.395   3.647   8.419  0.00  0.00    +0.000 A 
ATOM     15 CL   UNL     1      45.973   3.445   6.810  0.00  0.00    +0.000 Cl
ATOM     16  C   UNL     1      45.687   4.822   9.115  0.00  0.00    +0.000 A 
ENDBRANCH   8  10
ENDBRANCH   1   4
BRANCH   1  17
ATOM     17  N   UNL     1      49.192   6.970  13.585  0.00  0.00    +0.000 N 
ATOM     18  H   UNL     1      49.280   6.053  13.149  0.00  0.00    +0.000 HD
BRANCH  17  22
ATOM     19  C   UNL     1      48.493   5.926  17.482  0.00  0.00    +0.000 A 
ATOM     20  C   UNL     1      48.100   5.141  16.415  0.00  0.00    +0.000 A 
ATOM     21  N   UNL     1      48.277   5.517  15.127  0.00  0.00    +0.000 NA
ATOM     22  C   UNL     1      48.864   6.716  14.911  0.00  0.00    +0.000 A 
ATOM     23  C   UNL     1      49.206   7.517  15.997  0.00  0.00    +0.000 A 
ATOM     24  N   UNL     1      49.035   7.154  17.299  0.00  0.00    +0.000 NA
BRANCH  19  26
ATOM     25  N   UNL     1      48.268   5.054  19.915  0.00  0.00    +0.000 NA
ATOM     26  C   UNL     1      48.401   5.437  18.826  0.00  0.00    +0.000 C 
ENDBRANCH  19  26
ENDBRANCH  17  22
ENDBRANCH   1  17
TORSDOF 5
ENDMDL
MODEL 6
REMARK VINA RESULT:    -7.002      5.069      8.006
REMARK INTER + INTRA:          -9.048
REMARK INTER:                  -8.463
REMARK INTRA:                  -0.585
REMARK UNBOUND:                 0.001
REMARK  Name = 
REMARK  5 active torsions:
REMARK  status: ('A' for Active; 'I' for Inactive)
REMARK    1  A    between atoms: C_2  and  C_3
REMARK    2  A    between atoms: C_6  and  N_7
REMARK    3  A    between atoms: N_7  and  C_8
REMARK    4  A    between atoms: C_8  and  C_9
REMARK    5  A    between atoms: C_13  and  C_14
REMARK                            x       y       z     vdW  Elec       q    Type
REMARK                         _______ _______ _______ _____ _____    ______ ____
ROOT
ATOM      1  C   UNL     1      48.223   4.547  17.125  0.00  0.00    +0.000 C 
ATOM      2  C   UNL     1      47.150   4.681  18.203  0.00  0.00    +0.000 C 
ATOM      3  C   UNL     1      47.215   3.445  17.366  0.00  0.00    +0.000 C 
ENDROOT
BRANCH   1   4
ATOM      4  C   UNL     1      48.116   5.429  15.886  0.00  0.00    +0.000 A 
ATOM      5  C   UNL     1      49.049   6.451  15.646  0.00  0.00    +0.000 A 
ATOM      6  C   UNL     1      49.128   7.081  14.408  0.00  0.00    +0.000 A 
ATOM      7  C   UNL     1      48.250   6.718  13.386  0.00  0.00    +0.000 A 
ATOM      8  C   UNL     1      47.253   5.749  13.590  0.00  0.00    +0.000 A 
ATOM      9  C   UNL     1      47.205   5.127  14.855  0.00  0.00    +0.000 A 
BRANCH   8  10
ATOM     10  C   UNL     1      46.315   5.367  12.510  0.00  0.00    +0.000 A 
ATOM     11  C   UNL     1      46.307   6.036  11.269  0.00  0.00    +0.000 A 
ATOM     12  C   UNL     1      45.412   5.685  10.254  0.00  0.00    +0.000 A 
ATOM     13  C   UNL     1      44.508   4.645  10.452  0.00  0.00    +0.000 A 
ATOM     14  C   UNL     1      44.506   3.963  11.663  0.00  0.00    +0.000 A 
ATOM     15 CL   UNL     1      43.401   2.667  11.911  0.00  0.00    +0.000 Cl
ATOM     16  C   UNL     1      45.392   4.320  12.682  0.00  0.00    +0.000 A 
ENDBRANCH   8  10
ENDBRANCH   1   4
BRANCH   1  17
ATOM     17  N   UNL     1      49.599   4.532  17.646  0.00  0.00    +0.000 N 
ATOM     18  H   UNL     1      50.128   5.388  17.480  0.00  0.00    +0.000 HD
BRANCH  17  22
ATOM     19  C   UNL     1      52.339   1.490  17.650  0.00  0.00    +0.000 A 
ATOM     20  C   UNL     1      52.668   2.794  17.968  0.00  0.00    +0.000 A 
ATOM     21  N   UNL     1      51.774   3.809  17.906  0.00  0.00    +0.000 NA
ATOM     22  C   UNL     1      50.518   3.499  17.513  0.00  0.00    +0.000 A 
ATOM     23  C   UNL     1      50.218   2.191  17.146  0.00  0.00    +0.000 A 
ATOM     24  N   UNL     1      51.104   1.158  17.202  0.00  0.00    +0.000 NA
BRANCH  19  26
ATOM     25  N   UNL     1      54.060  -0.427  17.952  0.00  0.00    +0.000 NA
ATOM     26  C   UNL     1      53.280   0.427  17.849  0.00  0.00    +0.000 C 
ENDBRANCH  19  26
ENDBRANCH  17  22
ENDBRANCH   1  17
TORSDOF 5
ENDMDL
MODEL 7
REMARK VINA RESULT:    -6.989      3.742      7.214
REMARK INTER + INTRA:          -9.030
REMARK INTER:                  -8.204
REMARK INTRA:                  -0.826
REMARK UNBOUND:                 0.001
REMARK  Name = 
REMARK  5 active torsions:
REMARK  status: ('A' for Active; 'I' for Inactive)
REMARK    1  A    between atoms: C_2  and  C_3
REMARK    2  A    between atoms: C_6  and  N_7
REMARK    3  A    between atoms: N_7  and  C_8
REMARK    4  A    between atoms: C_8  and  C_9
REMARK    5  A    between atoms: C_13  and  C_14
REMARK                            x       y       z     vdW  Elec       q    Type
REMARK                         _______ _______ _______ _____ _____    ______ ____
ROOT
ATOM      1  C   UNL     1      46.137   5.080  13.569  0.00  0.00    +0.000 C 
ATOM      2  C   UNL     1      46.082   4.373  14.921  0.00  0.00    +0.000 C 
ATOM      3  C   UNL     1      47.288   4.224  14.050  0.00  0.00    +0.000 C 
ENDROOT
BRANCH   1   4
ATOM      4  C   UNL     1      45.222   4.583  12.455  0.00  0.00    +0.000 A 
ATOM      5  C   UNL     1      43.848   4.869  12.471  0.00  0.00    +0.000 A 
ATOM      6  C   UNL     1      43.053   4.660  11.347  0.00  0.00    +0.000 A 
ATOM      7  C   UNL     1      43.618   4.130  10.186  0.00  0.00    +0.000 A 
ATOM      8  C   UNL     1      44.973   3.763  10.136  0.00  0.00    +0.000 A 
ATOM      9  C   UNL     1      45.749   3.994  11.290  0.00  0.00    +0.000 A 
BRANCH   8  10
ATOM     10  C   UNL     1      45.573   3.192   8.907  0.00  0.00    +0.000 A 
ATOM     11  C   UNL     1      45.928   4.006   7.814  0.00  0.00    +0.000 A 
ATOM     12  C   UNL     1      46.482   3.466   6.648  0.00  0.00    +0.000 A 
ATOM     13  C   UNL     1      46.705   2.095   6.555  0.00  0.00    +0.000 A 
ATOM     14  C   UNL     1      46.374   1.275   7.626  0.00  0.00    +0.000 A 
ATOM     15 CL   UNL     1      46.659  -0.420   7.524  0.00  0.00    +0.000 Cl
ATOM     16  C   UNL     1      45.810   1.811   8.786  0.00  0.00    +0.000 A 
ENDBRANCH   8  10
ENDBRANCH   1   4
BRANCH   1  17
ATOM     17  N   UNL     1      46.111   6.549  13.658  0.00  0.00    +0.000 N 
ATOM     18  H   UNL     1      45.181   6.964  13.606  0.00  0.00    +0.000 HD
BRANCH  17  22
ATOM     19  C   UNL     1      48.784   9.168  11.997  0.00  0.00    +0.000 A 
ATOM     20  C   UNL     1      47.877   9.541  12.971  0.00  0.00    +0.000 A 
ATOM     21  N   UNL     1      46.953   8.689  13.474  0.00  0.00    +0.000 NA
ATOM     22  C   UNL     1      46.945   7.430  12.981  0.00  0.00    +0.000 A 
ATOM     23  C   UNL     1      47.830   7.086  11.964  0.00  0.00    +0.000 A 
ATOM     24  N   UNL     1      48.766   7.930  11.446  0.00  0.00    +0.000 NA
BRANCH  19  26
ATOM     25  N   UNL     1      50.642  10.830  11.279  0.00  0.00    +0.000 NA
ATOM     26  C   UNL     1      49.824  10.062  11.582  0.00  0.00    +0.000 C 
ENDBRANCH  19  26
ENDBRANCH  17  22
ENDBRANCH   1  17
TORSDOF 5
ENDMDL
MODEL 8
REMARK VINA RESULT:    -6.765      2.808      4.741
REMARK INTER + INTRA:          -8.741
REMARK INTER:                  -8.021
REMARK INTRA:                  -0.719
REMARK UNBOUND:                 0.001
REMARK  Name = 
REMARK  5 active torsions:
REMARK  status: ('A' for Active; 'I' for Inactive)
REMARK    1  A    between atoms: C_2  and  C_3
REMARK    2  A    between atoms: C_6  and  N_7
REMARK    3  A    between atoms: N_7  and  C_8
REMARK    4  A    between atoms: C_8  and  C_9
REMARK    5  A    between atoms: C_13  and  C_14
REMARK                            x       y       z     vdW  Elec       q    Type
REMARK                         _______ _______ _______ _____ _____    ______ ____
ROOT
ATOM      1  C   UNL     1      47.995   8.140  12.577  0.00  0.00    +0.000 C 
ATOM      2  C   UNL     1      48.484   9.319  11.739  0.00  0.00    +0.000 C 
ATOM      3  C   UNL     1      49.018   7.948  11.480  0.00  0.00    +0.000 C 
ENDROOT
BRANCH   1   4
ATOM      4  C   UNL     1      48.413   8.070  14.041  0.00  0.00    +0.000 A 
ATOM      5  C   UNL     1      48.312   9.196  14.874  0.00  0.00    +0.000 A 
ATOM      6  C   UNL     1      48.432   9.085  16.256  0.00  0.00    +0.000 A 
ATOM      7  C   UNL     1      48.687   7.841  16.834  0.00  0.00    +0.000 A 
ATOM      8  C   UNL     1      48.863   6.693  16.045  0.00  0.00    +0.000 A 
ATOM      9  C   UNL     1      48.730   6.840  14.649  0.00  0.00    +0.000 A 
BRANCH   8  10
ATOM     10  C   UNL     1      49.141   5.372  16.655  0.00  0.00    +0.000 A 
ATOM     11  C   UNL     1      48.158   4.364  16.712  0.00  0.00    +0.000 A 
ATOM     12  C   UNL     1      48.416   3.122  17.301  0.00  0.00    +0.000 A 
ATOM     13  C   UNL     1      49.672   2.853  17.836  0.00  0.00    +0.000 A 
ATOM     14  C   UNL     1      50.661   3.828  17.780  0.00  0.00    +0.000 A 
ATOM     15 CL   UNL     1      52.222   3.498  18.428  0.00  0.00    +0.000 Cl
ATOM     16  C   UNL     1      50.402   5.073  17.203  0.00  0.00    +0.000 A 
ENDBRANCH   8  10
ENDBRANCH   1   4
BRANCH   1  17
ATOM     17  N   UNL     1      46.560   7.849  12.423  0.00  0.00    +0.000 N 
ATOM     18  H   UNL     1      45.959   8.277  13.127  0.00  0.00    +0.000 HD
BRANCH  17  22
ATOM     19  C   UNL     1      44.552   4.340  11.781  0.00  0.00    +0.000 A 
ATOM     20  C   UNL     1      44.821   4.827  13.045  0.00  0.00    +0.000 A 
ATOM     21  N   UNL     1      45.539   5.955  13.256  0.00  0.00    +0.000 NA
ATOM     22  C   UNL     1      45.996   6.607  12.163  0.00  0.00    +0.000 A 
ATOM     23  C   UNL     1      45.761   6.073  10.899  0.00  0.00    +0.000 A 
ATOM     24  N   UNL     1      45.041   4.940  10.669  0.00  0.00    +0.000 NA
BRANCH  19  26
ATOM     25  N   UNL     1      43.008   2.274  11.498  0.00  0.00    +0.000 NA
ATOM     26  C   UNL     1      43.685   3.213  11.598  0.00  0.00    +0.000 C 
ENDBRANCH  19  26
ENDBRANCH  17  22
ENDBRANCH   1  17
TORSDOF 5
ENDMDL
MODEL 9
REMARK VINA RESULT:    -6.452      4.813      6.546
REMARK INTER + INTRA:          -8.337
REMARK INTER:                  -7.728
REMARK INTRA:                  -0.609
REMARK UNBOUND:                 0.001
REMARK  Name = 
REMARK  5 active torsions:
REMARK  status: ('A' for Active; 'I' for Inactive)
REMARK    1  A    between atoms: C_2  and  C_3
REMARK    2  A    between atoms: C_6  and  N_7
REMARK    3  A    between atoms: N_7  and  C_8
REMARK    4  A    between atoms: C_8  and  C_9
REMARK    5  A    between atoms: C_13  and  C_14
REMARK                            x       y       z     vdW  Elec       q    Type
REMARK                         _______ _______ _______ _____ _____    ______ ____
ROOT
ATOM      1  C   UNL     1      47.971   8.077  12.870  0.00  0.00    +0.000 C 
ATOM      2  C   UNL     1      47.888   8.605  14.300  0.00  0.00    +0.000 C 
ATOM      3  C   UNL     1      46.801   8.923  13.325  0.00  0.00    +0.000 C 
ENDROOT
BRANCH   1   4
ATOM      4  C   UNL     1      49.029   8.664  11.943  0.00  0.00    +0.000 A 
ATOM      5  C   UNL     1      49.004  10.022  11.588  0.00  0.00    +0.000 A 
ATOM      6  C   UNL     1      50.095  10.628  10.971  0.00  0.00    +0.000 A 
ATOM      7  C   UNL     1      51.229   9.875  10.669  0.00  0.00    +0.000 A 
ATOM      8  C   UNL     1      51.284   8.497  10.940  0.00  0.00    +0.000 A 
ATOM      9  C   UNL     1      50.164   7.917  11.570  0.00  0.00    +0.000 A 
BRANCH   8  10
ATOM     10  C   UNL     1      52.484   7.693  10.613  0.00  0.00    +0.000 A 
ATOM     11  C   UNL     1      53.645   7.744  11.409  0.00  0.00    +0.000 A 
ATOM     12  C   UNL     1      54.784   6.995  11.092  0.00  0.00    +0.000 A 
ATOM     13  C   UNL     1      54.782   6.165   9.975  0.00  0.00    +0.000 A 
ATOM     14  C   UNL     1      53.643   6.090   9.182  0.00  0.00    +0.000 A 
ATOM     15 CL   UNL     1      53.628   5.056   7.806  0.00  0.00    +0.000 Cl
ATOM     16  C   UNL     1      52.510   6.846   9.490  0.00  0.00    +0.000 A 
ENDBRANCH   8  10
ENDBRANCH   1   4
BRANCH   1  17
ATOM     17  N   UNL     1      47.934   6.610  12.769  0.00  0.00    +0.000 N 
ATOM     18  H   UNL     1      48.608   6.209  12.117  0.00  0.00    +0.000 HD
BRANCH  17  22
ATOM     19  C   UNL     1      44.775   4.081  12.146  0.00  0.00    +0.000 A 
ATOM     20  C   UNL     1      45.163   5.035  11.226  0.00  0.00    +0.000 A 
ATOM     21  N   UNL     1      46.168   5.911  11.459  0.00  0.00    +0.000 NA
ATOM     22  C   UNL     1      46.797   5.821  12.653  0.00  0.00    +0.000 A 
ATOM     23  C   UNL     1      46.359   4.889  13.590  0.00  0.00    +0.000 A 
ATOM     24  N   UNL     1      45.350   4.000  13.371  0.00  0.00    +0.000 NA
BRANCH  19  26
ATOM     25  N   UNL     1      43.031   2.253  11.560  0.00  0.00    +0.000 NA
ATOM     26  C   UNL     1      43.791   3.094  11.811  0.00  0.00    +0.000 C 
ENDBRANCH  19  26
ENDBRANCH  17  22
ENDBRANCH   1  17
TORSDOF 5
ENDMDL
