MODEL 1
REMARK VINA RESULT:    -7.990      0.000      0.000
REMARK INTER + INTRA:         -11.721
REMARK INTER:                 -10.793
REMARK INTRA:                  -0.929
REMARK UNBOUND:                -0.929
REMARK  Name = 
REMARK  7 active torsions:
REMARK  status: ('A' for Active; 'I' for Inactive)
REMARK    1  A    between atoms: C_1  and  C_2
REMARK    2  A    between atoms: C_5  and  C_6
REMARK    3  A    between atoms: N_8  and  C_9
REMARK    4  A    between atoms: C_9  and  C_10
REMARK    5  A    between atoms: C_13  and  C_14
REMARK    6  A    between atoms: C_14  and  N_15
REMARK    7  A    between atoms: C_16  and  C_18
REMARK                            x       y       z     vdW  Elec       q    Type
REMARK                         _______ _______ _______ _____ _____    ______ ____
ROOT
ATOM      1  C   UNL     1      44.909   6.220  11.369  0.00  0.00    +0.000 A 
ATOM      2  C   UNL     1      44.614   7.563  11.640  0.00  0.00    +0.000 A 
ATOM      3  C   UNL     1      45.459   8.333  12.452  0.00  0.00    +0.000 A 
ATOM      4  C   UNL     1      46.631   7.784  12.991  0.00  0.00    +0.000 A 
ATOM      5  C   UNL     1      46.927   6.443  12.714  0.00  0.00    +0.000 A 
ATOM      6  C   UNL     1      46.084   5.674  11.902  0.00  0.00    +0.000 A 
ENDROOT
BRANCH   1   7
ATOM      7  C   UNL     1      43.995   5.387  10.502  0.00  0.00    +0.000 C 
BRANCH   7  10
ATOM      8  C   UNL     1      44.780   3.229   9.572  0.00  0.00    +0.000 C 
ATOM      9  O   UNL     1      44.162   2.580  10.417  0.00  0.00    +0.000 OA
ATOM     10  N   UNL     1      44.742   4.606   9.550  0.00  0.00    +0.000 N 
ATOM     11  H   UNL     1      45.228   5.083   8.799  0.00  0.00    +0.000 HD
BRANCH   8  16
ATOM     12  C   UNL     1      47.848   2.372   5.317  0.00  0.00    +0.000 C 
ATOM     13  C   UNL     1      47.033   2.190   6.551  0.00  0.00    +0.000 A 
ATOM     14  C   UNL     1      46.772   1.036   7.257  0.00  0.00    +0.000 A 
ATOM     15  C   UNL     1      45.944   1.279   8.396  0.00  0.00    +0.000 A 
ATOM     16  C   UNL     1      45.596   2.613   8.531  0.00  0.00    +0.000 A 
ATOM     17  S   UNL     1      46.281   3.547   7.262  0.00  0.00    +0.000 S 
ENDBRANCH   8  16
ENDBRANCH   7  10
ENDBRANCH   1   7
BRANCH   4  18
ATOM     18  C   UNL     1      47.538   8.603  13.877  0.00  0.00    +0.000 C 
BRANCH  18  19
ATOM     19  N   UNL     1      47.944   7.866  15.050  0.00  0.00    +0.000 N 
ATOM     20  C   UNL     1      49.186   7.288  15.144  0.00  0.00    +0.000 C 
ATOM     21  O   UNL     1      50.025   7.404  14.255  0.00  0.00    +0.000 OA
ATOM     22  H   UNL     1      47.206   7.562  15.679  0.00  0.00    +0.000 HD
BRANCH  20  23
ATOM     23  C   UNL     1      49.487   6.576  16.394  0.00  0.00    +0.000 A 
ATOM     24  C   UNL     1      50.489   7.047  17.234  0.00  0.00    +0.000 A 
ATOM     25  S   UNL     1      50.673   6.135  18.664  0.00  0.00    +0.000 S 
ATOM     26  C   UNL     1      49.459   5.042  18.187  0.00  0.00    +0.000 A 
ATOM     27  N   UNL     1      49.130   3.976  18.965  0.00  0.00    +0.000 NA
ATOM     28  C   UNL     1      48.218   3.211  18.467  0.00  0.00    +0.000 A 
ATOM     29  N   UNL     1      47.598   3.420  17.262  0.00  0.00    +0.000 N 
ATOM     30  C   UNL     1      47.870   4.503  16.459  0.00  0.00    +0.000 A 
ATOM     31  O   UNL     1      47.258   4.690  15.413  0.00  0.00    +0.000 OA
ATOM     32  C   UNL     1      48.904   5.384  16.964  0.00  0.00    +0.000 A 
ATOM     33  H   UNL     1      46.881   2.790  16.932  0.00  0.00    +0.000 HD
ENDBRANCH  20  23
ENDBRANCH  18  19
ENDBRANCH   4  18
TORSDOF 6
ENDMDL
MODEL 2
REMARK VINA RESULT:    -7.059      1.783      2.247
REMARK INTER + INTRA:         -10.464
REMARK INTER:                  -9.545
REMARK INTRA:                  -0.919
REMARK UNBOUND:                -0.929
REMARK  Name = 
REMARK  7 active torsions:
REMARK  status: ('A' for Active; 'I' for Inactive)
REMARK    1  A    between atoms: C_1  and  C_2
REMARK    2  A    between atoms: C_5  and  C_6
REMARK    3  A    between atoms: N_8  and  C_9
REMARK    4  A    between atoms: C_9  and  C_10
REMARK    5  A    between atoms: C_13  and  C_14
REMARK    6  A    between atoms: C_14  and  N_15
REMARK    7  A    between atoms: C_16  and  C_18
REMARK                            x       y       z     vdW  Elec       q    Type
REMARK                         _______ _______ _______ _____ _____    ______ ____
ROOT
ATOM      1  C   UNL     1      45.902   6.950  12.526  0.00  0.00    +0.000 A 
ATOM      2  C   UNL     1      46.766   6.025  13.126  0.00  0.00    +0.000 A 
ATOM      3  C   UNL     1      47.786   6.451  13.988  0.00  0.00    +0.000 A 
ATOM      4  C   UNL     1      47.949   7.811  14.290  0.00  0.00    +0.000 A 
ATOM      5  C   UNL     1      47.080   8.733  13.693  0.00  0.00    +0.000 A 
ATOM      6  C   UNL     1      46.060   8.308  12.832  0.00  0.00    +0.000 A 
ENDROOT
BRANCH   1   7
ATOM      7  C   UNL     1      44.808   6.493  11.589  0.00  0.00    +0.000 C 
BRANCH   7  10
ATOM      8  C   UNL     1      44.431   4.567  10.077  0.00  0.00    +0.000 C 
ATOM      9  O   UNL     1      43.211   4.608  10.245  0.00  0.00    +0.000 OA
ATOM     10  N   UNL     1      45.275   5.461  10.700  0.00  0.00    +0.000 N 
ATOM     11  H   UNL     1      46.263   5.412  10.483  0.00  0.00    +0.000 HD
BRANCH   8  16
ATOM     12  C   UNL     1      47.309   2.209   6.281  0.00  0.00    +0.000 C 
ATOM     13  C   UNL     1      46.429   2.465   7.457  0.00  0.00    +0.000 A 
ATOM     14  C   UNL     1      45.836   1.560   8.311  0.00  0.00    +0.000 A 
ATOM     15  C   UNL     1      45.063   2.207   9.324  0.00  0.00    +0.000 A 
ATOM     16  C   UNL     1      45.087   3.587   9.218  0.00  0.00    +0.000 A 
ATOM     17  S   UNL     1      46.048   4.074   7.880  0.00  0.00    +0.000 S 
ENDBRANCH   8  16
ENDBRANCH   7  10
ENDBRANCH   1   7
BRANCH   4  18
ATOM     18  C   UNL     1      49.053   8.278  15.206  0.00  0.00    +0.000 C 
BRANCH  18  19
ATOM     19  N   UNL     1      49.881   7.181  15.646  0.00  0.00    +0.000 N 
ATOM     20  C   UNL     1      50.142   6.965  16.976  0.00  0.00    +0.000 C 
ATOM     21  O   UNL     1      49.653   7.667  17.858  0.00  0.00    +0.000 OA
ATOM     22  H   UNL     1      50.475   6.744  14.946  0.00  0.00    +0.000 HD
BRANCH  20  23
ATOM     23  C   UNL     1      50.988   5.807  17.301  0.00  0.00    +0.000 A 
ATOM     24  C   UNL     1      52.308   6.002  17.687  0.00  0.00    +0.000 A 
ATOM     25  S   UNL     1      53.130   4.559  18.077  0.00  0.00    +0.000 S 
ATOM     26  C   UNL     1      51.769   3.615  17.689  0.00  0.00    +0.000 A 
ATOM     27  N   UNL     1      51.810   2.258  17.778  0.00  0.00    +0.000 NA
ATOM     28  C   UNL     1      50.719   1.667  17.422  0.00  0.00    +0.000 A 
ATOM     29  N   UNL     1      49.587   2.310  16.991  0.00  0.00    +0.000 N 
ATOM     30  C   UNL     1      49.487   3.680  16.921  0.00  0.00    +0.000 A 
ATOM     31  O   UNL     1      48.442   4.226  16.584  0.00  0.00    +0.000 OA
ATOM     32  C   UNL     1      50.695   4.393  17.291  0.00  0.00    +0.000 A 
ATOM     33  H   UNL     1      48.760   1.790  16.738  0.00  0.00    +0.000 HD
ENDBRANCH  20  23
ENDBRANCH  18  19
ENDBRANCH   4  18
TORSDOF 6
ENDMDL
MODEL 3
REMARK VINA RESULT:    -6.970      3.015      8.856
REMARK INTER + INTRA:         -10.343
REMARK INTER:                  -9.455
REMARK INTRA:                  -0.888
REMARK UNBOUND:                -0.929
REMARK  Name = 
REMARK  7 active torsions:
REMARK  status: ('A' for Active; 'I' for Inactive)
REMARK    1  A    between atoms: C_1  and  C_2
REMARK    2  A    between atoms: C_5  and  C_6
REMARK    3  A    between atoms: N_8  and  C_9
REMARK    4  A    between atoms: C_9  and  C_10
REMARK    5  A    between atoms: C_13  and  C_14
REMARK    6  A    between atoms: C_14  and  N_15
REMARK    7  A    between atoms: C_16  and  C_18
REMARK                            x       y       z     vdW  Elec       q    Type
REMARK                         _______ _______ _______ _____ _____    ______ ____
ROOT
ATOM      1  C   UNL     1      50.099   7.084  15.636  0.00  0.00    +0.000 A 
ATOM      2  C   UNL     1      48.836   6.483  15.564  0.00  0.00    +0.000 A 
ATOM      3  C   UNL     1      48.031   6.641  14.428  0.00  0.00    +0.000 A 
ATOM      4  C   UNL     1      48.481   7.383  13.326  0.00  0.00    +0.000 A 
ATOM      5  C   UNL     1      49.748   7.977  13.398  0.00  0.00    +0.000 A 
ATOM      6  C   UNL     1      50.553   7.820  14.534  0.00  0.00    +0.000 A 
ENDROOT
BRANCH   1   7
ATOM      7  C   UNL     1      50.964   6.923  16.864  0.00  0.00    +0.000 C 
BRANCH   7  10
ATOM      8  C   UNL     1      50.871   4.615  17.761  0.00  0.00    +0.000 C 
ATOM      9  O   UNL     1      49.851   4.852  18.410  0.00  0.00    +0.000 OA
ATOM     10  N   UNL     1      51.469   5.579  16.979  0.00  0.00    +0.000 N 
ATOM     11  H   UNL     1      52.275   5.310  16.427  0.00  0.00    +0.000 HD
BRANCH   8  16
ATOM     12  C   UNL     1      54.384   0.662  18.294  0.00  0.00    +0.000 C 
ATOM     13  C   UNL     1      53.154   1.451  18.002  0.00  0.00    +0.000 A 
ATOM     14  C   UNL     1      51.939   1.019  17.516  0.00  0.00    +0.000 A 
ATOM     15  C   UNL     1      51.006   2.091  17.374  0.00  0.00    +0.000 A 
ATOM     16  C   UNL     1      51.531   3.313  17.757  0.00  0.00    +0.000 A 
ATOM     17  S   UNL     1      53.158   3.135  18.279  0.00  0.00    +0.000 S 
ENDBRANCH   8  16
ENDBRANCH   7  10
ENDBRANCH   1   7
BRANCH   4  18
ATOM     18  C   UNL     1      47.615   7.568  12.105  0.00  0.00    +0.000 C 
BRANCH  18  19
ATOM     19  N   UNL     1      46.894   6.363  11.775  0.00  0.00    +0.000 N 
ATOM     20  C   UNL     1      45.523   6.310  11.815  0.00  0.00    +0.000 C 
ATOM     21  O   UNL     1      44.842   7.294  12.094  0.00  0.00    +0.000 OA
ATOM     22  H   UNL     1      47.424   5.496  11.775  0.00  0.00    +0.000 HD
BRANCH  20  23
ATOM     23  C   UNL     1      44.902   5.030  11.444  0.00  0.00    +0.000 A 
ATOM     24  C   UNL     1      44.134   4.339  12.373  0.00  0.00    +0.000 A 
ATOM     25  S   UNL     1      43.447   2.901  11.764  0.00  0.00    +0.000 S 
ATOM     26  C   UNL     1      44.197   3.119  10.252  0.00  0.00    +0.000 A 
ATOM     27  N   UNL     1      44.042   2.207   9.256  0.00  0.00    +0.000 NA
ATOM     28  C   UNL     1      44.693   2.480   8.175  0.00  0.00    +0.000 A 
ATOM     29  N   UNL     1      45.481   3.589   7.998  0.00  0.00    +0.000 N 
ATOM     30  C   UNL     1      45.638   4.556   8.963  0.00  0.00    +0.000 A 
ATOM     31  O   UNL     1      46.306   5.563   8.754  0.00  0.00    +0.000 OA
ATOM     32  C   UNL     1      44.942   4.286  10.207  0.00  0.00    +0.000 A 
ATOM     33  H   UNL     1      45.956   3.752   7.123  0.00  0.00    +0.000 HD
ENDBRANCH  20  23
ENDBRANCH  18  19
ENDBRANCH   4  18
TORSDOF 6
ENDMDL
MODEL 4
REMARK VINA RESULT:    -6.954      2.046      2.917
REMARK INTER + INTRA:         -10.322
REMARK INTER:                  -9.359
REMARK INTRA:                  -0.963
REMARK UNBOUND:                -0.929
REMARK  Name = 
REMARK  7 active torsions:
REMARK  status: ('A' for Active; 'I' for Inactive)
REMARK    1  A    between atoms: C_1  and  C_2
REMARK    2  A    between atoms: C_5  and  C_6
REMARK    3  A    between atoms: N_8  and  C_9
REMARK    4  A    between atoms: C_9  and  C_10
REMARK    5  A    between atoms: C_13  and  C_14
REMARK    6  A    between atoms: C_14  and  N_15
REMARK    7  A    between atoms: C_16  and  C_18
REMARK                            x       y       z     vdW  Elec       q    Type
REMARK                         _______ _______ _______ _____ _____    ______ ____
ROOT
ATOM      1  C   UNL     1      45.439   6.874  11.886  0.00  0.00    +0.000 A 
ATOM      2  C   UNL     1      46.580   6.157  12.272  0.00  0.00    +0.000 A 
ATOM      3  C   UNL     1      47.529   6.729  13.130  0.00  0.00    +0.000 A 
ATOM      4  C   UNL     1      47.347   8.020  13.644  0.00  0.00    +0.000 A 
ATOM      5  C   UNL     1      46.202   8.733  13.263  0.00  0.00    +0.000 A 
ATOM      6  C   UNL     1      45.253   8.162  12.405  0.00  0.00    +0.000 A 
ENDROOT
BRANCH   1   7
ATOM      7  C   UNL     1      44.420   6.263  10.953  0.00  0.00    +0.000 C 
BRANCH   7  10
ATOM      8  C   UNL     1      44.528   4.025   9.896  0.00  0.00    +0.000 C 
ATOM      9  O   UNL     1      43.518   3.640  10.486  0.00  0.00    +0.000 OA
ATOM     10  N   UNL     1      45.025   5.298  10.072  0.00  0.00    +0.000 N 
ATOM     11  H   UNL     1      45.828   5.575   9.520  0.00  0.00    +0.000 HD
BRANCH   8  16
ATOM     12  C   UNL     1      47.650   2.274   5.967  0.00  0.00    +0.000 C 
ATOM     13  C   UNL     1      46.738   2.347   7.143  0.00  0.00    +0.000 A 
ATOM     14  C   UNL     1      46.221   1.322   7.906  0.00  0.00    +0.000 A 
ATOM     15  C   UNL     1      45.381   1.806   8.956  0.00  0.00    +0.000 A 
ATOM     16  C   UNL     1      45.281   3.187   8.968  0.00  0.00    +0.000 A 
ATOM     17  S   UNL     1      46.208   3.872   7.695  0.00  0.00    +0.000 S 
ENDBRANCH   8  16
ENDBRANCH   7  10
ENDBRANCH   1   7
BRANCH   4  18
ATOM     18  C   UNL     1      48.371   8.647  14.559  0.00  0.00    +0.000 C 
BRANCH  18  19
ATOM     19  N   UNL     1      49.235   7.655  15.151  0.00  0.00    +0.000 N 
ATOM     20  C   UNL     1      49.233   7.412  16.502  0.00  0.00    +0.000 C 
ATOM     21  O   UNL     1      48.470   7.997  17.266  0.00  0.00    +0.000 OA
ATOM     22  H   UNL     1      50.021   7.337  14.590  0.00  0.00    +0.000 HD
BRANCH  20  23
ATOM     23  C   UNL     1      50.148   6.367  16.984  0.00  0.00    +0.000 A 
ATOM     24  C   UNL     1      49.661   5.332  17.772  0.00  0.00    +0.000 A 
ATOM     25  S   UNL     1      50.844   4.180  18.201  0.00  0.00    +0.000 S 
ATOM     26  C   UNL     1      52.063   5.053  17.398  0.00  0.00    +0.000 A 
ATOM     27  N   UNL     1      53.352   4.620  17.401  0.00  0.00    +0.000 NA
ATOM     28  C   UNL     1      54.178   5.395  16.782  0.00  0.00    +0.000 A 
ATOM     29  N   UNL     1      53.830   6.562  16.153  0.00  0.00    +0.000 N 
ATOM     30  C   UNL     1      52.535   7.020  16.091  0.00  0.00    +0.000 A 
ATOM     31  O   UNL     1      52.248   8.040  15.473  0.00  0.00    +0.000 OA
ATOM     32  C   UNL     1      51.569   6.195  16.790  0.00  0.00    +0.000 A 
ATOM     33  H   UNL     1      54.522   7.120  15.675  0.00  0.00    +0.000 HD
ENDBRANCH  20  23
ENDBRANCH  18  19
ENDBRANCH   4  18
TORSDOF 6
ENDMDL
MODEL 5
REMARK VINA RESULT:    -6.897      3.049      8.538
REMARK INTER + INTRA:         -10.245
REMARK INTER:                  -9.336
REMARK INTRA:                  -0.909
REMARK UNBOUND:                -0.929
REMARK  Name = 
REMARK  7 active torsions:
REMARK  status: ('A' for Active; 'I' for Inactive)
REMARK    1  A    between atoms: C_1  and  C_2
REMARK    2  A    between atoms: C_5  and  C_6
REMARK    3  A    between atoms: N_8  and  C_9
REMARK    4  A    between atoms: C_9  and  C_10
REMARK    5  A    between atoms: C_13  and  C_14
REMARK    6  A    between atoms: C_14  and  N_15
REMARK    7  A    between atoms: C_16  and  C_18
REMARK                            x       y       z     vdW  Elec       q    Type
REMARK                         _______ _______ _______ _____ _____    ______ ____
ROOT
ATOM      1  C   UNL     1      49.906   6.817  16.108  0.00  0.00    +0.000 A 
ATOM      2  C   UNL     1      48.672   6.318  15.669  0.00  0.00    +0.000 A 
ATOM      3  C   UNL     1      48.178   6.646  14.399  0.00  0.00    +0.000 A 
ATOM      4  C   UNL     1      48.917   7.459  13.529  0.00  0.00    +0.000 A 
ATOM      5  C   UNL     1      50.153   7.951  13.967  0.00  0.00    +0.000 A 
ATOM      6  C   UNL     1      50.649   7.624  15.236  0.00  0.00    +0.000 A 
ENDROOT
BRANCH   1   7
ATOM      7  C   UNL     1      50.437   6.473  17.480  0.00  0.00    +0.000 C 
BRANCH   7  10
ATOM      8  C   UNL     1      50.659   4.048  17.938  0.00  0.00    +0.000 C 
ATOM      9  O   UNL     1      49.520   3.977  18.402  0.00  0.00    +0.000 OA
ATOM     10  N   UNL     1      51.173   5.235  17.463  0.00  0.00    +0.000 N 
ATOM     11  H   UNL     1      52.096   5.220  17.045  0.00  0.00    +0.000 HD
BRANCH   8  16
ATOM     12  C   UNL     1      54.838   0.783  18.296  0.00  0.00    +0.000 C 
ATOM     13  C   UNL     1      53.494   1.358  18.005  0.00  0.00    +0.000 A 
ATOM     14  C   UNL     1      52.408   0.763  17.399  0.00  0.00    +0.000 A 
ATOM     15  C   UNL     1      51.293   1.652  17.306  0.00  0.00    +0.000 A 
ATOM     16  C   UNL     1      51.556   2.900  17.845  0.00  0.00    +0.000 A 
ATOM     17  S   UNL     1      53.162   2.971  18.451  0.00  0.00    +0.000 S 
ENDBRANCH   8  16
ENDBRANCH   7  10
ENDBRANCH   1   7
BRANCH   4  18
ATOM     18  C   UNL     1      48.385   7.826  12.165  0.00  0.00    +0.000 C 
BRANCH  18  19
ATOM     19  N   UNL     1      47.627   6.747  11.580  0.00  0.00    +0.000 N 
ATOM     20  C   UNL     1      46.267   6.831  11.411  0.00  0.00    +0.000 C 
ATOM     21  O   UNL     1      45.636   7.842  11.711  0.00  0.00    +0.000 OA
ATOM     22  H   UNL     1      48.076   5.836  11.547  0.00  0.00    +0.000 HD
BRANCH  20  23
ATOM     23  C   UNL     1      45.607   5.672  10.792  0.00  0.00    +0.000 A 
ATOM     24  C   UNL     1      45.695   5.480   9.419  0.00  0.00    +0.000 A 
ATOM     25  S   UNL     1      44.919   4.062   8.873  0.00  0.00    +0.000 S 
ATOM     26  C   UNL     1      44.388   3.683  10.444  0.00  0.00    +0.000 A 
ATOM     27  N   UNL     1      43.626   2.581  10.679  0.00  0.00    +0.000 NA
ATOM     28  C   UNL     1      43.266   2.432  11.909  0.00  0.00    +0.000 A 
ATOM     29  N   UNL     1      43.604   3.284  12.929  0.00  0.00    +0.000 N 
ATOM     30  C   UNL     1      44.402   4.389  12.747  0.00  0.00    +0.000 A 
ATOM     31  O   UNL     1      44.732   5.100  13.690  0.00  0.00    +0.000 OA
ATOM     32  C   UNL     1      44.818   4.613  11.375  0.00  0.00    +0.000 A 
ATOM     33  H   UNL     1      43.300   3.106  13.875  0.00  0.00    +0.000 HD
ENDBRANCH  20  23
ENDBRANCH  18  19
ENDBRANCH   4  18
TORSDOF 6
ENDMDL
MODEL 6
REMARK VINA RESULT:    -6.713      4.687      7.739
REMARK INTER + INTRA:          -9.997
REMARK INTER:                  -9.100
REMARK INTRA:                  -0.896
REMARK UNBOUND:                -0.929
REMARK  Name = 
REMARK  7 active torsions:
REMARK  status: ('A' for Active; 'I' for Inactive)
REMARK    1  A    between atoms: C_1  and  C_2
REMARK    2  A    between atoms: C_5  and  C_6
REMARK    3  A    between atoms: N_8  and  C_9
REMARK    4  A    between atoms: C_9  and  C_10
REMARK    5  A    between atoms: C_13  and  C_14
REMARK    6  A    between atoms: C_14  and  N_15
REMARK    7  A    between atoms: C_16  and  C_18
REMARK                            x       y       z     vdW  Elec       q    Type
REMARK                         _______ _______ _______ _____ _____    ______ ____
ROOT
ATOM      1  C   UNL     1      50.356   9.074  11.372  0.00  0.00    +0.000 A 
ATOM      2  C   UNL     1      49.949   7.749  11.579  0.00  0.00    +0.000 A 
ATOM      3  C   UNL     1      48.653   7.460  12.027  0.00  0.00    +0.000 A 
ATOM      4  C   UNL     1      47.726   8.486  12.255  0.00  0.00    +0.000 A 
ATOM      5  C   UNL     1      48.133   9.810  12.040  0.00  0.00    +0.000 A 
ATOM      6  C   UNL     1      49.428  10.100  11.592  0.00  0.00    +0.000 A 
ENDROOT
BRANCH   1   7
ATOM      7  C   UNL     1      51.755   9.388  10.897  0.00  0.00    +0.000 C 
BRANCH   7  10
ATOM      8  C   UNL     1      52.860   8.140   9.064  0.00  0.00    +0.000 C 
ATOM      9  O   UNL     1      52.741   9.083   8.280  0.00  0.00    +0.000 OA
ATOM     10  N   UNL     1      52.404   8.219  10.362  0.00  0.00    +0.000 N 
ATOM     11  H   UNL     1      52.577   7.431  10.975  0.00  0.00    +0.000 HD
BRANCH   8  16
ATOM     12  C   UNL     1      54.435   3.772   6.476  0.00  0.00    +0.000 C 
ATOM     13  C   UNL     1      54.236   4.828   7.509  0.00  0.00    +0.000 A 
ATOM     14  C   UNL     1      54.768   4.913   8.778  0.00  0.00    +0.000 A 
ATOM     15  C   UNL     1      54.334   6.090   9.463  0.00  0.00    +0.000 A 
ATOM     16  C   UNL     1      53.484   6.872   8.700  0.00  0.00    +0.000 A 
ATOM     17  S   UNL     1      53.223   6.157   7.161  0.00  0.00    +0.000 S 
ENDBRANCH   8  16
ENDBRANCH   7  10
ENDBRANCH   1   7
BRANCH   4  18
ATOM     18  C   UNL     1      46.333   8.183  12.750  0.00  0.00    +0.000 C 
BRANCH  18  19
ATOM     19  N   UNL     1      45.930   6.838  12.417  0.00  0.00    +0.000 N 
ATOM     20  C   UNL     1      44.799   6.588  11.680  0.00  0.00    +0.000 C 
ATOM     21  O   UNL     1      44.098   7.493  11.235  0.00  0.00    +0.000 OA
ATOM     22  H   UNL     1      46.346   6.087  12.959  0.00  0.00    +0.000 HD
BRANCH  20  23
ATOM     23  C   UNL     1      44.500   5.177  11.393  0.00  0.00    +0.000 A 
ATOM     24  C   UNL     1      43.751   4.432  12.296  0.00  0.00    +0.000 A 
ATOM     25  S   UNL     1      43.453   2.832  11.785  0.00  0.00    +0.000 S 
ATOM     26  C   UNL     1      44.362   3.058  10.365  0.00  0.00    +0.000 A 
ATOM     27  N   UNL     1      44.536   2.044   9.475  0.00  0.00    +0.000 NA
ATOM     28  C   UNL     1      45.275   2.344   8.460  0.00  0.00    +0.000 A 
ATOM     29  N   UNL     1      45.850   3.571   8.250  0.00  0.00    +0.000 N 
ATOM     30  C   UNL     1      45.672   4.636   9.101  0.00  0.00    +0.000 A 
ATOM     31  O   UNL     1      46.156   5.736   8.856  0.00  0.00    +0.000 OA
ATOM     32  C   UNL     1      44.865   4.345  10.271  0.00  0.00    +0.000 A 
ATOM     33  H   UNL     1      46.409   3.747   7.428  0.00  0.00    +0.000 HD
ENDBRANCH  20  23
ENDBRANCH  18  19
ENDBRANCH   4  18
TORSDOF 6
ENDMDL
MODEL 7
REMARK VINA RESULT:    -6.452      2.061      2.536
REMARK INTER + INTRA:          -9.644
REMARK INTER:                  -8.950
REMARK INTRA:                  -0.694
REMARK UNBOUND:                -0.929
REMARK  Name = 
REMARK  7 active torsions:
REMARK  status: ('A' for Active; 'I' for Inactive)
REMARK    1  A    between atoms: C_1  and  C_2
REMARK    2  A    between atoms: C_5  and  C_6
REMARK    3  A    between atoms: N_8  and  C_9
REMARK    4  A    between atoms: C_9  and  C_10
REMARK    5  A    between atoms: C_13  and  C_14
REMARK    6  A    between atoms: C_14  and  N_15
REMARK    7  A    between atoms: C_16  and  C_18
REMARK                            x       y       z     vdW  Elec       q    Type
REMARK                         _______ _______ _______ _____ _____    ______ ____
ROOT
ATOM      1  C   UNL     1      46.232   7.215  12.072  0.00  0.00    +0.000 A 
ATOM      2  C   UNL     1      47.484   6.589  12.118  0.00  0.00    +0.000 A 
ATOM      3  C   UNL     1      48.489   7.058  12.975  0.00  0.00    +0.000 A 
ATOM      4  C   UNL     1      48.257   8.149  13.824  0.00  0.00    +0.000 A 
ATOM      5  C   UNL     1      47.002   8.770  13.781  0.00  0.00    +0.000 A 
ATOM      6  C   UNL     1      45.996   8.301  12.925  0.00  0.00    +0.000 A 
ENDROOT
BRANCH   1   7
ATOM      7  C   UNL     1      45.150   6.717  11.142  0.00  0.00    +0.000 C 
BRANCH   7  10
ATOM      8  C   UNL     1      44.837   4.775   9.634  0.00  0.00    +0.000 C 
ATOM      9  O   UNL     1      43.618   4.769   9.810  0.00  0.00    +0.000 OA
ATOM     10  N   UNL     1      45.650   5.702  10.251  0.00  0.00    +0.000 N 
ATOM     11  H   UNL     1      46.638   5.690  10.026  0.00  0.00    +0.000 HD
BRANCH   8  16
ATOM     12  C   UNL     1      46.795   0.341   7.455  0.00  0.00    +0.000 C 
ATOM     13  C   UNL     1      46.446   1.762   7.734  0.00  0.00    +0.000 A 
ATOM     14  C   UNL     1      46.772   2.894   7.017  0.00  0.00    +0.000 A 
ATOM     15  C   UNL     1      46.242   4.078   7.615  0.00  0.00    +0.000 A 
ATOM     16  C   UNL     1      45.526   3.821   8.771  0.00  0.00    +0.000 A 
ATOM     17  S   UNL     1      45.514   2.138   9.113  0.00  0.00    +0.000 S 
ENDBRANCH   8  16
ENDBRANCH   7  10
ENDBRANCH   1   7
BRANCH   4  18
ATOM     18  C   UNL     1      49.338   8.669  14.739  0.00  0.00    +0.000 C 
BRANCH  18  19
ATOM     19  N   UNL     1      49.669   7.713  15.769  0.00  0.00    +0.000 N 
ATOM     20  C   UNL     1      49.712   8.069  17.094  0.00  0.00    +0.000 C 
ATOM     21  O   UNL     1      49.433   9.204  17.472  0.00  0.00    +0.000 OA
ATOM     22  H   UNL     1      50.124   6.855  15.470  0.00  0.00    +0.000 HD
BRANCH  20  23
ATOM     23  C   UNL     1      50.048   7.004  18.051  0.00  0.00    +0.000 A 
ATOM     24  C   UNL     1      51.309   6.422  18.022  0.00  0.00    +0.000 A 
ATOM     25  S   UNL     1      51.548   5.242  19.231  0.00  0.00    +0.000 S 
ATOM     26  C   UNL     1      49.956   5.425  19.801  0.00  0.00    +0.000 A 
ATOM     27  N   UNL     1      49.490   4.670  20.832  0.00  0.00    +0.000 NA
ATOM     28  C   UNL     1      48.256   4.888  21.139  0.00  0.00    +0.000 A 
ATOM     29  N   UNL     1      47.445   5.800  20.512  0.00  0.00    +0.000 N 
ATOM     30  C   UNL     1      47.883   6.611  19.492  0.00  0.00    +0.000 A 
ATOM     31  O   UNL     1      47.148   7.455  18.989  0.00  0.00    +0.000 OA
ATOM     32  C   UNL     1      49.260   6.391  19.094  0.00  0.00    +0.000 A 
ATOM     33  H   UNL     1      46.489   5.932  20.808  0.00  0.00    +0.000 HD
ENDBRANCH  20  23
ENDBRANCH  18  19
ENDBRANCH   4  18
TORSDOF 6
ENDMDL
MODEL 8
REMARK VINA RESULT:    -6.234      2.716      4.127
REMARK INTER + INTRA:          -9.349
REMARK INTER:                  -8.483
REMARK INTRA:                  -0.866
REMARK UNBOUND:                -0.929
REMARK  Name = 
REMARK  7 active torsions:
REMARK  status: ('A' for Active; 'I' for Inactive)
REMARK    1  A    between atoms: C_1  and  C_2
REMARK    2  A    between atoms: C_5  and  C_6
REMARK    3  A    between atoms: N_8  and  C_9
REMARK    4  A    between atoms: C_9  and  C_10
REMARK    5  A    between atoms: C_13  and  C_14
REMARK    6  A    between atoms: C_14  and  N_15
REMARK    7  A    between atoms: C_16  and  C_18
REMARK                            x       y       z     vdW  Elec       q    Type
REMARK                         _______ _______ _______ _____ _____    ______ ____
ROOT
ATOM      1  C   UNL     1      47.765   7.990  13.551  0.00  0.00    +0.000 A 
ATOM      2  C   UNL     1      48.274   6.811  14.112  0.00  0.00    +0.000 A 
ATOM      3  C   UNL     1      48.813   6.807  15.406  0.00  0.00    +0.000 A 
ATOM      4  C   UNL     1      48.833   7.976  16.179  0.00  0.00    +0.000 A 
ATOM      5  C   UNL     1      48.318   9.153  15.619  0.00  0.00    +0.000 A 
ATOM      6  C   UNL     1      47.779   9.158  14.326  0.00  0.00    +0.000 A 
ENDROOT
BRANCH   1   7
ATOM      7  C   UNL     1      47.192   7.999  12.154  0.00  0.00    +0.000 C 
BRANCH   7  10
ATOM      8  C   UNL     1      45.329   6.566  11.372  0.00  0.00    +0.000 C 
ATOM      9  O   UNL     1      44.573   7.530  11.241  0.00  0.00    +0.000 OA
ATOM     10  N   UNL     1      46.626   6.720  11.810  0.00  0.00    +0.000 N 
ATOM     11  H   UNL     1      47.216   5.897  11.847  0.00  0.00    +0.000 HD
BRANCH   8  16
ATOM     12  C   UNL     1      44.478   1.883   9.006  0.00  0.00    +0.000 C 
ATOM     13  C   UNL     1      44.527   2.996   9.995  0.00  0.00    +0.000 A 
ATOM     14  C   UNL     1      44.086   3.018  11.301  0.00  0.00    +0.000 A 
ATOM     15  C   UNL     1      44.317   4.283  11.924  0.00  0.00    +0.000 A 
ATOM     16  C   UNL     1      44.931   5.192  11.079  0.00  0.00    +0.000 A 
ATOM     17  S   UNL     1      45.210   4.491   9.536  0.00  0.00    +0.000 S 
ENDBRANCH   8  16
ENDBRANCH   7  10
ENDBRANCH   1   7
BRANCH   4  18
ATOM     18  C   UNL     1      49.424   7.983  17.567  0.00  0.00    +0.000 C 
BRANCH  18  19
ATOM     19  N   UNL     1      50.405   6.937  17.734  0.00  0.00    +0.000 N 
ATOM     20  C   UNL     1      50.186   5.871  18.571  0.00  0.00    +0.000 C 
ATOM     21  O   UNL     1      49.132   5.734  19.187  0.00  0.00    +0.000 OA
ATOM     22  H   UNL     1      51.353   7.144  17.431  0.00  0.00    +0.000 HD
BRANCH  20  23
ATOM     23  C   UNL     1      51.254   4.864  18.646  0.00  0.00    +0.000 A 
ATOM     24  C   UNL     1      52.434   5.157  19.317  0.00  0.00    +0.000 A 
ATOM     25  S   UNL     1      53.544   3.861  19.353  0.00  0.00    +0.000 S 
ATOM     26  C   UNL     1      52.510   2.879  18.425  0.00  0.00    +0.000 A 
ATOM     27  N   UNL     1      52.877   1.620  18.064  0.00  0.00    +0.000 NA
ATOM     28  C   UNL     1      52.013   1.000  17.333  0.00  0.00    +0.000 A 
ATOM     29  N   UNL     1      50.809   1.523  16.935  0.00  0.00    +0.000 N 
ATOM     30  C   UNL     1      50.379   2.776  17.306  0.00  0.00    +0.000 A 
ATOM     31  O   UNL     1      49.273   3.193  16.979  0.00  0.00    +0.000 OA
ATOM     32  C   UNL     1      51.324   3.523  18.113  0.00  0.00    +0.000 A 
ATOM     33  H   UNL     1      50.169   0.982  16.372  0.00  0.00    +0.000 HD
ENDBRANCH  20  23
ENDBRANCH  18  19
ENDBRANCH   4  18
TORSDOF 6
ENDMDL
MODEL 9
REMARK VINA RESULT:    -6.129      5.564      7.828
REMARK INTER + INTRA:          -9.208
REMARK INTER:                  -8.301
REMARK INTRA:                  -0.906
REMARK UNBOUND:                -0.929
REMARK  Name = 
REMARK  7 active torsions:
REMARK  status: ('A' for Active; 'I' for Inactive)
REMARK    1  A    between atoms: C_1  and  C_2
REMARK    2  A    between atoms: C_5  and  C_6
REMARK    3  A    between atoms: N_8  and  C_9
REMARK    4  A    between atoms: C_9  and  C_10
REMARK    5  A    between atoms: C_13  and  C_14
REMARK    6  A    between atoms: C_14  and  N_15
REMARK    7  A    between atoms: C_16  and  C_18
REMARK                            x       y       z     vdW  Elec       q    Type
REMARK                         _______ _______ _______ _____ _____    ______ ____
ROOT
ATOM      1  C   UNL     1      47.880   8.412  12.566  0.00  0.00    +0.000 A 
ATOM      2  C   UNL     1      48.555   7.465  11.784  0.00  0.00    +0.000 A 
ATOM      3  C   UNL     1      49.883   7.676  11.390  0.00  0.00    +0.000 A 
ATOM      4  C   UNL     1      50.576   8.827  11.790  0.00  0.00    +0.000 A 
ATOM      5  C   UNL     1      49.902   9.770  12.577  0.00  0.00    +0.000 A 
ATOM      6  C   UNL     1      48.575   9.559  12.972  0.00  0.00    +0.000 A 
ENDROOT
BRANCH   1   7
ATOM      7  C   UNL     1      46.446   8.191  12.984  0.00  0.00    +0.000 C 
BRANCH   7  10
ATOM      8  C   UNL     1      44.820   6.839  11.691  0.00  0.00    +0.000 C 
ATOM      9  O   UNL     1      44.183   7.837  11.349  0.00  0.00    +0.000 OA
ATOM     10  N   UNL     1      45.941   6.937  12.488  0.00  0.00    +0.000 N 
ATOM     11  H   UNL     1      46.453   6.087  12.692  0.00  0.00    +0.000 HD
BRANCH   8  16
ATOM     12  C   UNL     1      44.515   2.147   9.212  0.00  0.00    +0.000 C 
ATOM     13  C   UNL     1      44.301   3.284  10.153  0.00  0.00    +0.000 A 
ATOM     14  C   UNL     1      43.451   3.368  11.235  0.00  0.00    +0.000 A 
ATOM     15  C   UNL     1      43.541   4.635  11.890  0.00  0.00    +0.000 A 
ATOM     16  C   UNL     1      44.457   5.483  11.292  0.00  0.00    +0.000 A 
ATOM     17  S   UNL     1      45.191   4.724   9.938  0.00  0.00    +0.000 S 
ENDBRANCH   8  16
ENDBRANCH   7  10
ENDBRANCH   1   7
BRANCH   4  18
ATOM     18  C   UNL     1      52.002   9.068  11.358  0.00  0.00    +0.000 C 
BRANCH  18  19
ATOM     19  N   UNL     1      52.272   8.489  10.064  0.00  0.00    +0.000 N 
ATOM     20  C   UNL     1      53.401   8.812   9.353  0.00  0.00    +0.000 C 
ATOM     21  O   UNL     1      54.255   9.575   9.798  0.00  0.00    +0.000 OA
ATOM     22  H   UNL     1      51.490   8.054   9.584  0.00  0.00    +0.000 HD
BRANCH  20  23
ATOM     23  C   UNL     1      53.573   8.146   8.053  0.00  0.00    +0.000 A 
ATOM     24  C   UNL     1      53.629   8.905   6.891  0.00  0.00    +0.000 A 
ATOM     25  S   UNL     1      53.882   7.980   5.479  0.00  0.00    +0.000 S 
ATOM     26  C   UNL     1      53.869   6.527   6.363  0.00  0.00    +0.000 A 
ATOM     27  N   UNL     1      54.009   5.326   5.739  0.00  0.00    +0.000 NA
ATOM     28  C   UNL     1      53.947   4.305   6.526  0.00  0.00    +0.000 A 
ATOM     29  N   UNL     1      53.764   4.375   7.883  0.00  0.00    +0.000 N 
ATOM     30  C   UNL     1      53.655   5.566   8.562  0.00  0.00    +0.000 A 
ATOM     31  O   UNL     1      53.547   5.596   9.783  0.00  0.00    +0.000 OA
ATOM     32  C   UNL     1      53.698   6.746   7.720  0.00  0.00    +0.000 A 
ATOM     33  H   UNL     1      53.736   3.538   8.446  0.00  0.00    +0.000 HD
ENDBRANCH  20  23
ENDBRANCH  18  19
ENDBRANCH   4  18
TORSDOF 6
ENDMDL
