MODEL 1
REMARK VINA RESULT:    -8.530      0.000      0.000
REMARK INTER + INTRA:         -12.536
REMARK INTER:                 -11.522
REMARK INTRA:                  -1.014
REMARK UNBOUND:                -1.014
REMARK  Name = 
REMARK  6 active torsions:
REMARK  status: ('A' for Active; 'I' for Inactive)
REMARK    1  A    between atoms: C_2  and  C_20
REMARK    2  A    between atoms: N_3  and  C_4
REMARK    3  A    between atoms: C_4  and  C_5
REMARK    4  A    between atoms: C_8  and  C_9
REMARK    5  A    between atoms: C_9  and  C_10
REMARK    6  A    between atoms: C_10  and  C_11
REMARK                            x       y       z     vdW  Elec       q    Type
REMARK                         _______ _______ _______ _____ _____    ______ ____
ROOT
ATOM      1  C   UNL     1      47.020   8.140  13.219  0.00  0.00    +0.000 C 
ENDROOT
BRANCH   1   2
ATOM      2  C   UNL     1      46.163   7.209  12.400  0.00  0.00    +0.000 A 
ATOM      3  C   UNL     1      46.644   6.673  11.200  0.00  0.00    +0.000 A 
ATOM      4  C   UNL     1      45.872   5.771  10.461  0.00  0.00    +0.000 A 
ATOM      5  C   UNL     1      44.599   5.385  10.905  0.00  0.00    +0.000 A 
ATOM      6  C   UNL     1      44.104   5.952  12.086  0.00  0.00    +0.000 A 
ATOM      7  C   UNL     1      44.873   6.861  12.822  0.00  0.00    +0.000 A 
BRANCH   5   8
ATOM      8  C   UNL     1      43.752   4.410  10.116  0.00  0.00    +0.000 C 
BRANCH   8   9
ATOM      9  C   UNL     1      44.342   4.071   8.746  0.00  0.00    +0.000 C 
BRANCH   9  10
ATOM     10  C   UNL     1      44.987   2.696   8.720  0.00  0.00    +0.000 C 
ATOM     11  O   UNL     1      44.530   1.745   9.353  0.00  0.00    +0.000 OA
ATOM     12  N   UNL     1      46.101   2.567   7.914  0.00  0.00    +0.000 N 
ATOM     13  C   UNL     1      46.783   3.607   7.168  0.00  0.00    +0.000 C 
ATOM     14  C   UNL     1      47.293   2.866   5.945  0.00  0.00    +0.000 C 
ATOM     15  C   UNL     1      47.672   1.496   6.500  0.00  0.00    +0.000 C 
ATOM     16  C   UNL     1      46.711   1.272   7.668  0.00  0.00    +0.000 C 
ENDBRANCH   9  10
ENDBRANCH   8   9
ENDBRANCH   5   8
ENDBRANCH   1   2
BRANCH   1  19
ATOM     17  O   UNL     1      49.336   6.604  13.645  0.00  0.00    +0.000 OA
ATOM     18  C   UNL     1      48.592   6.831  14.596  0.00  0.00    +0.000 C 
ATOM     19  N   UNL     1      47.430   7.545  14.465  0.00  0.00    +0.000 N 
ATOM     20  H   UNL     1      46.921   7.835  15.293  0.00  0.00    +0.000 HD
BRANCH  18  21
ATOM     21  C   UNL     1      48.883   6.301  15.932  0.00  0.00    +0.000 A 
ATOM     22  C   UNL     1      49.683   7.028  16.806  0.00  0.00    +0.000 A 
ATOM     23  S   UNL     1      49.880   6.290  18.329  0.00  0.00    +0.000 S 
ATOM     24  C   UNL     1      48.876   4.989  17.889  0.00  0.00    +0.000 A 
ATOM     25  N   UNL     1      48.576   4.005  18.780  0.00  0.00    +0.000 NA
ATOM     26  C   UNL     1      47.768   3.105  18.325  0.00  0.00    +0.000 A 
ATOM     27  N   UNL     1      47.255   3.085  17.055  0.00  0.00    +0.000 N 
ATOM     28  C   UNL     1      47.601   4.005  16.093  0.00  0.00    +0.000 A 
ATOM     29  O   UNL     1      47.261   3.864  14.926  0.00  0.00    +0.000 OA
ATOM     30  C   UNL     1      48.440   5.086  16.579  0.00  0.00    +0.000 A 
ATOM     31  H   UNL     1      46.666   2.325  16.748  0.00  0.00    +0.000 HD
ENDBRANCH  18  21
ENDBRANCH   1  19
TORSDOF 6
ENDMDL
MODEL 2
REMARK VINA RESULT:    -8.144      1.575      1.778
REMARK INTER + INTRA:         -12.016
REMARK INTER:                 -11.138
REMARK INTRA:                  -0.877
REMARK UNBOUND:                -1.014
REMARK  Name = 
REMARK  6 active torsions:
REMARK  status: ('A' for Active; 'I' for Inactive)
REMARK    1  A    between atoms: C_2  and  C_20
REMARK    2  A    between atoms: N_3  and  C_4
REMARK    3  A    between atoms: C_4  and  C_5
REMARK    4  A    between atoms: C_8  and  C_9
REMARK    5  A    between atoms: C_9  and  C_10
REMARK    6  A    between atoms: C_10  and  C_11
REMARK                            x       y       z     vdW  Elec       q    Type
REMARK                         _______ _______ _______ _____ _____    ______ ____
ROOT
ATOM      1  C   UNL     1      48.436   6.652  13.523  0.00  0.00    +0.000 C 
ENDROOT
BRANCH   1   2
ATOM      2  C   UNL     1      47.223   6.155  12.780  0.00  0.00    +0.000 A 
ATOM      3  C   UNL     1      46.845   6.739  11.566  0.00  0.00    +0.000 A 
ATOM      4  C   UNL     1      45.749   6.249  10.848  0.00  0.00    +0.000 A 
ATOM      5  C   UNL     1      45.004   5.164  11.331  0.00  0.00    +0.000 A 
ATOM      6  C   UNL     1      45.359   4.606  12.565  0.00  0.00    +0.000 A 
ATOM      7  C   UNL     1      46.452   5.100  13.287  0.00  0.00    +0.000 A 
BRANCH   5   8
ATOM      8  C   UNL     1      43.814   4.624  10.566  0.00  0.00    +0.000 C 
BRANCH   8   9
ATOM      9  C   UNL     1      44.158   4.203   9.136  0.00  0.00    +0.000 C 
BRANCH   9  10
ATOM     10  C   UNL     1      44.800   2.828   9.078  0.00  0.00    +0.000 C 
ATOM     11  O   UNL     1      44.403   1.889   9.765  0.00  0.00    +0.000 OA
ATOM     12  N   UNL     1      45.840   2.686   8.180  0.00  0.00    +0.000 N 
ATOM     13  C   UNL     1      46.451   3.713   7.358  0.00  0.00    +0.000 C 
ATOM     14  C   UNL     1      46.853   2.950   6.108  0.00  0.00    +0.000 C 
ATOM     15  C   UNL     1      47.282   1.590   6.651  0.00  0.00    +0.000 C 
ATOM     16  C   UNL     1      46.428   1.386   7.903  0.00  0.00    +0.000 C 
ENDBRANCH   9  10
ENDBRANCH   8   9
ENDBRANCH   5   8
ENDBRANCH   1   2
BRANCH   1  19
ATOM     17  O   UNL     1      50.431   6.737  15.503  0.00  0.00    +0.000 OA
ATOM     18  C   UNL     1      49.252   6.762  15.848  0.00  0.00    +0.000 C 
ATOM     19  N   UNL     1      48.222   6.694  14.947  0.00  0.00    +0.000 N 
ATOM     20  H   UNL     1      47.271   6.864  15.256  0.00  0.00    +0.000 HD
BRANCH  18  21
ATOM     21  C   UNL     1      48.875   6.814  17.264  0.00  0.00    +0.000 A 
ATOM     22  C   UNL     1      48.340   7.983  17.794  0.00  0.00    +0.000 A 
ATOM     23  S   UNL     1      47.915   7.856  19.440  0.00  0.00    +0.000 S 
ATOM     24  C   UNL     1      48.398   6.226  19.495  0.00  0.00    +0.000 A 
ATOM     25  N   UNL     1      48.245   5.489  20.629  0.00  0.00    +0.000 NA
ATOM     26  C   UNL     1      48.613   4.256  20.516  0.00  0.00    +0.000 A 
ATOM     27  N   UNL     1      49.144   3.700  19.381  0.00  0.00    +0.000 N 
ATOM     28  C   UNL     1      49.405   4.427  18.242  0.00  0.00    +0.000 A 
ATOM     29  O   UNL     1      50.032   3.945  17.310  0.00  0.00    +0.000 OA
ATOM     30  C   UNL     1      48.929   5.798  18.290  0.00  0.00    +0.000 A 
ATOM     31  H   UNL     1      49.457   2.741  19.375  0.00  0.00    +0.000 HD
ENDBRANCH  18  21
ENDBRANCH   1  19
TORSDOF 6
ENDMDL
MODEL 3
REMARK VINA RESULT:    -7.998      1.998      2.583
REMARK INTER + INTRA:         -11.818
REMARK INTER:                 -10.946
REMARK INTRA:                  -0.872
REMARK UNBOUND:                -1.014
REMARK  Name = 
REMARK  6 active torsions:
REMARK  status: ('A' for Active; 'I' for Inactive)
REMARK    1  A    between atoms: C_2  and  C_20
REMARK    2  A    between atoms: N_3  and  C_4
REMARK    3  A    between atoms: C_4  and  C_5
REMARK    4  A    between atoms: C_8  and  C_9
REMARK    5  A    between atoms: C_9  and  C_10
REMARK    6  A    between atoms: C_10  and  C_11
REMARK                            x       y       z     vdW  Elec       q    Type
REMARK                         _______ _______ _______ _____ _____    ______ ____
ROOT
ATOM      1  C   UNL     1      48.071   6.759  13.687  0.00  0.00    +0.000 C 
ENDROOT
BRANCH   1   2
ATOM      2  C   UNL     1      47.013   6.128  12.817  0.00  0.00    +0.000 A 
ATOM      3  C   UNL     1      46.314   4.998  13.258  0.00  0.00    +0.000 A 
ATOM      4  C   UNL     1      45.298   4.438  12.476  0.00  0.00    +0.000 A 
ATOM      5  C   UNL     1      44.960   4.995  11.234  0.00  0.00    +0.000 A 
ATOM      6  C   UNL     1      45.687   6.101  10.778  0.00  0.00    +0.000 A 
ATOM      7  C   UNL     1      46.708   6.658  11.557  0.00  0.00    +0.000 A 
BRANCH   5   8
ATOM      8  C   UNL     1      43.864   4.400  10.377  0.00  0.00    +0.000 C 
BRANCH   8   9
ATOM      9  C   UNL     1      44.323   4.071   8.954  0.00  0.00    +0.000 C 
BRANCH   9  10
ATOM     10  C   UNL     1      44.963   2.698   8.858  0.00  0.00    +0.000 C 
ATOM     11  O   UNL     1      44.536   1.729   9.484  0.00  0.00    +0.000 OA
ATOM     12  N   UNL     1      46.038   2.593   7.997  0.00  0.00    +0.000 N 
ATOM     13  C   UNL     1      46.685   3.654   7.249  0.00  0.00    +0.000 C 
ATOM     14  C   UNL     1      47.135   2.949   5.983  0.00  0.00    +0.000 C 
ATOM     15  C   UNL     1      47.538   1.563   6.478  0.00  0.00    +0.000 C 
ATOM     16  C   UNL     1      46.633   1.305   7.684  0.00  0.00    +0.000 C 
ENDBRANCH   9  10
ENDBRANCH   8   9
ENDBRANCH   5   8
ENDBRANCH   1   2
BRANCH   1  19
ATOM     17  O   UNL     1      50.161   6.647  15.564  0.00  0.00    +0.000 OA
ATOM     18  C   UNL     1      49.026   6.346  15.923  0.00  0.00    +0.000 C 
ATOM     19  N   UNL     1      47.959   6.346  15.062  0.00  0.00    +0.000 N 
ATOM     20  H   UNL     1      47.019   6.235  15.426  0.00  0.00    +0.000 HD
BRANCH  18  21
ATOM     21  C   UNL     1      48.751   5.915  17.297  0.00  0.00    +0.000 A 
ATOM     22  C   UNL     1      48.936   4.584  17.655  0.00  0.00    +0.000 A 
ATOM     23  S   UNL     1      48.616   4.266  19.299  0.00  0.00    +0.000 S 
ATOM     24  C   UNL     1      48.252   5.900  19.600  0.00  0.00    +0.000 A 
ATOM     25  N   UNL     1      47.944   6.328  20.855  0.00  0.00    +0.000 NA
ATOM     26  C   UNL     1      47.734   7.600  20.946  0.00  0.00    +0.000 A 
ATOM     27  N   UNL     1      47.778   8.477  19.894  0.00  0.00    +0.000 N 
ATOM     28  C   UNL     1      47.993   8.078  18.595  0.00  0.00    +0.000 A 
ATOM     29  O   UNL     1      47.858   8.856  17.660  0.00  0.00    +0.000 OA
ATOM     30  C   UNL     1      48.319   6.671  18.451  0.00  0.00    +0.000 A 
ATOM     31  H   UNL     1      47.555   9.452  20.026  0.00  0.00    +0.000 HD
ENDBRANCH  18  21
ENDBRANCH   1  19
TORSDOF 6
ENDMDL
MODEL 4
REMARK VINA RESULT:    -7.223      3.183      4.185
REMARK INTER + INTRA:         -10.771
REMARK INTER:                  -9.900
REMARK INTRA:                  -0.871
REMARK UNBOUND:                -1.014
REMARK  Name = 
REMARK  6 active torsions:
REMARK  status: ('A' for Active; 'I' for Inactive)
REMARK    1  A    between atoms: C_2  and  C_20
REMARK    2  A    between atoms: N_3  and  C_4
REMARK    3  A    between atoms: C_4  and  C_5
REMARK    4  A    between atoms: C_8  and  C_9
REMARK    5  A    between atoms: C_9  and  C_10
REMARK    6  A    between atoms: C_10  and  C_11
REMARK                            x       y       z     vdW  Elec       q    Type
REMARK                         _______ _______ _______ _____ _____    ______ ____
ROOT
ATOM      1  C   UNL     1      49.183   6.567  16.570  0.00  0.00    +0.000 C 
ENDROOT
BRANCH   1   2
ATOM      2  C   UNL     1      48.276   5.854  15.600  0.00  0.00    +0.000 A 
ATOM      3  C   UNL     1      48.103   6.345  14.300  0.00  0.00    +0.000 A 
ATOM      4  C   UNL     1      47.301   5.661  13.381  0.00  0.00    +0.000 A 
ATOM      5  C   UNL     1      46.653   4.471  13.741  0.00  0.00    +0.000 A 
ATOM      6  C   UNL     1      46.796   4.004  15.053  0.00  0.00    +0.000 A 
ATOM      7  C   UNL     1      47.593   4.691  15.976  0.00  0.00    +0.000 A 
BRANCH   5   8
ATOM      8  C   UNL     1      45.781   3.721  12.757  0.00  0.00    +0.000 C 
BRANCH   8   9
ATOM      9  C   UNL     1      44.742   4.611  12.072  0.00  0.00    +0.000 C 
BRANCH   9  10
ATOM     10  C   UNL     1      45.173   5.031  10.678  0.00  0.00    +0.000 C 
ATOM     11  O   UNL     1      45.606   6.157  10.436  0.00  0.00    +0.000 OA
ATOM     12  N   UNL     1      45.080   4.061   9.700  0.00  0.00    +0.000 N 
ATOM     13  C   UNL     1      44.533   2.724   9.824  0.00  0.00    +0.000 C 
ATOM     14  C   UNL     1      45.381   1.920   8.854  0.00  0.00    +0.000 C 
ATOM     15  C   UNL     1      45.622   2.897   7.707  0.00  0.00    +0.000 C 
ATOM     16  C   UNL     1      45.615   4.277   8.366  0.00  0.00    +0.000 C 
ENDBRANCH   9  10
ENDBRANCH   8   9
ENDBRANCH   5   8
ENDBRANCH   1   2
BRANCH   1  19
ATOM     17  O   UNL     1      49.626   5.596  19.172  0.00  0.00    +0.000 OA
ATOM     18  C   UNL     1      50.411   5.283  18.281  0.00  0.00    +0.000 C 
ATOM     19  N   UNL     1      50.282   5.738  16.995  0.00  0.00    +0.000 N 
ATOM     20  H   UNL     1      50.861   5.343  16.261  0.00  0.00    +0.000 HD
BRANCH  18  21
ATOM     21  C   UNL     1      51.575   4.434  18.557  0.00  0.00    +0.000 A 
ATOM     22  C   UNL     1      52.603   4.911  19.362  0.00  0.00    +0.000 A 
ATOM     23  S   UNL     1      53.853   3.781  19.616  0.00  0.00    +0.000 S 
ATOM     24  C   UNL     1      53.051   2.603  18.689  0.00  0.00    +0.000 A 
ATOM     25  N   UNL     1      53.569   1.352  18.546  0.00  0.00    +0.000 NA
ATOM     26  C   UNL     1      52.833   0.547  17.853  0.00  0.00    +0.000 A 
ATOM     27  N   UNL     1      51.642   0.886  17.268  0.00  0.00    +0.000 N 
ATOM     28  C   UNL     1      51.124   2.161  17.305  0.00  0.00    +0.000 A 
ATOM     29  O   UNL     1      50.150   2.472  16.634  0.00  0.00    +0.000 OA
ATOM     30  C   UNL     1      51.871   3.081  18.145  0.00  0.00    +0.000 A 
ATOM     31  H   UNL     1      51.140   0.223  16.697  0.00  0.00    +0.000 HD
ENDBRANCH  18  21
ENDBRANCH   1  19
TORSDOF 6
ENDMDL
MODEL 5
REMARK VINA RESULT:    -7.083      4.839      9.346
REMARK INTER + INTRA:         -10.582
REMARK INTER:                  -9.749
REMARK INTRA:                  -0.833
REMARK UNBOUND:                -1.014
REMARK  Name = 
REMARK  6 active torsions:
REMARK  status: ('A' for Active; 'I' for Inactive)
REMARK    1  A    between atoms: C_2  and  C_20
REMARK    2  A    between atoms: N_3  and  C_4
REMARK    3  A    between atoms: C_4  and  C_5
REMARK    4  A    between atoms: C_8  and  C_9
REMARK    5  A    between atoms: C_9  and  C_10
REMARK    6  A    between atoms: C_10  and  C_11
REMARK                            x       y       z     vdW  Elec       q    Type
REMARK                         _______ _______ _______ _____ _____    ______ ____
ROOT
ATOM      1  C   UNL     1      47.264   3.386  16.829  0.00  0.00    +0.000 C 
ENDROOT
BRANCH   1   2
ATOM      2  C   UNL     1      48.737   3.481  17.133  0.00  0.00    +0.000 A 
ATOM      3  C   UNL     1      49.309   4.706  17.495  0.00  0.00    +0.000 A 
ATOM      4  C   UNL     1      50.666   4.791  17.825  0.00  0.00    +0.000 A 
ATOM      5  C   UNL     1      51.482   3.651  17.799  0.00  0.00    +0.000 A 
ATOM      6  C   UNL     1      50.917   2.434  17.399  0.00  0.00    +0.000 A 
ATOM      7  C   UNL     1      49.561   2.350  17.062  0.00  0.00    +0.000 A 
BRANCH   5   8
ATOM      8  C   UNL     1      52.952   3.727  18.153  0.00  0.00    +0.000 C 
BRANCH   8   9
ATOM      9  C   UNL     1      53.789   2.629  17.493  0.00  0.00    +0.000 C 
BRANCH   9  10
ATOM     10  C   UNL     1      54.290   1.605  18.495  0.00  0.00    +0.000 C 
ATOM     11  O   UNL     1      54.168   1.761  19.710  0.00  0.00    +0.000 OA
ATOM     12  N   UNL     1      54.864   0.468  17.961  0.00  0.00    +0.000 N 
ATOM     13  C   UNL     1      55.130   0.180  16.565  0.00  0.00    +0.000 C 
ATOM     14  C   UNL     1      54.953  -1.326  16.491  0.00  0.00    +0.000 C 
ATOM     15  C   UNL     1      55.505  -1.809  17.829  0.00  0.00    +0.000 C 
ATOM     16  C   UNL     1      55.230  -0.660  18.799  0.00  0.00    +0.000 C 
ENDBRANCH   9  10
ENDBRANCH   8   9
ENDBRANCH   5   8
ENDBRANCH   1   2
BRANCH   1  19
ATOM     17  O   UNL     1      47.250   3.138  14.028  0.00  0.00    +0.000 OA
ATOM     18  C   UNL     1      46.837   4.178  14.533  0.00  0.00    +0.000 C 
ATOM     19  N   UNL     1      46.838   4.389  15.887  0.00  0.00    +0.000 N 
ATOM     20  H   UNL     1      46.357   5.195  16.271  0.00  0.00    +0.000 HD
BRANCH  18  21
ATOM     21  C   UNL     1      46.359   5.289  13.703  0.00  0.00    +0.000 A 
ATOM     22  C   UNL     1      47.176   6.394  13.490  0.00  0.00    +0.000 A 
ATOM     23  S   UNL     1      46.485   7.568  12.466  0.00  0.00    +0.000 S 
ATOM     24  C   UNL     1      45.085   6.629  12.243  0.00  0.00    +0.000 A 
ATOM     25  N   UNL     1      44.089   7.043  11.412  0.00  0.00    +0.000 NA
ATOM     26  C   UNL     1      43.107   6.211  11.303  0.00  0.00    +0.000 A 
ATOM     27  N   UNL     1      43.017   5.017  11.969  0.00  0.00    +0.000 N 
ATOM     28  C   UNL     1      43.951   4.599  12.888  0.00  0.00    +0.000 A 
ATOM     29  O   UNL     1      43.759   3.614  13.589  0.00  0.00    +0.000 OA
ATOM     30  C   UNL     1      45.117   5.459  12.983  0.00  0.00    +0.000 A 
ATOM     31  H   UNL     1      42.197   4.435  11.876  0.00  0.00    +0.000 HD
ENDBRANCH  18  21
ENDBRANCH   1  19
TORSDOF 6
ENDMDL
MODEL 6
REMARK VINA RESULT:    -7.045      2.792      3.607
REMARK INTER + INTRA:         -10.530
REMARK INTER:                  -9.521
REMARK INTRA:                  -1.009
REMARK UNBOUND:                -1.014
REMARK  Name = 
REMARK  6 active torsions:
REMARK  status: ('A' for Active; 'I' for Inactive)
REMARK    1  A    between atoms: C_2  and  C_20
REMARK    2  A    between atoms: N_3  and  C_4
REMARK    3  A    between atoms: C_4  and  C_5
REMARK    4  A    between atoms: C_8  and  C_9
REMARK    5  A    between atoms: C_9  and  C_10
REMARK    6  A    between atoms: C_10  and  C_11
REMARK                            x       y       z     vdW  Elec       q    Type
REMARK                         _______ _______ _______ _____ _____    ______ ____
ROOT
ATOM      1  C   UNL     1      47.858   5.098  14.991  0.00  0.00    +0.000 C 
ENDROOT
BRANCH   1   2
ATOM      2  C   UNL     1      46.849   4.952  13.882  0.00  0.00    +0.000 A 
ATOM      3  C   UNL     1      46.362   6.082  13.212  0.00  0.00    +0.000 A 
ATOM      4  C   UNL     1      45.462   5.949  12.150  0.00  0.00    +0.000 A 
ATOM      5  C   UNL     1      45.027   4.682  11.733  0.00  0.00    +0.000 A 
ATOM      6  C   UNL     1      45.485   3.557  12.430  0.00  0.00    +0.000 A 
ATOM      7  C   UNL     1      46.380   3.689  13.497  0.00  0.00    +0.000 A 
BRANCH   5   8
ATOM      8  C   UNL     1      44.053   4.523  10.586  0.00  0.00    +0.000 C 
BRANCH   8   9
ATOM      9  C   UNL     1      44.444   3.408   9.614  0.00  0.00    +0.000 C 
BRANCH   9  10
ATOM     10  C   UNL     1      45.434   3.879   8.563  0.00  0.00    +0.000 C 
ATOM     11  O   UNL     1      45.686   5.070   8.387  0.00  0.00    +0.000 OA
ATOM     12  N   UNL     1      46.061   2.886   7.837  0.00  0.00    +0.000 N 
ATOM     13  C   UNL     1      45.818   1.457   7.891  0.00  0.00    +0.000 C 
ATOM     14  C   UNL     1      47.189   0.871   7.607  0.00  0.00    +0.000 C 
ATOM     15  C   UNL     1      47.779   1.838   6.585  0.00  0.00    +0.000 C 
ATOM     16  C   UNL     1      47.149   3.189   6.923  0.00  0.00    +0.000 C 
ENDBRANCH   9  10
ENDBRANCH   8   9
ENDBRANCH   5   8
ENDBRANCH   1   2
BRANCH   1  19
ATOM     17  O   UNL     1      50.182   6.614  15.449  0.00  0.00    +0.000 OA
ATOM     18  C   UNL     1      49.088   7.125  15.673  0.00  0.00    +0.000 C 
ATOM     19  N   UNL     1      47.911   6.444  15.504  0.00  0.00    +0.000 N 
ATOM     20  H   UNL     1      47.029   6.942  15.557  0.00  0.00    +0.000 HD
BRANCH  18  21
ATOM     21  C   UNL     1      48.979   8.493  16.188  0.00  0.00    +0.000 A 
ATOM     22  C   UNL     1      49.479   9.555  15.443  0.00  0.00    +0.000 A 
ATOM     23  S   UNL     1      49.228  11.077  16.167  0.00  0.00    +0.000 S 
ATOM     24  C   UNL     1      48.412  10.377  17.485  0.00  0.00    +0.000 A 
ATOM     25  N   UNL     1      47.875  11.152  18.467  0.00  0.00    +0.000 NA
ATOM     26  C   UNL     1      47.246  10.490  19.381  0.00  0.00    +0.000 A 
ATOM     27  N   UNL     1      47.129   9.125  19.418  0.00  0.00    +0.000 N 
ATOM     28  C   UNL     1      47.733   8.297  18.501  0.00  0.00    +0.000 A 
ATOM     29  O   UNL     1      47.752   7.083  18.655  0.00  0.00    +0.000 OA
ATOM     30  C   UNL     1      48.379   8.995  17.404  0.00  0.00    +0.000 A 
ATOM     31  H   UNL     1      46.665   8.668  20.189  0.00  0.00    +0.000 HD
ENDBRANCH  18  21
ENDBRANCH   1  19
TORSDOF 6
ENDMDL
MODEL 7
REMARK VINA RESULT:    -7.019      3.851      8.760
REMARK INTER + INTRA:         -10.495
REMARK INTER:                  -9.325
REMARK INTRA:                  -1.170
REMARK UNBOUND:                -1.014
REMARK  Name = 
REMARK  6 active torsions:
REMARK  status: ('A' for Active; 'I' for Inactive)
REMARK    1  A    between atoms: C_2  and  C_20
REMARK    2  A    between atoms: N_3  and  C_4
REMARK    3  A    between atoms: C_4  and  C_5
REMARK    4  A    between atoms: C_8  and  C_9
REMARK    5  A    between atoms: C_9  and  C_10
REMARK    6  A    between atoms: C_10  and  C_11
REMARK                            x       y       z     vdW  Elec       q    Type
REMARK                         _______ _______ _______ _____ _____    ______ ____
ROOT
ATOM      1  C   UNL     1      47.176   3.285  16.883  0.00  0.00    +0.000 C 
ENDROOT
BRANCH   1   2
ATOM      2  C   UNL     1      48.647   3.331  17.209  0.00  0.00    +0.000 A 
ATOM      3  C   UNL     1      49.459   2.214  16.981  0.00  0.00    +0.000 A 
ATOM      4  C   UNL     1      50.834   2.267  17.235  0.00  0.00    +0.000 A 
ATOM      5  C   UNL     1      51.427   3.439  17.726  0.00  0.00    +0.000 A 
ATOM      6  C   UNL     1      50.607   4.543  17.990  0.00  0.00    +0.000 A 
ATOM      7  C   UNL     1      49.230   4.488  17.743  0.00  0.00    +0.000 A 
BRANCH   5   8
ATOM      8  C   UNL     1      52.912   3.511  18.007  0.00  0.00    +0.000 C 
BRANCH   8   9
ATOM      9  C   UNL     1      53.429   4.944  18.156  0.00  0.00    +0.000 C 
BRANCH   9  10
ATOM     10  C   UNL     1      54.148   5.429  16.910  0.00  0.00    +0.000 C 
ATOM     11  O   UNL     1      55.141   4.859  16.460  0.00  0.00    +0.000 OA
ATOM     12  N   UNL     1      53.601   6.535  16.289  0.00  0.00    +0.000 N 
ATOM     13  C   UNL     1      52.482   7.342  16.738  0.00  0.00    +0.000 C 
ATOM     14  C   UNL     1      51.842   7.786  15.434  0.00  0.00    +0.000 C 
ATOM     15  C   UNL     1      53.038   7.998  14.511  0.00  0.00    +0.000 C 
ATOM     16  C   UNL     1      54.087   6.999  15.001  0.00  0.00    +0.000 C 
ENDBRANCH   9  10
ENDBRANCH   8   9
ENDBRANCH   5   8
ENDBRANCH   1   2
BRANCH   1  19
ATOM     17  O   UNL     1      47.281   3.051  14.083  0.00  0.00    +0.000 OA
ATOM     18  C   UNL     1      46.855   4.093  14.575  0.00  0.00    +0.000 C 
ATOM     19  N   UNL     1      46.800   4.296  15.929  0.00  0.00    +0.000 N 
ATOM     20  H   UNL     1      46.309   5.105  16.297  0.00  0.00    +0.000 HD
BRANCH  18  21
ATOM     21  C   UNL     1      46.423   5.212  13.731  0.00  0.00    +0.000 A 
ATOM     22  C   UNL     1      47.282   6.282  13.508  0.00  0.00    +0.000 A 
ATOM     23  S   UNL     1      46.639   7.470  12.469  0.00  0.00    +0.000 S 
ATOM     24  C   UNL     1      45.204   6.583  12.253  0.00  0.00    +0.000 A 
ATOM     25  N   UNL     1      44.228   7.026  11.414  0.00  0.00    +0.000 NA
ATOM     26  C   UNL     1      43.214   6.231  11.312  0.00  0.00    +0.000 A 
ATOM     27  N   UNL     1      43.076   5.049  11.991  0.00  0.00    +0.000 N 
ATOM     28  C   UNL     1      43.992   4.606  12.918  0.00  0.00    +0.000 A 
ATOM     29  O   UNL     1      43.760   3.638  13.629  0.00  0.00    +0.000 OA
ATOM     30  C   UNL     1      45.190   5.421  13.006  0.00  0.00    +0.000 A 
ATOM     31  H   UNL     1      42.235   4.498  11.903  0.00  0.00    +0.000 HD
ENDBRANCH  18  21
ENDBRANCH   1  19
TORSDOF 6
ENDMDL
MODEL 8
REMARK VINA RESULT:    -6.931      2.940      8.261
REMARK INTER + INTRA:         -10.377
REMARK INTER:                  -9.068
REMARK INTRA:                  -1.309
REMARK UNBOUND:                -1.014
REMARK  Name = 
REMARK  6 active torsions:
REMARK  status: ('A' for Active; 'I' for Inactive)
REMARK    1  A    between atoms: C_2  and  C_20
REMARK    2  A    between atoms: N_3  and  C_4
REMARK    3  A    between atoms: C_4  and  C_5
REMARK    4  A    between atoms: C_8  and  C_9
REMARK    5  A    between atoms: C_9  and  C_10
REMARK    6  A    between atoms: C_10  and  C_11
REMARK                            x       y       z     vdW  Elec       q    Type
REMARK                         _______ _______ _______ _____ _____    ______ ____
ROOT
ATOM      1  C   UNL     1      47.338   7.974  11.854  0.00  0.00    +0.000 C 
ENDROOT
BRANCH   1   2
ATOM      2  C   UNL     1      48.079   8.036  13.165  0.00  0.00    +0.000 A 
ATOM      3  C   UNL     1      47.586   8.811  14.221  0.00  0.00    +0.000 A 
ATOM      4  C   UNL     1      48.243   8.833  15.456  0.00  0.00    +0.000 A 
ATOM      5  C   UNL     1      49.409   8.082  15.662  0.00  0.00    +0.000 A 
ATOM      6  C   UNL     1      49.921   7.339  14.592  0.00  0.00    +0.000 A 
ATOM      7  C   UNL     1      49.269   7.321  13.353  0.00  0.00    +0.000 A 
BRANCH   5   8
ATOM      8  C   UNL     1      50.131   8.098  16.992  0.00  0.00    +0.000 C 
BRANCH   8   9
ATOM      9  C   UNL     1      49.545   7.115  18.008  0.00  0.00    +0.000 C 
BRANCH   9  10
ATOM     10  C   UNL     1      50.185   5.742  17.917  0.00  0.00    +0.000 C 
ATOM     11  O   UNL     1      51.317   5.516  18.341  0.00  0.00    +0.000 OA
ATOM     12  N   UNL     1      49.405   4.748  17.358  0.00  0.00    +0.000 N 
ATOM     13  C   UNL     1      48.089   4.881  16.763  0.00  0.00    +0.000 C 
ATOM     14  C   UNL     1      47.434   3.551  17.089  0.00  0.00    +0.000 C 
ATOM     15  C   UNL     1      48.587   2.557  16.976  0.00  0.00    +0.000 C 
ATOM     16  C   UNL     1      49.829   3.359  17.365  0.00  0.00    +0.000 C 
ENDBRANCH   9  10
ENDBRANCH   8   9
ENDBRANCH   5   8
ENDBRANCH   1   2
BRANCH   1  19
ATOM     17  O   UNL     1      44.583   7.449  12.049  0.00  0.00    +0.000 OA
ATOM     18  C   UNL     1      45.339   6.533  11.740  0.00  0.00    +0.000 C 
ATOM     19  N   UNL     1      46.697   6.699  11.652  0.00  0.00    +0.000 N 
ATOM     20  H   UNL     1      47.270   5.963  11.254  0.00  0.00    +0.000 HD
BRANCH  18  21
ATOM     21  C   UNL     1      44.834   5.179  11.492  0.00  0.00    +0.000 A 
ATOM     22  C   UNL     1      44.141   4.505  12.492  0.00  0.00    +0.000 A 
ATOM     23  S   UNL     1      43.585   2.965  12.021  0.00  0.00    +0.000 S 
ATOM     24  C   UNL     1      44.220   3.154  10.455  0.00  0.00    +0.000 A 
ATOM     25  N   UNL     1      44.039   2.195   9.506  0.00  0.00    +0.000 NA
ATOM     26  C   UNL     1      44.535   2.490   8.350  0.00  0.00    +0.000 A 
ATOM     27  N   UNL     1      45.218   3.643   8.064  0.00  0.00    +0.000 N 
ATOM     28  C   UNL     1      45.506   4.598   9.012  0.00  0.00    +0.000 A 
ATOM     29  O   UNL     1      46.259   5.531   8.768  0.00  0.00    +0.000 OA
ATOM     30  C   UNL     1      44.896   4.354  10.307  0.00  0.00    +0.000 A 
ATOM     31  H   UNL     1      45.623   3.790   7.152  0.00  0.00    +0.000 HD
ENDBRANCH  18  21
ENDBRANCH   1  19
TORSDOF 6
ENDMDL
MODEL 9
REMARK VINA RESULT:    -6.682      3.836      9.577
REMARK INTER + INTRA:         -10.041
REMARK INTER:                  -8.652
REMARK INTRA:                  -1.389
REMARK UNBOUND:                -1.014
REMARK  Name = 
REMARK  6 active torsions:
REMARK  status: ('A' for Active; 'I' for Inactive)
REMARK    1  A    between atoms: C_2  and  C_20
REMARK    2  A    between atoms: N_3  and  C_4
REMARK    3  A    between atoms: C_4  and  C_5
REMARK    4  A    between atoms: C_8  and  C_9
REMARK    5  A    between atoms: C_9  and  C_10
REMARK    6  A    between atoms: C_10  and  C_11
REMARK                            x       y       z     vdW  Elec       q    Type
REMARK                         _______ _______ _______ _____ _____    ______ ____
ROOT
ATOM      1  C   UNL     1      47.362   3.553  16.667  0.00  0.00    +0.000 C 
ENDROOT
BRANCH   1   2
ATOM      2  C   UNL     1      48.466   4.172  17.486  0.00  0.00    +0.000 A 
ATOM      3  C   UNL     1      49.378   5.055  16.895  0.00  0.00    +0.000 A 
ATOM      4  C   UNL     1      50.374   5.670  17.660  0.00  0.00    +0.000 A 
ATOM      5  C   UNL     1      50.482   5.414  19.035  0.00  0.00    +0.000 A 
ATOM      6  C   UNL     1      49.593   4.501  19.616  0.00  0.00    +0.000 A 
ATOM      7  C   UNL     1      48.601   3.880  18.849  0.00  0.00    +0.000 A 
BRANCH   5   8
ATOM      8  C   UNL     1      51.555   6.071  19.876  0.00  0.00    +0.000 C 
BRANCH   8   9
ATOM      9  C   UNL     1      51.012   7.156  20.807  0.00  0.00    +0.000 C 
BRANCH   9  10
ATOM     10  C   UNL     1      50.740   8.460  20.078  0.00  0.00    +0.000 C 
ATOM     11  O   UNL     1      51.642   9.233  19.758  0.00  0.00    +0.000 OA
ATOM     12  N   UNL     1      49.419   8.711  19.764  0.00  0.00    +0.000 N 
ATOM     13  C   UNL     1      48.254   7.929  20.131  0.00  0.00    +0.000 C 
ATOM     14  C   UNL     1      47.325   8.131  18.947  0.00  0.00    +0.000 C 
ATOM     15  C   UNL     1      47.582   9.580  18.543  0.00  0.00    +0.000 C 
ATOM     16  C   UNL     1      49.042   9.834  18.923  0.00  0.00    +0.000 C 
ENDBRANCH   9  10
ENDBRANCH   8   9
ENDBRANCH   5   8
ENDBRANCH   1   2
BRANCH   1  19
ATOM     17  O   UNL     1      47.256   3.215  13.878  0.00  0.00    +0.000 OA
ATOM     18  C   UNL     1      46.768   4.228  14.370  0.00  0.00    +0.000 C 
ATOM     19  N   UNL     1      46.806   4.481  15.717  0.00  0.00    +0.000 N 
ATOM     20  H   UNL     1      46.267   5.252  16.099  0.00  0.00    +0.000 HD
BRANCH  18  21
ATOM     21  C   UNL     1      46.154   5.263  13.531  0.00  0.00    +0.000 A 
ATOM     22  C   UNL     1      46.864   6.420  13.230  0.00  0.00    +0.000 A 
ATOM     23  S   UNL     1      46.021   7.492  12.208  0.00  0.00    +0.000 S 
ATOM     24  C   UNL     1      44.693   6.436  12.104  0.00  0.00    +0.000 A 
ATOM     25  N   UNL     1      43.621   6.735  11.319  0.00  0.00    +0.000 NA
ATOM     26  C   UNL     1      42.706   5.823  11.300  0.00  0.00    +0.000 A 
ATOM     27  N   UNL     1      42.752   4.654  12.012  0.00  0.00    +0.000 N 
ATOM     28  C   UNL     1      43.768   4.350  12.889  0.00  0.00    +0.000 A 
ATOM     29  O   UNL     1      43.698   3.383  13.634  0.00  0.00    +0.000 OA
ATOM     30  C   UNL     1      44.864   5.303  12.882  0.00  0.00    +0.000 A 
ATOM     31  H   UNL     1      41.979   4.006  11.990  0.00  0.00    +0.000 HD
ENDBRANCH  18  21
ENDBRANCH   1  19
TORSDOF 6
ENDMDL
