MODEL 1
REMARK VINA RESULT:    -7.348      0.000      0.000
REMARK INTER + INTRA:         -11.076
REMARK INTER:                  -9.925
REMARK INTRA:                  -1.151
REMARK UNBOUND:                -1.151
REMARK  Name = 
REMARK  7 active torsions:
REMARK  status: ('A' for Active; 'I' for Inactive)
REMARK    1  A    between atoms: C_1  and  C_2
REMARK    2  A    between atoms: C_2  and  C_3
REMARK    3  A    between atoms: C_7  and  O_8
REMARK    4  A    between atoms: O_8  and  C_9
REMARK    5  A    between atoms: C_12  and  C_13
REMARK    6  A    between atoms: C_13  and  N_14
REMARK    7  A    between atoms: C_15  and  C_17
REMARK                            x       y       z     vdW  Elec       q    Type
REMARK                         _______ _______ _______ _____ _____    ______ ____
ROOT
ATOM      1  C   UNL     1      47.686   8.746  14.238  0.00  0.00    +0.000 C 
ENDROOT
BRANCH   1   5
ATOM      2  C   UNL     1      45.411   6.764  11.252  0.00  0.00    +0.000 A 
ATOM      3  C   UNL     1      46.705   6.323  11.473  0.00  0.00    +0.000 A 
ATOM      4  C   UNL     1      47.472   6.972  12.441  0.00  0.00    +0.000 A 
ATOM      5  C   UNL     1      46.915   8.022  13.176  0.00  0.00    +0.000 A 
ATOM      6  C   UNL     1      45.610   8.393  12.864  0.00  0.00    +0.000 A 
ATOM      7  N   UNL     1      44.847   7.786  11.928  0.00  0.00    +0.000 NA
BRANCH   2   8
ATOM      8  O   UNL     1      44.687   6.096  10.282  0.00  0.00    +0.000 OA
BRANCH   8  13
ATOM      9  C   UNL     1      45.990   3.262   8.132  0.00  0.00    +0.000 C 
ATOM     10  C   UNL     1      44.844   2.278   8.426  0.00  0.00    +0.000 C 
ATOM     11  C   UNL     1      44.385   2.352   9.878  0.00  0.00    +0.000 C 
ATOM     12  C   UNL     1      43.981   3.770  10.248  0.00  0.00    +0.000 C 
ATOM     13  C   UNL     1      45.134   4.755  10.029  0.00  0.00    +0.000 C 
ATOM     14  C   UNL     1      45.607   4.690   8.565  0.00  0.00    +0.000 C 
BRANCH   9  16
ATOM     15  C   UNL     1      47.376   2.079   6.322  0.00  0.00    +0.000 C 
ATOM     16  C   UNL     1      46.363   3.168   6.639  0.00  0.00    +0.000 C 
ENDBRANCH   9  16
ENDBRANCH   8  13
ENDBRANCH   2   8
ENDBRANCH   1   5
BRANCH   1  17
ATOM     17  N   UNL     1      47.978   7.890  15.361  0.00  0.00    +0.000 N 
ATOM     18  C   UNL     1      49.206   7.291  15.489  0.00  0.00    +0.000 C 
ATOM     19  O   UNL     1      50.116   7.505  14.694  0.00  0.00    +0.000 OA
ATOM     20  H   UNL     1      47.191   7.529  15.891  0.00  0.00    +0.000 HD
BRANCH  18  21
ATOM     21  C   UNL     1      49.396   6.427  16.661  0.00  0.00    +0.000 A 
ATOM     22  C   UNL     1      50.353   6.762  17.610  0.00  0.00    +0.000 A 
ATOM     23  S   UNL     1      50.407   5.689  18.934  0.00  0.00    +0.000 S 
ATOM     24  C   UNL     1      49.194   4.707  18.259  0.00  0.00    +0.000 A 
ATOM     25  N   UNL     1      48.772   3.578  18.892  0.00  0.00    +0.000 NA
ATOM     26  C   UNL     1      47.873   2.911  18.252  0.00  0.00    +0.000 A 
ATOM     27  N   UNL     1      47.349   3.272  17.037  0.00  0.00    +0.000 N 
ATOM     28  C   UNL     1      47.720   4.418  16.375  0.00  0.00    +0.000 A 
ATOM     29  O   UNL     1      47.202   4.739  15.310  0.00  0.00    +0.000 OA
ATOM     30  C   UNL     1      48.740   5.200  17.048  0.00  0.00    +0.000 A 
ATOM     31  H   UNL     1      46.643   2.706  16.591  0.00  0.00    +0.000 HD
ENDBRANCH  18  21
ENDBRANCH   1  17
TORSDOF 6
ENDMDL
MODEL 2
REMARK VINA RESULT:    -6.716      2.312      2.900
REMARK INTER + INTRA:         -10.222
REMARK INTER:                  -9.147
REMARK INTRA:                  -1.075
REMARK UNBOUND:                -1.151
REMARK  Name = 
REMARK  7 active torsions:
REMARK  status: ('A' for Active; 'I' for Inactive)
REMARK    1  A    between atoms: C_1  and  C_2
REMARK    2  A    between atoms: C_2  and  C_3
REMARK    3  A    between atoms: C_7  and  O_8
REMARK    4  A    between atoms: O_8  and  C_9
REMARK    5  A    between atoms: C_12  and  C_13
REMARK    6  A    between atoms: C_13  and  N_14
REMARK    7  A    between atoms: C_15  and  C_17
REMARK                            x       y       z     vdW  Elec       q    Type
REMARK                         _______ _______ _______ _____ _____    ______ ____
ROOT
ATOM      1  C   UNL     1      49.559   8.164  15.825  0.00  0.00    +0.000 C 
ENDROOT
BRANCH   1   5
ATOM      2  C   UNL     1      46.684   7.027  12.917  0.00  0.00    +0.000 A 
ATOM      3  C   UNL     1      47.549   6.050  13.382  0.00  0.00    +0.000 A 
ATOM      4  C   UNL     1      48.509   6.409  14.328  0.00  0.00    +0.000 A 
ATOM      5  C   UNL     1      48.559   7.724  14.799  0.00  0.00    +0.000 A 
ATOM      6  C   UNL     1      47.652   8.628  14.254  0.00  0.00    +0.000 A 
ATOM      7  N   UNL     1      46.715   8.310  13.333  0.00  0.00    +0.000 NA
BRANCH   2   8
ATOM      8  O   UNL     1      45.750   6.629  11.978  0.00  0.00    +0.000 OA
BRANCH   8  13
ATOM      9  C   UNL     1      44.690   3.247  10.640  0.00  0.00    +0.000 C 
ATOM     10  C   UNL     1      43.360   3.163  11.409  0.00  0.00    +0.000 C 
ATOM     11  C   UNL     1      43.478   3.730  12.819  0.00  0.00    +0.000 C 
ATOM     12  C   UNL     1      43.989   5.162  12.788  0.00  0.00    +0.000 C 
ATOM     13  C   UNL     1      45.349   5.255  12.087  0.00  0.00    +0.000 C 
ATOM     14  C   UNL     1      45.243   4.684  10.661  0.00  0.00    +0.000 C 
BRANCH   9  16
ATOM     15  C   UNL     1      44.927   3.662   8.117  0.00  0.00    +0.000 C 
ATOM     16  C   UNL     1      44.481   2.706   9.212  0.00  0.00    +0.000 C 
ENDBRANCH   9  16
ENDBRANCH   8  13
ENDBRANCH   2   8
ENDBRANCH   1   5
BRANCH   1  17
ATOM     17  N   UNL     1      50.465   7.099  16.176  0.00  0.00    +0.000 N 
ATOM     18  C   UNL     1      50.297   6.383  17.335  0.00  0.00    +0.000 C 
ATOM     19  O   UNL     1      49.343   6.580  18.083  0.00  0.00    +0.000 OA
ATOM     20  H   UNL     1      51.363   7.072  15.702  0.00  0.00    +0.000 HD
BRANCH  18  21
ATOM     21  C   UNL     1      51.281   5.329  17.605  0.00  0.00    +0.000 A 
ATOM     22  C   UNL     1      52.559   5.676  18.025  0.00  0.00    +0.000 A 
ATOM     23  S   UNL     1      53.559   4.334  18.350  0.00  0.00    +0.000 S 
ATOM     24  C   UNL     1      52.340   3.243  17.888  0.00  0.00    +0.000 A 
ATOM     25  N   UNL     1      52.556   1.899  17.910  0.00  0.00    +0.000 NA
ATOM     26  C   UNL     1      51.559   1.191  17.502  0.00  0.00    +0.000 A 
ATOM     27  N   UNL     1      50.359   1.701  17.078  0.00  0.00    +0.000 N 
ATOM     28  C   UNL     1      50.083   3.048  17.067  0.00  0.00    +0.000 A 
ATOM     29  O   UNL     1      48.984   3.474  16.724  0.00  0.00    +0.000 OA
ATOM     30  C   UNL     1      51.178   3.892  17.507  0.00  0.00    +0.000 A 
ATOM     31  H   UNL     1      49.616   1.090  16.774  0.00  0.00    +0.000 HD
ENDBRANCH  18  21
ENDBRANCH   1  17
TORSDOF 6
ENDMDL
MODEL 3
REMARK VINA RESULT:    -6.625      2.897      8.111
REMARK INTER + INTRA:         -10.100
REMARK INTER:                  -9.517
REMARK INTRA:                  -0.584
REMARK UNBOUND:                -1.151
REMARK  Name = 
REMARK  7 active torsions:
REMARK  status: ('A' for Active; 'I' for Inactive)
REMARK    1  A    between atoms: C_1  and  C_2
REMARK    2  A    between atoms: C_2  and  C_3
REMARK    3  A    between atoms: C_7  and  O_8
REMARK    4  A    between atoms: O_8  and  C_9
REMARK    5  A    between atoms: C_12  and  C_13
REMARK    6  A    between atoms: C_13  and  N_14
REMARK    7  A    between atoms: C_15  and  C_17
REMARK                            x       y       z     vdW  Elec       q    Type
REMARK                         _______ _______ _______ _____ _____    ______ ____
ROOT
ATOM      1  C   UNL     1      47.350   7.922  11.940  0.00  0.00    +0.000 C 
ENDROOT
BRANCH   1   5
ATOM      2  C   UNL     1      49.417   7.900  15.647  0.00  0.00    +0.000 A 
ATOM      3  C   UNL     1      48.432   8.856  15.467  0.00  0.00    +0.000 A 
ATOM      4  C   UNL     1      47.751   8.887  14.249  0.00  0.00    +0.000 A 
ATOM      5  C   UNL     1      48.057   7.947  13.262  0.00  0.00    +0.000 A 
ATOM      6  C   UNL     1      49.074   7.039  13.542  0.00  0.00    +0.000 A 
ATOM      7  N   UNL     1      49.753   6.989  14.710  0.00  0.00    +0.000 NA
BRANCH   2   8
ATOM      8  O   UNL     1      50.069   7.907  16.867  0.00  0.00    +0.000 OA
BRANCH   8  13
ATOM      9  C   UNL     1      48.022   4.969  18.102  0.00  0.00    +0.000 C 
ATOM     10  C   UNL     1      47.000   5.792  18.906  0.00  0.00    +0.000 C 
ATOM     11  C   UNL     1      47.650   6.974  19.615  0.00  0.00    +0.000 C 
ATOM     12  C   UNL     1      48.392   7.860  18.627  0.00  0.00    +0.000 C 
ATOM     13  C   UNL     1      49.464   7.071  17.866  0.00  0.00    +0.000 C 
ATOM     14  C   UNL     1      48.820   5.873  17.145  0.00  0.00    +0.000 C 
BRANCH   9  16
ATOM     15  C   UNL     1      47.096   4.064  15.884  0.00  0.00    +0.000 C 
ATOM     16  C   UNL     1      47.285   3.826  17.374  0.00  0.00    +0.000 C 
ENDBRANCH   9  16
ENDBRANCH   8  13
ENDBRANCH   2   8
ENDBRANCH   1   5
BRANCH   1  17
ATOM     17  N   UNL     1      46.716   6.649  11.700  0.00  0.00    +0.000 N 
ATOM     18  C   UNL     1      45.349   6.531  11.706  0.00  0.00    +0.000 C 
ATOM     19  O   UNL     1      44.616   7.504  11.855  0.00  0.00    +0.000 OA
ATOM     20  H   UNL     1      47.288   5.816  11.798  0.00  0.00    +0.000 HD
BRANCH  18  21
ATOM     21  C   UNL     1      44.805   5.189  11.464  0.00  0.00    +0.000 A 
ATOM     22  C   UNL     1      44.078   4.554  12.463  0.00  0.00    +0.000 A 
ATOM     23  S   UNL     1      43.469   3.030  12.001  0.00  0.00    +0.000 S 
ATOM     24  C   UNL     1      44.203   3.139  10.471  0.00  0.00    +0.000 A 
ATOM     25  N   UNL     1      44.090   2.129   9.565  0.00  0.00    +0.000 NA
ATOM     26  C   UNL     1      44.723   2.328   8.460  0.00  0.00    +0.000 A 
ATOM     27  N   UNL     1      45.457   3.450   8.171  0.00  0.00    +0.000 N 
ATOM     28  C   UNL     1      45.575   4.508   9.041  0.00  0.00    +0.000 A 
ATOM     29  O   UNL     1      46.202   5.519   8.737  0.00  0.00    +0.000 OA
ATOM     30  C   UNL     1      44.888   4.330  10.306  0.00  0.00    +0.000 A 
ATOM     31  H   UNL     1      45.927   3.545   7.284  0.00  0.00    +0.000 HD
ENDBRANCH  18  21
ENDBRANCH   1  17
TORSDOF 6
ENDMDL
MODEL 4
REMARK VINA RESULT:    -6.516      3.624      4.843
REMARK INTER + INTRA:          -9.953
REMARK INTER:                  -9.060
REMARK INTRA:                  -0.893
REMARK UNBOUND:                -1.151
REMARK  Name = 
REMARK  7 active torsions:
REMARK  status: ('A' for Active; 'I' for Inactive)
REMARK    1  A    between atoms: C_1  and  C_2
REMARK    2  A    between atoms: C_2  and  C_3
REMARK    3  A    between atoms: C_7  and  O_8
REMARK    4  A    between atoms: O_8  and  C_9
REMARK    5  A    between atoms: C_12  and  C_13
REMARK    6  A    between atoms: C_13  and  N_14
REMARK    7  A    between atoms: C_15  and  C_17
REMARK                            x       y       z     vdW  Elec       q    Type
REMARK                         _______ _______ _______ _____ _____    ______ ____
ROOT
ATOM      1  C   UNL     1      48.987   4.530  18.000  0.00  0.00    +0.000 C 
ENDROOT
BRANCH   1   5
ATOM      2  C   UNL     1      47.278   5.520  14.242  0.00  0.00    +0.000 A 
ATOM      3  C   UNL     1      46.805   4.388  14.886  0.00  0.00    +0.000 A 
ATOM      4  C   UNL     1      47.364   4.040  16.115  0.00  0.00    +0.000 A 
ATOM      5  C   UNL     1      48.359   4.846  16.675  0.00  0.00    +0.000 A 
ATOM      6  C   UNL     1      48.771   5.952  15.939  0.00  0.00    +0.000 A 
ATOM      7  N   UNL     1      48.250   6.310  14.743  0.00  0.00    +0.000 NA
BRANCH   2   8
ATOM      8  O   UNL     1      46.699   5.827  13.025  0.00  0.00    +0.000 OA
BRANCH   8  13
ATOM      9  C   UNL     1      44.317   3.902  10.795  0.00  0.00    +0.000 C 
ATOM     10  C   UNL     1      43.084   4.789  11.048  0.00  0.00    +0.000 C 
ATOM     11  C   UNL     1      43.003   5.252  12.498  0.00  0.00    +0.000 C 
ATOM     12  C   UNL     1      44.275   5.975  12.911  0.00  0.00    +0.000 C 
ATOM     13  C   UNL     1      45.507   5.081  12.732  0.00  0.00    +0.000 C 
ATOM     14  C   UNL     1      45.602   4.605  11.271  0.00  0.00    +0.000 C 
BRANCH   9  16
ATOM     15  C   UNL     1      44.921   2.128   9.039  0.00  0.00    +0.000 C 
ATOM     16  C   UNL     1      44.362   3.517   9.303  0.00  0.00    +0.000 C 
ENDBRANCH   9  16
ENDBRANCH   8  13
ENDBRANCH   2   8
ENDBRANCH   1   5
BRANCH   1  17
ATOM     17  N   UNL     1      50.321   4.005  17.844  0.00  0.00    +0.000 N 
ATOM     18  C   UNL     1      51.268   4.186  18.820  0.00  0.00    +0.000 C 
ATOM     19  O   UNL     1      51.004   4.745  19.881  0.00  0.00    +0.000 OA
ATOM     20  H   UNL     1      50.616   3.747  16.907  0.00  0.00    +0.000 HD
BRANCH  18  21
ATOM     21  C   UNL     1      52.599   3.624  18.558  0.00  0.00    +0.000 A 
ATOM     22  C   UNL     1      53.730   4.376  18.849  0.00  0.00    +0.000 A 
ATOM     23  S   UNL     1      55.193   3.557  18.539  0.00  0.00    +0.000 S 
ATOM     24  C   UNL     1      54.368   2.191  17.952  0.00  0.00    +0.000 A 
ATOM     25  N   UNL     1      55.048   1.105  17.492  0.00  0.00    +0.000 NA
ATOM     26  C   UNL     1      54.300   0.156  17.045  0.00  0.00    +0.000 A 
ATOM     27  N   UNL     1      52.929   0.186  17.020  0.00  0.00    +0.000 N 
ATOM     28  C   UNL     1      52.198   1.246  17.502  0.00  0.00    +0.000 A 
ATOM     29  O   UNL     1      50.971   1.227  17.509  0.00  0.00    +0.000 OA
ATOM     30  C   UNL     1      52.995   2.348  18.008  0.00  0.00    +0.000 A 
ATOM     31  H   UNL     1      52.401  -0.594  16.660  0.00  0.00    +0.000 HD
ENDBRANCH  18  21
ENDBRANCH   1  17
TORSDOF 6
ENDMDL
MODEL 5
REMARK VINA RESULT:    -6.441      1.968      2.228
REMARK INTER + INTRA:          -9.851
REMARK INTER:                  -9.124
REMARK INTRA:                  -0.727
REMARK UNBOUND:                -1.151
REMARK  Name = 
REMARK  7 active torsions:
REMARK  status: ('A' for Active; 'I' for Inactive)
REMARK    1  A    between atoms: C_1  and  C_2
REMARK    2  A    between atoms: C_2  and  C_3
REMARK    3  A    between atoms: C_7  and  O_8
REMARK    4  A    between atoms: O_8  and  C_9
REMARK    5  A    between atoms: C_12  and  C_13
REMARK    6  A    between atoms: C_13  and  N_14
REMARK    7  A    between atoms: C_15  and  C_17
REMARK                            x       y       z     vdW  Elec       q    Type
REMARK                         _______ _______ _______ _____ _____    ______ ____
ROOT
ATOM      1  C   UNL     1      48.612   8.913  13.884  0.00  0.00    +0.000 C 
ENDROOT
BRANCH   1   5
ATOM      2  C   UNL     1      45.671   6.772  11.697  0.00  0.00    +0.000 A 
ATOM      3  C   UNL     1      45.284   7.954  12.308  0.00  0.00    +0.000 A 
ATOM      4  C   UNL     1      46.235   8.664  13.042  0.00  0.00    +0.000 A 
ATOM      5  C   UNL     1      47.545   8.186  13.122  0.00  0.00    +0.000 A 
ATOM      6  C   UNL     1      47.823   6.982  12.482  0.00  0.00    +0.000 A 
ATOM      7  N   UNL     1      46.921   6.270  11.769  0.00  0.00    +0.000 NA
BRANCH   2   8
ATOM      8  O   UNL     1      44.697   6.099  10.983  0.00  0.00    +0.000 OA
BRANCH   8  13
ATOM      9  C   UNL     1      45.875   3.546   8.444  0.00  0.00    +0.000 C 
ATOM     10  C   UNL     1      44.690   2.577   8.606  0.00  0.00    +0.000 C 
ATOM     11  C   UNL     1      44.239   2.465  10.057  0.00  0.00    +0.000 C 
ATOM     12  C   UNL     1      43.894   3.831  10.628  0.00  0.00    +0.000 C 
ATOM     13  C   UNL     1      45.087   4.790  10.539  0.00  0.00    +0.000 C 
ATOM     14  C   UNL     1      45.553   4.913   9.077  0.00  0.00    +0.000 C 
BRANCH   9  16
ATOM     15  C   UNL     1      46.896   2.398   6.386  0.00  0.00    +0.000 C 
ATOM     16  C   UNL     1      46.241   3.649   6.950  0.00  0.00    +0.000 C 
ENDBRANCH   9  16
ENDBRANCH   8  13
ENDBRANCH   2   8
ENDBRANCH   1   5
BRANCH   1  17
ATOM     17  N   UNL     1      48.316   8.964  15.295  0.00  0.00    +0.000 N 
ATOM     18  C   UNL     1      48.983   8.159  16.184  0.00  0.00    +0.000 C 
ATOM     19  O   UNL     1      49.891   7.414  15.827  0.00  0.00    +0.000 OA
ATOM     20  H   UNL     1      47.440   9.393  15.574  0.00  0.00    +0.000 HD
BRANCH  18  21
ATOM     21  C   UNL     1      48.598   8.279  17.596  0.00  0.00    +0.000 A 
ATOM     22  C   UNL     1      48.655   9.519  18.218  0.00  0.00    +0.000 A 
ATOM     23  S   UNL     1      48.120   9.495  19.838  0.00  0.00    +0.000 S 
ATOM     24  C   UNL     1      47.849   7.818  19.782  0.00  0.00    +0.000 A 
ATOM     25  N   UNL     1      47.396   7.143  20.874  0.00  0.00    +0.000 NA
ATOM     26  C   UNL     1      47.267   5.872  20.702  0.00  0.00    +0.000 A 
ATOM     27  N   UNL     1      47.543   5.209  19.533  0.00  0.00    +0.000 N 
ATOM     28  C   UNL     1      47.971   5.851  18.396  0.00  0.00    +0.000 A 
ATOM     29  O   UNL     1      48.167   5.238  17.351  0.00  0.00    +0.000 OA
ATOM     30  C   UNL     1      48.144   7.284  18.539  0.00  0.00    +0.000 A 
ATOM     31  H   UNL     1      47.416   4.211  19.464  0.00  0.00    +0.000 HD
ENDBRANCH  18  21
ENDBRANCH   1  17
TORSDOF 6
ENDMDL
MODEL 6
REMARK VINA RESULT:    -6.435      3.621      8.902
REMARK INTER + INTRA:          -9.843
REMARK INTER:                  -8.910
REMARK INTRA:                  -0.933
REMARK UNBOUND:                -1.151
REMARK  Name = 
REMARK  7 active torsions:
REMARK  status: ('A' for Active; 'I' for Inactive)
REMARK    1  A    between atoms: C_1  and  C_2
REMARK    2  A    between atoms: C_2  and  C_3
REMARK    3  A    between atoms: C_7  and  O_8
REMARK    4  A    between atoms: O_8  and  C_9
REMARK    5  A    between atoms: C_12  and  C_13
REMARK    6  A    between atoms: C_13  and  N_14
REMARK    7  A    between atoms: C_15  and  C_17
REMARK                            x       y       z     vdW  Elec       q    Type
REMARK                         _______ _______ _______ _____ _____    ______ ____
ROOT
ATOM      1  C   UNL     1      47.349   3.467  16.597  0.00  0.00    +0.000 C 
ENDROOT
BRANCH   1   5
ATOM      2  C   UNL     1      51.255   4.700  17.708  0.00  0.00    +0.000 A 
ATOM      3  C   UNL     1      51.008   3.339  17.632  0.00  0.00    +0.000 A 
ATOM      4  C   UNL     1      49.726   2.916  17.281  0.00  0.00    +0.000 A 
ATOM      5  C   UNL     1      48.740   3.863  16.992  0.00  0.00    +0.000 A 
ATOM      6  C   UNL     1      49.091   5.204  17.113  0.00  0.00    +0.000 A 
ATOM      7  N   UNL     1      50.324   5.642  17.456  0.00  0.00    +0.000 NA
BRANCH   2   8
ATOM      8  O   UNL     1      52.538   5.076  18.062  0.00  0.00    +0.000 OA
BRANCH   8  13
ATOM      9  C   UNL     1      54.211   7.444  15.624  0.00  0.00    +0.000 C 
ATOM     10  C   UNL     1      55.139   8.122  16.647  0.00  0.00    +0.000 C 
ATOM     11  C   UNL     1      54.451   8.332  17.991  0.00  0.00    +0.000 C 
ATOM     12  C   UNL     1      53.919   7.019  18.541  0.00  0.00    +0.000 C 
ATOM     13  C   UNL     1      52.937   6.362  17.564  0.00  0.00    +0.000 C 
ATOM     14  C   UNL     1      53.619   6.144  16.202  0.00  0.00    +0.000 C 
BRANCH   9  16
ATOM     15  C   UNL     1      55.507   5.797  14.138  0.00  0.00    +0.000 C 
ATOM     16  C   UNL     1      54.989   7.216  14.313  0.00  0.00    +0.000 C 
ENDBRANCH   9  16
ENDBRANCH   8  13
ENDBRANCH   2   8
ENDBRANCH   1   5
BRANCH   1  17
ATOM     17  N   UNL     1      46.760   4.426  15.694  0.00  0.00    +0.000 N 
ATOM     18  C   UNL     1      46.756   4.208  14.339  0.00  0.00    +0.000 C 
ATOM     19  O   UNL     1      47.195   3.171  13.850  0.00  0.00    +0.000 OA
ATOM     20  H   UNL     1      46.602   5.365  16.047  0.00  0.00    +0.000 HD
BRANCH  18  21
ATOM     21  C   UNL     1      46.144   5.251  13.507  0.00  0.00    +0.000 A 
ATOM     22  C   UNL     1      46.829   6.439  13.285  0.00  0.00    +0.000 A 
ATOM     23  S   UNL     1      46.006   7.519  12.252  0.00  0.00    +0.000 S 
ATOM     24  C   UNL     1      44.681   6.463  12.113  0.00  0.00    +0.000 A 
ATOM     25  N   UNL     1      43.592   6.798  11.369  0.00  0.00    +0.000 NA
ATOM     26  C   UNL     1      42.647   5.921  11.378  0.00  0.00    +0.000 A 
ATOM     27  N   UNL     1      42.692   4.731  12.059  0.00  0.00    +0.000 N 
ATOM     28  C   UNL     1      43.782   4.335  12.797  0.00  0.00    +0.000 A 
ATOM     29  O   UNL     1      43.811   3.244  13.359  0.00  0.00    +0.000 OA
ATOM     30  C   UNL     1      44.870   5.293  12.829  0.00  0.00    +0.000 A 
ATOM     31  H   UNL     1      41.918   4.085  12.021  0.00  0.00    +0.000 HD
ENDBRANCH  18  21
ENDBRANCH   1  17
TORSDOF 6
ENDMDL
MODEL 7
REMARK VINA RESULT:    -6.345      4.688      9.457
REMARK INTER + INTRA:          -9.721
REMARK INTER:                  -8.918
REMARK INTRA:                  -0.804
REMARK UNBOUND:                -1.151
REMARK  Name = 
REMARK  7 active torsions:
REMARK  status: ('A' for Active; 'I' for Inactive)
REMARK    1  A    between atoms: C_1  and  C_2
REMARK    2  A    between atoms: C_2  and  C_3
REMARK    3  A    between atoms: C_7  and  O_8
REMARK    4  A    between atoms: O_8  and  C_9
REMARK    5  A    between atoms: C_12  and  C_13
REMARK    6  A    between atoms: C_13  and  N_14
REMARK    7  A    between atoms: C_15  and  C_17
REMARK                            x       y       z     vdW  Elec       q    Type
REMARK                         _______ _______ _______ _____ _____    ______ ____
ROOT
ATOM      1  C   UNL     1      47.453   3.393  17.013  0.00  0.00    +0.000 C 
ENDROOT
BRANCH   1   5
ATOM      2  C   UNL     1      51.608   2.893  17.721  0.00  0.00    +0.000 A 
ATOM      3  C   UNL     1      51.006   4.040  18.211  0.00  0.00    +0.000 A 
ATOM      4  C   UNL     1      49.644   4.227  17.977  0.00  0.00    +0.000 A 
ATOM      5  C   UNL     1      48.921   3.253  17.283  0.00  0.00    +0.000 A 
ATOM      6  C   UNL     1      49.627   2.145  16.823  0.00  0.00    +0.000 A 
ATOM      7  N   UNL     1      50.947   1.941  17.031  0.00  0.00    +0.000 NA
BRANCH   2   8
ATOM      8  O   UNL     1      52.960   2.749  17.973  0.00  0.00    +0.000 OA
BRANCH   8  13
ATOM      9  C   UNL     1      54.408  -0.752  17.976  0.00  0.00    +0.000 C 
ATOM     10  C   UNL     1      55.775  -0.377  17.377  0.00  0.00    +0.000 C 
ATOM     11  C   UNL     1      55.652   0.693  16.300  0.00  0.00    +0.000 C 
ATOM     12  C   UNL     1      54.947   1.928  16.837  0.00  0.00    +0.000 C 
ATOM     13  C   UNL     1      53.553   1.586  17.375  0.00  0.00    +0.000 C 
ATOM     14  C   UNL     1      53.663   0.504  18.465  0.00  0.00    +0.000 C 
BRANCH   9  16
ATOM     15  C   UNL     1      55.426  -3.009  18.659  0.00  0.00    +0.000 C 
ATOM     16  C   UNL     1      54.616  -1.797  19.091  0.00  0.00    +0.000 C 
ENDBRANCH   9  16
ENDBRANCH   8  13
ENDBRANCH   2   8
ENDBRANCH   1   5
BRANCH   1  17
ATOM     17  N   UNL     1      47.184   4.450  16.070  0.00  0.00    +0.000 N 
ATOM     18  C   UNL     1      47.145   4.199  14.722  0.00  0.00    +0.000 C 
ATOM     19  O   UNL     1      47.276   3.064  14.271  0.00  0.00    +0.000 OA
ATOM     20  H   UNL     1      47.296   5.406  16.394  0.00  0.00    +0.000 HD
BRANCH  18  21
ATOM     21  C   UNL     1      46.877   5.346  13.846  0.00  0.00    +0.000 A 
ATOM     22  C   UNL     1      47.839   6.338  13.703  0.00  0.00    +0.000 A 
ATOM     23  S   UNL     1      47.394   7.568  12.609  0.00  0.00    +0.000 S 
ATOM     24  C   UNL     1      45.878   6.850  12.332  0.00  0.00    +0.000 A 
ATOM     25  N   UNL     1      44.974   7.422  11.490  0.00  0.00    +0.000 NA
ATOM     26  C   UNL     1      43.854   6.790  11.399  0.00  0.00    +0.000 A 
ATOM     27  N   UNL     1      43.553   5.631  12.067  0.00  0.00    +0.000 N 
ATOM     28  C   UNL     1      44.444   5.000  12.902  0.00  0.00    +0.000 A 
ATOM     29  O   UNL     1      44.164   3.939  13.453  0.00  0.00    +0.000 OA
ATOM     30  C   UNL     1      45.719   5.677  13.049  0.00  0.00    +0.000 A 
ATOM     31  H   UNL     1      42.657   5.184  11.949  0.00  0.00    +0.000 HD
ENDBRANCH  18  21
ENDBRANCH   1  17
TORSDOF 6
ENDMDL
MODEL 8
REMARK VINA RESULT:    -6.319      4.610      7.583
REMARK INTER + INTRA:          -9.687
REMARK INTER:                  -8.660
REMARK INTRA:                  -1.027
REMARK UNBOUND:                -1.151
REMARK  Name = 
REMARK  7 active torsions:
REMARK  status: ('A' for Active; 'I' for Inactive)
REMARK    1  A    between atoms: C_1  and  C_2
REMARK    2  A    between atoms: C_2  and  C_3
REMARK    3  A    between atoms: C_7  and  O_8
REMARK    4  A    between atoms: O_8  and  C_9
REMARK    5  A    between atoms: C_12  and  C_13
REMARK    6  A    between atoms: C_13  and  N_14
REMARK    7  A    between atoms: C_15  and  C_17
REMARK                            x       y       z     vdW  Elec       q    Type
REMARK                         _______ _______ _______ _____ _____    ______ ____
ROOT
ATOM      1  C   UNL     1      46.420   8.021  13.275  0.00  0.00    +0.000 C 
ENDROOT
BRANCH   1   5
ATOM      2  C   UNL     1      50.485   8.521  12.163  0.00  0.00    +0.000 A 
ATOM      3  C   UNL     1      49.531   9.212  11.436  0.00  0.00    +0.000 A 
ATOM      4  C   UNL     1      48.188   9.049  11.779  0.00  0.00    +0.000 A 
ATOM      5  C   UNL     1      47.844   8.223  12.852  0.00  0.00    +0.000 A 
ATOM      6  C   UNL     1      48.880   7.565  13.506  0.00  0.00    +0.000 A 
ATOM      7  N   UNL     1      50.189   7.700  13.192  0.00  0.00    +0.000 NA
BRANCH   2   8
ATOM      8  O   UNL     1      51.803   8.707  11.788  0.00  0.00    +0.000 OA
BRANCH   8  13
ATOM      9  C   UNL     1      52.965   6.875   8.683  0.00  0.00    +0.000 C 
ATOM     10  C   UNL     1      53.980   7.935   8.223  0.00  0.00    +0.000 C 
ATOM     11  C   UNL     1      53.474   9.352   8.462  0.00  0.00    +0.000 C 
ATOM     12  C   UNL     1      53.109   9.561   9.923  0.00  0.00    +0.000 C 
ATOM     13  C   UNL     1      52.045   8.557  10.381  0.00  0.00    +0.000 C 
ATOM     14  C   UNL     1      52.544   7.120  10.144  0.00  0.00    +0.000 C 
BRANCH   9  16
ATOM     15  C   UNL     1      53.512   5.000   7.015  0.00  0.00    +0.000 C 
ATOM     16  C   UNL     1      53.565   5.472   8.459  0.00  0.00    +0.000 C 
ENDBRANCH   9  16
ENDBRANCH   8  13
ENDBRANCH   2   8
ENDBRANCH   1   5
BRANCH   1  17
ATOM     17  N   UNL     1      45.932   6.719  12.895  0.00  0.00    +0.000 N 
ATOM     18  C   UNL     1      45.081   6.569  11.828  0.00  0.00    +0.000 C 
ATOM     19  O   UNL     1      44.751   7.520  11.125  0.00  0.00    +0.000 OA
ATOM     20  H   UNL     1      46.007   5.972  13.579  0.00  0.00    +0.000 HD
BRANCH  18  21
ATOM     21  C   UNL     1      44.632   5.203  11.533  0.00  0.00    +0.000 A 
ATOM     22  C   UNL     1      43.885   4.508  12.475  0.00  0.00    +0.000 A 
ATOM     23  S   UNL     1      43.396   2.960  11.953  0.00  0.00    +0.000 S 
ATOM     24  C   UNL     1      44.213   3.140  10.473  0.00  0.00    +0.000 A 
ATOM     25  N   UNL     1      44.215   2.143   9.547  0.00  0.00    +0.000 NA
ATOM     26  C   UNL     1      44.901   2.399   8.486  0.00  0.00    +0.000 A 
ATOM     27  N   UNL     1      45.584   3.567   8.260  0.00  0.00    +0.000 N 
ATOM     28  C   UNL     1      45.586   4.614   9.151  0.00  0.00    +0.000 A 
ATOM     29  O   UNL     1      46.170   5.664   8.903  0.00  0.00    +0.000 OA
ATOM     30  C   UNL     1      44.836   4.371  10.369  0.00  0.00    +0.000 A 
ATOM     31  H   UNL     1      46.100   3.706   7.405  0.00  0.00    +0.000 HD
ENDBRANCH  18  21
ENDBRANCH   1  17
TORSDOF 6
ENDMDL
MODEL 9
REMARK VINA RESULT:    -6.108      4.649      9.391
REMARK INTER + INTRA:          -9.401
REMARK INTER:                  -8.271
REMARK INTRA:                  -1.130
REMARK UNBOUND:                -1.151
REMARK  Name = 
REMARK  7 active torsions:
REMARK  status: ('A' for Active; 'I' for Inactive)
REMARK    1  A    between atoms: C_1  and  C_2
REMARK    2  A    between atoms: C_2  and  C_3
REMARK    3  A    between atoms: C_7  and  O_8
REMARK    4  A    between atoms: O_8  and  C_9
REMARK    5  A    between atoms: C_12  and  C_13
REMARK    6  A    between atoms: C_13  and  N_14
REMARK    7  A    between atoms: C_15  and  C_17
REMARK                            x       y       z     vdW  Elec       q    Type
REMARK                         _______ _______ _______ _____ _____    ______ ____
ROOT
ATOM      1  C   UNL     1      47.386   3.444  16.839  0.00  0.00    +0.000 C 
ENDROOT
BRANCH   1   5
ATOM      2  C   UNL     1      51.479   2.791  17.755  0.00  0.00    +0.000 A 
ATOM      3  C   UNL     1      50.896   3.961  18.215  0.00  0.00    +0.000 A 
ATOM      4  C   UNL     1      49.555   4.198  17.911  0.00  0.00    +0.000 A 
ATOM      5  C   UNL     1      48.832   3.250  17.183  0.00  0.00    +0.000 A 
ATOM      6  C   UNL     1      49.518   2.116  16.759  0.00  0.00    +0.000 A 
ATOM      7  N   UNL     1      50.818   1.863  17.033  0.00  0.00    +0.000 NA
BRANCH   2   8
ATOM      8  O   UNL     1      52.810   2.597  18.075  0.00  0.00    +0.000 OA
BRANCH   8  13
ATOM      9  C   UNL     1      54.322  -0.853  17.670  0.00  0.00    +0.000 C 
ATOM     10  C   UNL     1      55.700  -0.383  17.173  0.00  0.00    +0.000 C 
ATOM     11  C   UNL     1      55.592   0.818  16.241  0.00  0.00    +0.000 C 
ATOM     12  C   UNL     1      54.848   1.961  16.911  0.00  0.00    +0.000 C 
ATOM     13  C   UNL     1      53.444   1.532  17.350  0.00  0.00    +0.000 C 
ATOM     14  C   UNL     1      53.538   0.318  18.293  0.00  0.00    +0.000 C 
BRANCH   9  16
ATOM     15  C   UNL     1      55.090  -1.632  19.994  0.00  0.00    +0.000 C 
ATOM     16  C   UNL     1      54.513  -2.032  18.645  0.00  0.00    +0.000 C 
ENDBRANCH   9  16
ENDBRANCH   8  13
ENDBRANCH   2   8
ENDBRANCH   1   5
BRANCH   1  17
ATOM     17  N   UNL     1      47.204   4.510  15.885  0.00  0.00    +0.000 N 
ATOM     18  C   UNL     1      47.168   4.251  14.538  0.00  0.00    +0.000 C 
ATOM     19  O   UNL     1      47.227   3.107  14.097  0.00  0.00    +0.000 OA
ATOM     20  H   UNL     1      47.377   5.458  16.205  0.00  0.00    +0.000 HD
BRANCH  18  21
ATOM     21  C   UNL     1      46.992   5.408  13.651  0.00  0.00    +0.000 A 
ATOM     22  C   UNL     1      45.949   5.415  12.734  0.00  0.00    +0.000 A 
ATOM     23  S   UNL     1      45.852   6.854  11.823  0.00  0.00    +0.000 S 
ATOM     24  C   UNL     1      47.233   7.493  12.581  0.00  0.00    +0.000 A 
ATOM     25  N   UNL     1      47.717   8.718  12.238  0.00  0.00    +0.000 NA
ATOM     26  C   UNL     1      48.788   9.065  12.867  0.00  0.00    +0.000 A 
ATOM     27  N   UNL     1      49.420   8.301  13.815  0.00  0.00    +0.000 N 
ATOM     28  C   UNL     1      48.951   7.072  14.216  0.00  0.00    +0.000 A 
ATOM     29  O   UNL     1      49.512   6.431  15.099  0.00  0.00    +0.000 OA
ATOM     30  C   UNL     1      47.752   6.630  13.530  0.00  0.00    +0.000 A 
ATOM     31  H   UNL     1      50.254   8.633  14.273  0.00  0.00    +0.000 HD
ENDBRANCH  18  21
ENDBRANCH   1  17
TORSDOF 6
ENDMDL
