MODEL 1
REMARK VINA RESULT:    -8.476      0.000      0.000
REMARK INTER + INTRA:         -13.095
REMARK INTER:                 -12.440
REMARK INTRA:                  -0.655
REMARK UNBOUND:                -0.655
REMARK  Name = 
REMARK  8 active torsions:
REMARK  status: ('A' for Active; 'I' for Inactive)
REMARK    1  A    between atoms: C_2  and  C_3
REMARK    2  A    between atoms: C_3  and  N_4
REMARK    3  A    between atoms: C_3  and  C_27
REMARK    4  A    between atoms: N_4  and  C_5
REMARK    5  A    between atoms: C_5  and  C_6
REMARK    6  A    between atoms: C_9  and  C_10
REMARK    7  A    between atoms: C_10  and  N_11
REMARK    8  A    between atoms: C_12  and  C_14
REMARK                            x       y       z     vdW  Elec       q    Type
REMARK                         _______ _______ _______ _____ _____    ______ ____
ROOT
ATOM      1  C   UNL     1      44.184   6.667  11.696  0.00  0.00    +0.000 A 
ATOM      2  C   UNL     1      44.983   5.987  12.629  0.00  0.00    +0.000 A 
ATOM      3  C   UNL     1      46.062   6.626  13.251  0.00  0.00    +0.000 A 
ATOM      4  C   UNL     1      46.360   7.964  12.958  0.00  0.00    +0.000 A 
ATOM      5  C   UNL     1      45.577   8.623  12.009  0.00  0.00    +0.000 A 
ATOM      6  F   UNL     1      45.857   9.891  11.675  0.00  0.00    +0.000 F 
ATOM      7  C   UNL     1      44.503   7.993  11.382  0.00  0.00    +0.000 A 
ENDROOT
BRANCH   1   8
ATOM      8  C   UNL     1      43.032   5.965  11.012  0.00  0.00    +0.000 C 
BRANCH   8   9
ATOM      9  N   UNL     1      43.505   5.135   9.903  0.00  0.00    +0.000 NA
ATOM     10  H   UNL     1      44.064   5.717   9.277  0.00  0.00    +0.000 HD
BRANCH   9  11
ATOM     11  C   UNL     1      44.376   4.020  10.365  0.00  0.00    +0.000 C 
BRANCH  11  12
ATOM     12  C   UNL     1      45.185   3.445   9.200  0.00  0.00    +0.000 A 
ATOM     13  C   UNL     1      45.424   2.071   9.106  0.00  0.00    +0.000 A 
ATOM     14  C   UNL     1      46.183   1.585   8.046  0.00  0.00    +0.000 A 
ATOM     15  C   UNL     1      46.686   2.475   7.105  0.00  0.00    +0.000 A 
ATOM     16  C   UNL     1      46.399   3.822   7.261  0.00  0.00    +0.000 A 
ATOM     17  N   UNL     1      45.659   4.324   8.276  0.00  0.00    +0.000 NA
ENDBRANCH  11  12
BRANCH  11  19
ATOM     18  N   UNL     1      43.032   2.064  11.544  0.00  0.00    +0.000 NA
ATOM     19  C   UNL     1      43.640   2.921  11.043  0.00  0.00    +0.000 C 
ENDBRANCH  11  19
ENDBRANCH   9  11
ENDBRANCH   8   9
ENDBRANCH   1   8
BRANCH   4  20
ATOM     20  C   UNL     1      47.525   8.650  13.614  0.00  0.00    +0.000 C 
BRANCH  20  21
ATOM     21  N   UNL     1      47.861   7.995  14.852  0.00  0.00    +0.000 N 
ATOM     22  C   UNL     1      48.855   7.057  14.952  0.00  0.00    +0.000 C 
ATOM     23  O   UNL     1      49.594   6.773  14.014  0.00  0.00    +0.000 OA
ATOM     24  H   UNL     1      47.134   8.006  15.559  0.00  0.00    +0.000 HD
BRANCH  22  25
ATOM     25  C   UNL     1      49.034   6.461  16.282  0.00  0.00    +0.000 A 
ATOM     26  C   UNL     1      49.742   7.141  17.262  0.00  0.00    +0.000 A 
ATOM     27  S   UNL     1      49.776   6.332  18.764  0.00  0.00    +0.000 S 
ATOM     28  C   UNL     1      48.893   5.018  18.141  0.00  0.00    +0.000 A 
ATOM     29  N   UNL     1      48.576   3.950  18.921  0.00  0.00    +0.000 NA
ATOM     30  C   UNL     1      47.931   3.014  18.308  0.00  0.00    +0.000 A 
ATOM     31  N   UNL     1      47.576   3.047  16.985  0.00  0.00    +0.000 N 
ATOM     32  C   UNL     1      47.847   4.117  16.167  0.00  0.00    +0.000 A 
ATOM     33  O   UNL     1      47.470   4.140  15.001  0.00  0.00    +0.000 OA
ATOM     34  C   UNL     1      48.572   5.198  16.808  0.00  0.00    +0.000 A 
ATOM     35  H   UNL     1      47.065   2.285  16.564  0.00  0.00    +0.000 HD
ENDBRANCH  22  25
ENDBRANCH  20  21
ENDBRANCH   4  20
TORSDOF 8
ENDMDL
MODEL 2
REMARK VINA RESULT:    -8.068      1.607      2.072
REMARK INTER + INTRA:         -12.496
REMARK INTER:                 -12.116
REMARK INTRA:                  -0.380
REMARK UNBOUND:                -0.655
REMARK  Name = 
REMARK  8 active torsions:
REMARK  status: ('A' for Active; 'I' for Inactive)
REMARK    1  A    between atoms: C_2  and  C_3
REMARK    2  A    between atoms: C_3  and  N_4
REMARK    3  A    between atoms: C_3  and  C_27
REMARK    4  A    between atoms: N_4  and  C_5
REMARK    5  A    between atoms: C_5  and  C_6
REMARK    6  A    between atoms: C_9  and  C_10
REMARK    7  A    between atoms: C_10  and  N_11
REMARK    8  A    between atoms: C_12  and  C_14
REMARK                            x       y       z     vdW  Elec       q    Type
REMARK                         _______ _______ _______ _____ _____    ______ ____
ROOT
ATOM      1  C   UNL     1      44.558   6.505  11.916  0.00  0.00    +0.000 A 
ATOM      2  C   UNL     1      45.041   7.808  11.712  0.00  0.00    +0.000 A 
ATOM      3  C   UNL     1      46.243   8.227  12.291  0.00  0.00    +0.000 A 
ATOM      4  C   UNL     1      46.996   7.348  13.081  0.00  0.00    +0.000 A 
ATOM      5  C   UNL     1      46.495   6.063  13.301  0.00  0.00    +0.000 A 
ATOM      6  F   UNL     1      47.169   5.207  14.083  0.00  0.00    +0.000 F 
ATOM      7  C   UNL     1      45.296   5.639  12.730  0.00  0.00    +0.000 A 
ENDROOT
BRANCH   1   8
ATOM      8  C   UNL     1      43.248   6.064  11.304  0.00  0.00    +0.000 C 
BRANCH   8   9
ATOM      9  N   UNL     1      43.471   5.139  10.192  0.00  0.00    +0.000 NA
ATOM     10  H   UNL     1      43.969   5.636   9.452  0.00  0.00    +0.000 HD
BRANCH   9  11
ATOM     11  C   UNL     1      44.310   3.976  10.587  0.00  0.00    +0.000 C 
BRANCH  11  12
ATOM     12  C   UNL     1      45.143   3.481   9.402  0.00  0.00    +0.000 A 
ATOM     13  C   UNL     1      45.695   4.385   8.490  0.00  0.00    +0.000 A 
ATOM     14  C   UNL     1      46.427   3.898   7.411  0.00  0.00    +0.000 A 
ATOM     15  C   UNL     1      46.592   2.526   7.264  0.00  0.00    +0.000 A 
ATOM     16  C   UNL     1      46.021   1.694   8.214  0.00  0.00    +0.000 A 
ATOM     17  N   UNL     1      45.311   2.136   9.276  0.00  0.00    +0.000 NA
ENDBRANCH  11  12
BRANCH  11  19
ATOM     18  N   UNL     1      42.957   1.954  11.637  0.00  0.00    +0.000 NA
ATOM     19  C   UNL     1      43.538   2.840  11.155  0.00  0.00    +0.000 C 
ENDBRANCH  11  19
ENDBRANCH   9  11
ENDBRANCH   8   9
ENDBRANCH   1   8
BRANCH   4  20
ATOM     20  C   UNL     1      48.282   7.798  13.716  0.00  0.00    +0.000 C 
BRANCH  20  21
ATOM     21  N   UNL     1      48.187   7.719  15.151  0.00  0.00    +0.000 N 
ATOM     22  C   UNL     1      49.156   7.142  15.931  0.00  0.00    +0.000 C 
ATOM     23  O   UNL     1      50.217   6.732  15.471  0.00  0.00    +0.000 OA
ATOM     24  H   UNL     1      47.249   7.804  15.529  0.00  0.00    +0.000 HD
BRANCH  22  25
ATOM     25  C   UNL     1      48.876   7.111  17.372  0.00  0.00    +0.000 A 
ATOM     26  C   UNL     1      48.532   8.277  18.040  0.00  0.00    +0.000 A 
ATOM     27  S   UNL     1      48.163   8.035  19.689  0.00  0.00    +0.000 S 
ATOM     28  C   UNL     1      48.505   6.371  19.579  0.00  0.00    +0.000 A 
ATOM     29  N   UNL     1      48.393   5.556  20.662  0.00  0.00    +0.000 NA
ATOM     30  C   UNL     1      48.714   4.326  20.440  0.00  0.00    +0.000 A 
ATOM     31  N   UNL     1      49.139   3.834  19.233  0.00  0.00    +0.000 N 
ATOM     32  C   UNL     1      49.237   4.612  18.105  0.00  0.00    +0.000 A 
ATOM     33  O   UNL     1      49.570   4.132  17.027  0.00  0.00    +0.000 OA
ATOM     34  C   UNL     1      48.889   6.006  18.301  0.00  0.00    +0.000 A 
ATOM     35  H   UNL     1      49.369   2.858  19.121  0.00  0.00    +0.000 HD
ENDBRANCH  22  25
ENDBRANCH  20  21
ENDBRANCH   4  20
TORSDOF 8
ENDMDL
MODEL 3
REMARK VINA RESULT:    -8.052      2.049      2.734
REMARK INTER + INTRA:         -12.473
REMARK INTER:                 -11.751
REMARK INTRA:                  -0.723
REMARK UNBOUND:                -0.655
REMARK  Name = 
REMARK  8 active torsions:
REMARK  status: ('A' for Active; 'I' for Inactive)
REMARK    1  A    between atoms: C_2  and  C_3
REMARK    2  A    between atoms: C_3  and  N_4
REMARK    3  A    between atoms: C_3  and  C_27
REMARK    4  A    between atoms: N_4  and  C_5
REMARK    5  A    between atoms: C_5  and  C_6
REMARK    6  A    between atoms: C_9  and  C_10
REMARK    7  A    between atoms: C_10  and  N_11
REMARK    8  A    between atoms: C_12  and  C_14
REMARK                            x       y       z     vdW  Elec       q    Type
REMARK                         _______ _______ _______ _____ _____    ______ ____
ROOT
ATOM      1  C   UNL     1      44.647   6.272  11.879  0.00  0.00    +0.000 A 
ATOM      2  C   UNL     1      44.886   5.503  13.029  0.00  0.00    +0.000 A 
ATOM      3  C   UNL     1      46.088   5.621  13.734  0.00  0.00    +0.000 A 
ATOM      4  C   UNL     1      47.077   6.518  13.308  0.00  0.00    +0.000 A 
ATOM      5  C   UNL     1      46.842   7.259  12.148  0.00  0.00    +0.000 A 
ATOM      6  F   UNL     1      47.780   8.099  11.689  0.00  0.00    +0.000 F 
ATOM      7  C   UNL     1      45.647   7.145  11.438  0.00  0.00    +0.000 A 
ENDROOT
BRANCH   1   8
ATOM      8  C   UNL     1      43.353   6.126  11.110  0.00  0.00    +0.000 C 
BRANCH   8   9
ATOM      9  N   UNL     1      43.481   5.125  10.049  0.00  0.00    +0.000 NA
ATOM     10  H   UNL     1      43.929   5.564   9.242  0.00  0.00    +0.000 HD
BRANCH   9  11
ATOM     11  C   UNL     1      44.334   3.977  10.458  0.00  0.00    +0.000 C 
BRANCH  11  12
ATOM     12  C   UNL     1      45.160   3.466   9.275  0.00  0.00    +0.000 A 
ATOM     13  C   UNL     1      45.411   2.100   9.116  0.00  0.00    +0.000 A 
ATOM     14  C   UNL     1      46.187   1.674   8.041  0.00  0.00    +0.000 A 
ATOM     15  C   UNL     1      46.693   2.614   7.153  0.00  0.00    +0.000 A 
ATOM     16  C   UNL     1      46.393   3.949   7.372  0.00  0.00    +0.000 A 
ATOM     17  N   UNL     1      45.639   4.393   8.401  0.00  0.00    +0.000 NA
ENDBRANCH  11  12
BRANCH  11  19
ATOM     18  N   UNL     1      42.995   1.973  11.559  0.00  0.00    +0.000 NA
ATOM     19  C   UNL     1      43.577   2.845  11.053  0.00  0.00    +0.000 C 
ENDBRANCH  11  19
ENDBRANCH   9  11
ENDBRANCH   8   9
ENDBRANCH   1   8
BRANCH   4  20
ATOM     20  C   UNL     1      48.376   6.639  14.055  0.00  0.00    +0.000 C 
BRANCH  20  21
ATOM     21  N   UNL     1      48.134   6.704  15.474  0.00  0.00    +0.000 N 
ATOM     22  C   UNL     1      49.083   6.375  16.406  0.00  0.00    +0.000 C 
ATOM     23  O   UNL     1      50.237   6.088  16.103  0.00  0.00    +0.000 OA
ATOM     24  H   UNL     1      47.158   6.682  15.748  0.00  0.00    +0.000 HD
BRANCH  22  25
ATOM     25  C   UNL     1      48.652   6.459  17.807  0.00  0.00    +0.000 A 
ATOM     26  C   UNL     1      48.721   5.341  18.626  0.00  0.00    +0.000 A 
ATOM     27  S   UNL     1      48.257   5.649  20.240  0.00  0.00    +0.000 S 
ATOM     28  C   UNL     1      47.895   7.274  19.886  0.00  0.00    +0.000 A 
ATOM     29  N   UNL     1      47.432   8.117  20.847  0.00  0.00    +0.000 NA
ATOM     30  C   UNL     1      47.171   9.311  20.429  0.00  0.00    +0.000 A 
ATOM     31  N   UNL     1      47.329   9.739  19.136  0.00  0.00    +0.000 N 
ATOM     32  C   UNL     1      47.823   8.932  18.140  0.00  0.00    +0.000 A 
ATOM     33  O   UNL     1      48.002   9.359  17.005  0.00  0.00    +0.000 OA
ATOM     34  C   UNL     1      48.131   7.578  18.558  0.00  0.00    +0.000 A 
ATOM     35  H   UNL     1      47.113  10.689  18.873  0.00  0.00    +0.000 HD
ENDBRANCH  22  25
ENDBRANCH  20  21
ENDBRANCH   4  20
TORSDOF 8
ENDMDL
MODEL 4
REMARK VINA RESULT:    -7.635      2.948      3.815
REMARK INTER + INTRA:         -11.861
REMARK INTER:                 -10.907
REMARK INTRA:                  -0.954
REMARK UNBOUND:                -0.655
REMARK  Name = 
REMARK  8 active torsions:
REMARK  status: ('A' for Active; 'I' for Inactive)
REMARK    1  A    between atoms: C_2  and  C_3
REMARK    2  A    between atoms: C_3  and  N_4
REMARK    3  A    between atoms: C_3  and  C_27
REMARK    4  A    between atoms: N_4  and  C_5
REMARK    5  A    between atoms: C_5  and  C_6
REMARK    6  A    between atoms: C_9  and  C_10
REMARK    7  A    between atoms: C_10  and  N_11
REMARK    8  A    between atoms: C_12  and  C_14
REMARK                            x       y       z     vdW  Elec       q    Type
REMARK                         _______ _______ _______ _____ _____    ______ ____
ROOT
ATOM      1  C   UNL     1      46.775   4.538  13.736  0.00  0.00    +0.000 A 
ATOM      2  C   UNL     1      46.742   3.869  14.970  0.00  0.00    +0.000 A 
ATOM      3  C   UNL     1      47.360   4.415  16.100  0.00  0.00    +0.000 A 
ATOM      4  C   UNL     1      48.019   5.649  16.022  0.00  0.00    +0.000 A 
ATOM      5  C   UNL     1      48.070   6.295  14.786  0.00  0.00    +0.000 A 
ATOM      6  F   UNL     1      48.725   7.459  14.665  0.00  0.00    +0.000 F 
ATOM      7  C   UNL     1      47.460   5.756  13.654  0.00  0.00    +0.000 A 
ENDROOT
BRANCH   1   8
ATOM      8  C   UNL     1      46.123   3.933  12.514  0.00  0.00    +0.000 C 
BRANCH   8   9
ATOM      9  N   UNL     1      44.835   3.324  12.852  0.00  0.00    +0.000 NA
ATOM     10  H   UNL     1      44.446   3.815  13.659  0.00  0.00    +0.000 HD
BRANCH   9  11
ATOM     11  C   UNL     1      43.848   3.443  11.744  0.00  0.00    +0.000 C 
BRANCH  11  12
ATOM     12  C   UNL     1      44.548   3.368  10.385  0.00  0.00    +0.000 A 
ATOM     13  C   UNL     1      44.887   4.534   9.691  0.00  0.00    +0.000 A 
ATOM     14  C   UNL     1      45.501   4.429   8.447  0.00  0.00    +0.000 A 
ATOM     15  C   UNL     1      45.763   3.170   7.922  0.00  0.00    +0.000 A 
ATOM     16  C   UNL     1      45.406   2.061   8.673  0.00  0.00    +0.000 A 
ATOM     17  N   UNL     1      44.815   2.131   9.887  0.00  0.00    +0.000 NA
ENDBRANCH  11  12
BRANCH  11  19
ATOM     18  N   UNL     1      42.352   5.625  11.887  0.00  0.00    +0.000 NA
ATOM     19  C   UNL     1      43.019   4.675  11.804  0.00  0.00    +0.000 C 
ENDBRANCH  11  19
ENDBRANCH   9  11
ENDBRANCH   8   9
ENDBRANCH   1   8
BRANCH   4  20
ATOM     20  C   UNL     1      48.695   6.234  17.231  0.00  0.00    +0.000 C 
BRANCH  20  21
ATOM     21  N   UNL     1      49.791   5.396  17.647  0.00  0.00    +0.000 N 
ATOM     22  C   UNL     1      51.034   5.457  17.073  0.00  0.00    +0.000 C 
ATOM     23  O   UNL     1      51.331   6.294  16.226  0.00  0.00    +0.000 OA
ATOM     24  H   UNL     1      49.526   4.549  18.138  0.00  0.00    +0.000 HD
BRANCH  22  25
ATOM     25  C   UNL     1      52.021   4.502  17.592  0.00  0.00    +0.000 A 
ATOM     26  C   UNL     1      53.207   4.957  18.150  0.00  0.00    +0.000 A 
ATOM     27  S   UNL     1      54.190   3.709  18.772  0.00  0.00    +0.000 S 
ATOM     28  C   UNL     1      53.091   2.513  18.268  0.00  0.00    +0.000 A 
ATOM     29  N   UNL     1      53.335   1.193  18.490  0.00  0.00    +0.000 NA
ATOM     30  C   UNL     1      52.430   0.397  18.026  0.00  0.00    +0.000 A 
ATOM     31  N   UNL     1      51.303   0.800  17.358  0.00  0.00    +0.000 N 
ATOM     32  C   UNL     1      50.999   2.121  17.138  0.00  0.00    +0.000 A 
ATOM     33  O   UNL     1      49.958   2.452  16.583  0.00  0.00    +0.000 OA
ATOM     34  C   UNL     1      51.986   3.059  17.639  0.00  0.00    +0.000 A 
ATOM     35  H   UNL     1      50.628   0.128  17.024  0.00  0.00    +0.000 HD
ENDBRANCH  22  25
ENDBRANCH  20  21
ENDBRANCH   4  20
TORSDOF 8
ENDMDL
MODEL 5
REMARK VINA RESULT:    -7.482      4.694      9.375
REMARK INTER + INTRA:         -11.636
REMARK INTER:                 -10.194
REMARK INTRA:                  -1.442
REMARK UNBOUND:                -0.655
REMARK  Name = 
REMARK  8 active torsions:
REMARK  status: ('A' for Active; 'I' for Inactive)
REMARK    1  A    between atoms: C_2  and  C_3
REMARK    2  A    between atoms: C_3  and  N_4
REMARK    3  A    between atoms: C_3  and  C_27
REMARK    4  A    between atoms: N_4  and  C_5
REMARK    5  A    between atoms: C_5  and  C_6
REMARK    6  A    between atoms: C_9  and  C_10
REMARK    7  A    between atoms: C_10  and  N_11
REMARK    8  A    between atoms: C_12  and  C_14
REMARK                            x       y       z     vdW  Elec       q    Type
REMARK                         _______ _______ _______ _____ _____    ______ ____
ROOT
ATOM      1  C   UNL     1      50.672   2.264  17.493  0.00  0.00    +0.000 A 
ATOM      2  C   UNL     1      49.312   2.366  17.160  0.00  0.00    +0.000 A 
ATOM      3  C   UNL     1      48.722   3.613  16.928  0.00  0.00    +0.000 A 
ATOM      4  C   UNL     1      49.482   4.786  17.016  0.00  0.00    +0.000 A 
ATOM      5  C   UNL     1      50.827   4.677  17.373  0.00  0.00    +0.000 A 
ATOM      6  F   UNL     1      51.576   5.782  17.504  0.00  0.00    +0.000 F 
ATOM      7  C   UNL     1      51.423   3.439  17.609  0.00  0.00    +0.000 A 
ENDROOT
BRANCH   1   8
ATOM      8  C   UNL     1      51.300   0.915  17.762  0.00  0.00    +0.000 C 
BRANCH   8   9
ATOM      9  N   UNL     1      52.394   0.647  16.826  0.00  0.00    +0.000 NA
ATOM     10  H   UNL     1      52.586   1.501  16.299  0.00  0.00    +0.000 HD
BRANCH   9  11
ATOM     11  C   UNL     1      53.651   0.266  17.524  0.00  0.00    +0.000 C 
BRANCH  11  12
ATOM     12  C   UNL     1      54.330   1.497  18.129  0.00  0.00    +0.000 A 
ATOM     13  C   UNL     1      54.939   2.452  17.309  0.00  0.00    +0.000 A 
ATOM     14  C   UNL     1      55.568   3.547  17.895  0.00  0.00    +0.000 A 
ATOM     15  C   UNL     1      55.576   3.666  19.279  0.00  0.00    +0.000 A 
ATOM     16  C   UNL     1      54.943   2.684  20.024  0.00  0.00    +0.000 A 
ATOM     17  N   UNL     1      54.319   1.613  19.485  0.00  0.00    +0.000 NA
ENDBRANCH  11  12
BRANCH  11  19
ATOM     18  N   UNL     1      55.378  -0.997  15.960  0.00  0.00    +0.000 NA
ATOM     19  C   UNL     1      54.623  -0.459  16.664  0.00  0.00    +0.000 C 
ENDBRANCH  11  19
ENDBRANCH   9  11
ENDBRANCH   8   9
ENDBRANCH   1   8
BRANCH   4  20
ATOM     20  C   UNL     1      48.849   6.129  16.780  0.00  0.00    +0.000 C 
BRANCH  20  21
ATOM     21  N   UNL     1      47.878   6.046  15.719  0.00  0.00    +0.000 N 
ATOM     22  C   UNL     1      48.169   6.359  14.417  0.00  0.00    +0.000 C 
ATOM     23  O   UNL     1      49.303   6.644  14.043  0.00  0.00    +0.000 OA
ATOM     24  H   UNL     1      46.908   6.069  16.016  0.00  0.00    +0.000 HD
BRANCH  22  25
ATOM     25  C   UNL     1      47.049   6.258  13.473  0.00  0.00    +0.000 A 
ATOM     26  C   UNL     1      46.516   7.403  12.899  0.00  0.00    +0.000 A 
ATOM     27  S   UNL     1      45.278   7.086  11.768  0.00  0.00    +0.000 S 
ATOM     28  C   UNL     1      45.373   5.410  12.049  0.00  0.00    +0.000 A 
ATOM     29  N   UNL     1      44.561   4.539  11.392  0.00  0.00    +0.000 NA
ATOM     30  C   UNL     1      44.722   3.303  11.727  0.00  0.00    +0.000 A 
ATOM     31  N   UNL     1      45.620   2.857  12.662  0.00  0.00    +0.000 N 
ATOM     32  C   UNL     1      46.481   3.695  13.327  0.00  0.00    +0.000 A 
ATOM     33  O   UNL     1      47.308   3.260  14.120  0.00  0.00    +0.000 OA
ATOM     34  C   UNL     1      46.340   5.098  12.987  0.00  0.00    +0.000 A 
ATOM     35  H   UNL     1      45.703   1.874  12.876  0.00  0.00    +0.000 HD
ENDBRANCH  22  25
ENDBRANCH  20  21
ENDBRANCH   4  20
TORSDOF 8
ENDMDL
MODEL 6
REMARK VINA RESULT:    -7.473      2.985      8.077
REMARK INTER + INTRA:         -11.623
REMARK INTER:                  -9.912
REMARK INTRA:                  -1.710
REMARK UNBOUND:                -0.655
REMARK  Name = 
REMARK  8 active torsions:
REMARK  status: ('A' for Active; 'I' for Inactive)
REMARK    1  A    between atoms: C_2  and  C_3
REMARK    2  A    between atoms: C_3  and  N_4
REMARK    3  A    between atoms: C_3  and  C_27
REMARK    4  A    between atoms: N_4  and  C_5
REMARK    5  A    between atoms: C_5  and  C_6
REMARK    6  A    between atoms: C_9  and  C_10
REMARK    7  A    between atoms: C_10  and  N_11
REMARK    8  A    between atoms: C_12  and  C_14
REMARK                            x       y       z     vdW  Elec       q    Type
REMARK                         _______ _______ _______ _____ _____    ______ ____
ROOT
ATOM      1  C   UNL     1      49.843   8.165  15.539  0.00  0.00    +0.000 A 
ATOM      2  C   UNL     1      48.476   8.481  15.493  0.00  0.00    +0.000 A 
ATOM      3  C   UNL     1      47.769   8.440  14.286  0.00  0.00    +0.000 A 
ATOM      4  C   UNL     1      48.414   8.073  13.098  0.00  0.00    +0.000 A 
ATOM      5  C   UNL     1      49.780   7.785  13.148  0.00  0.00    +0.000 A 
ATOM      6  F   UNL     1      50.438   7.467  12.024  0.00  0.00    +0.000 F 
ATOM      7  C   UNL     1      50.491   7.827  14.346  0.00  0.00    +0.000 A 
ENDROOT
BRANCH   1   8
ATOM      8  C   UNL     1      50.605   8.231  16.843  0.00  0.00    +0.000 C 
BRANCH   8   9
ATOM      9  N   UNL     1      50.183   7.165  17.754  0.00  0.00    +0.000 NA
ATOM     10  H   UNL     1      49.162   7.121  17.750  0.00  0.00    +0.000 HD
BRANCH   9  11
ATOM     11  C   UNL     1      50.686   5.831  17.331  0.00  0.00    +0.000 C 
BRANCH  11  12
ATOM     12  C   UNL     1      49.542   4.815  17.271  0.00  0.00    +0.000 A 
ATOM     13  C   UNL     1      48.216   5.221  17.449  0.00  0.00    +0.000 A 
ATOM     14  C   UNL     1      47.204   4.266  17.412  0.00  0.00    +0.000 A 
ATOM     15  C   UNL     1      47.533   2.934  17.199  0.00  0.00    +0.000 A 
ATOM     16  C   UNL     1      48.869   2.610  17.023  0.00  0.00    +0.000 A 
ATOM     17  N   UNL     1      49.874   3.514  17.047  0.00  0.00    +0.000 NA
ENDBRANCH  11  12
BRANCH  11  19
ATOM     18  N   UNL     1      52.596   4.862  18.892  0.00  0.00    +0.000 NA
ATOM     19  C   UNL     1      51.774   5.296  18.191  0.00  0.00    +0.000 C 
ENDBRANCH  11  19
ENDBRANCH   9  11
ENDBRANCH   8   9
ENDBRANCH   1   8
BRANCH   4  20
ATOM     20  C   UNL     1      47.662   8.039  11.797  0.00  0.00    +0.000 C 
BRANCH  20  21
ATOM     21  N   UNL     1      46.926   6.807  11.674  0.00  0.00    +0.000 N 
ATOM     22  C   UNL     1      45.557   6.751  11.703  0.00  0.00    +0.000 C 
ATOM     23  O   UNL     1      44.855   7.757  11.744  0.00  0.00    +0.000 OA
ATOM     24  H   UNL     1      47.449   5.966  11.895  0.00  0.00    +0.000 HD
BRANCH  22  25
ATOM     25  C   UNL     1      44.974   5.407  11.607  0.00  0.00    +0.000 A 
ATOM     26  C   UNL     1      44.323   4.849  12.698  0.00  0.00    +0.000 A 
ATOM     27  S   UNL     1      43.640   3.319  12.375  0.00  0.00    +0.000 S 
ATOM     28  C   UNL     1      44.238   3.325  10.782  0.00  0.00    +0.000 A 
ATOM     29  N   UNL     1      44.011   2.281   9.940  0.00  0.00    +0.000 NA
ATOM     30  C   UNL     1      44.550   2.408   8.774  0.00  0.00    +0.000 A 
ATOM     31  N   UNL     1      45.298   3.484   8.371  0.00  0.00    +0.000 N 
ATOM     32  C   UNL     1      45.527   4.574   9.175  0.00  0.00    +0.000 A 
ATOM     33  O   UNL     1      46.157   5.544   8.768  0.00  0.00    +0.000 OA
ATOM     34  C   UNL     1      44.944   4.481  10.500  0.00  0.00    +0.000 A 
ATOM     35  H   UNL     1      45.689   3.527   7.442  0.00  0.00    +0.000 HD
ENDBRANCH  22  25
ENDBRANCH  20  21
ENDBRANCH   4  20
TORSDOF 8
ENDMDL
MODEL 7
REMARK VINA RESULT:    -7.243      4.645      9.464
REMARK INTER + INTRA:         -11.286
REMARK INTER:                 -10.076
REMARK INTRA:                  -1.209
REMARK UNBOUND:                -0.655
REMARK  Name = 
REMARK  8 active torsions:
REMARK  status: ('A' for Active; 'I' for Inactive)
REMARK    1  A    between atoms: C_2  and  C_3
REMARK    2  A    between atoms: C_3  and  N_4
REMARK    3  A    between atoms: C_3  and  C_27
REMARK    4  A    between atoms: N_4  and  C_5
REMARK    5  A    between atoms: C_5  and  C_6
REMARK    6  A    between atoms: C_9  and  C_10
REMARK    7  A    between atoms: C_10  and  N_11
REMARK    8  A    between atoms: C_12  and  C_14
REMARK                            x       y       z     vdW  Elec       q    Type
REMARK                         _______ _______ _______ _____ _____    ______ ____
ROOT
ATOM      1  C   UNL     1      51.132   4.428  18.269  0.00  0.00    +0.000 A 
ATOM      2  C   UNL     1      50.068   5.324  18.458  0.00  0.00    +0.000 A 
ATOM      3  C   UNL     1      48.780   5.014  18.007  0.00  0.00    +0.000 A 
ATOM      4  C   UNL     1      48.527   3.795  17.363  0.00  0.00    +0.000 A 
ATOM      5  C   UNL     1      49.596   2.922  17.155  0.00  0.00    +0.000 A 
ATOM      6  F   UNL     1      49.399   1.764  16.509  0.00  0.00    +0.000 F 
ATOM      7  C   UNL     1      50.883   3.225  17.599  0.00  0.00    +0.000 A 
ENDROOT
BRANCH   1   8
ATOM      8  C   UNL     1      52.526   4.777  18.741  0.00  0.00    +0.000 C 
BRANCH   8   9
ATOM      9  N   UNL     1      53.533   4.354  17.766  0.00  0.00    +0.000 NA
ATOM     10  H   UNL     1      54.019   5.184  17.421  0.00  0.00    +0.000 HD
BRANCH   9  11
ATOM     11  C   UNL     1      54.557   3.459  18.367  0.00  0.00    +0.000 C 
BRANCH  11  12
ATOM     12  C   UNL     1      54.688   2.165  17.559  0.00  0.00    +0.000 A 
ATOM     13  C   UNL     1      53.866   1.067  17.831  0.00  0.00    +0.000 A 
ATOM     14  C   UNL     1      54.029  -0.101  17.092  0.00  0.00    +0.000 A 
ATOM     15  C   UNL     1      55.002  -0.150  16.103  0.00  0.00    +0.000 A 
ATOM     16  C   UNL     1      55.772   0.982  15.886  0.00  0.00    +0.000 A 
ATOM     17  N   UNL     1      55.634   2.133  16.582  0.00  0.00    +0.000 NA
ENDBRANCH  11  12
BRANCH  11  19
ATOM     18  N   UNL     1      54.138   2.890  20.921  0.00  0.00    +0.000 NA
ATOM     19  C   UNL     1      54.304   3.124  19.793  0.00  0.00    +0.000 C 
ENDBRANCH  11  19
ENDBRANCH   9  11
ENDBRANCH   8   9
ENDBRANCH   1   8
BRANCH   4  20
ATOM     20  C   UNL     1      47.148   3.464  16.865  0.00  0.00    +0.000 C 
BRANCH  20  21
ATOM     21  N   UNL     1      46.748   4.394  15.840  0.00  0.00    +0.000 N 
ATOM     22  C   UNL     1      46.875   4.126  14.502  0.00  0.00    +0.000 C 
ATOM     23  O   UNL     1      47.254   3.038  14.078  0.00  0.00    +0.000 OA
ATOM     24  H   UNL     1      46.680   5.362  16.135  0.00  0.00    +0.000 HD
BRANCH  22  25
ATOM     25  C   UNL     1      46.457   5.203  13.596  0.00  0.00    +0.000 A 
ATOM     26  C   UNL     1      47.333   6.232  13.284  0.00  0.00    +0.000 A 
ATOM     27  S   UNL     1      46.703   7.346  12.155  0.00  0.00    +0.000 S 
ATOM     28  C   UNL     1      45.216   6.521  12.086  0.00  0.00    +0.000 A 
ATOM     29  N   UNL     1      44.203   6.961  11.293  0.00  0.00    +0.000 NA
ATOM     30  C   UNL     1      43.124   6.256  11.364  0.00  0.00    +0.000 A 
ATOM     31  N   UNL     1      42.964   5.150  12.157  0.00  0.00    +0.000 N 
ATOM     32  C   UNL     1      43.968   4.650  12.950  0.00  0.00    +0.000 A 
ATOM     33  O   UNL     1      43.811   3.629  13.609  0.00  0.00    +0.000 OA
ATOM     34  C   UNL     1      45.204   5.409  12.908  0.00  0.00    +0.000 A 
ATOM     35  H   UNL     1      42.095   4.635  12.164  0.00  0.00    +0.000 HD
ENDBRANCH  22  25
ENDBRANCH  20  21
ENDBRANCH   4  20
TORSDOF 8
ENDMDL
MODEL 8
REMARK VINA RESULT:    -7.238      5.023      9.417
REMARK INTER + INTRA:         -11.279
REMARK INTER:                 -10.299
REMARK INTRA:                  -0.980
REMARK UNBOUND:                -0.655
REMARK  Name = 
REMARK  8 active torsions:
REMARK  status: ('A' for Active; 'I' for Inactive)
REMARK    1  A    between atoms: C_2  and  C_3
REMARK    2  A    between atoms: C_3  and  N_4
REMARK    3  A    between atoms: C_3  and  C_27
REMARK    4  A    between atoms: N_4  and  C_5
REMARK    5  A    between atoms: C_5  and  C_6
REMARK    6  A    between atoms: C_9  and  C_10
REMARK    7  A    between atoms: C_10  and  N_11
REMARK    8  A    between atoms: C_12  and  C_14
REMARK                            x       y       z     vdW  Elec       q    Type
REMARK                         _______ _______ _______ _____ _____    ______ ____
ROOT
ATOM      1  C   UNL     1      50.770   2.341  17.557  0.00  0.00    +0.000 A 
ATOM      2  C   UNL     1      49.397   2.398  17.270  0.00  0.00    +0.000 A 
ATOM      3  C   UNL     1      48.760   3.623  17.046  0.00  0.00    +0.000 A 
ATOM      4  C   UNL     1      49.486   4.820  17.096  0.00  0.00    +0.000 A 
ATOM      5  C   UNL     1      50.845   4.757  17.409  0.00  0.00    +0.000 A 
ATOM      6  F   UNL     1      51.563   5.886  17.503  0.00  0.00    +0.000 F 
ATOM      7  C   UNL     1      51.487   3.541  17.636  0.00  0.00    +0.000 A 
ENDROOT
BRANCH   1   8
ATOM      8  C   UNL     1      51.449   1.015  17.818  0.00  0.00    +0.000 C 
BRANCH   8   9
ATOM      9  N   UNL     1      52.498   0.758  16.830  0.00  0.00    +0.000 NA
ATOM     10  H   UNL     1      52.522   1.538  16.172  0.00  0.00    +0.000 HD
BRANCH   9  11
ATOM     11  C   UNL     1      53.846   0.661  17.452  0.00  0.00    +0.000 C 
BRANCH  11  12
ATOM     12  C   UNL     1      54.201  -0.797  17.753  0.00  0.00    +0.000 A 
ATOM     13  C   UNL     1      54.894  -1.571  16.817  0.00  0.00    +0.000 A 
ATOM     14  C   UNL     1      55.180  -2.900  17.114  0.00  0.00    +0.000 A 
ATOM     15  C   UNL     1      54.770  -3.428  18.332  0.00  0.00    +0.000 A 
ATOM     16  C   UNL     1      54.096  -2.596  19.211  0.00  0.00    +0.000 A 
ATOM     17  N   UNL     1      53.809  -1.300  18.955  0.00  0.00    +0.000 NA
ENDBRANCH  11  12
BRANCH  11  19
ATOM     18  N   UNL     1      54.161   2.095  19.658  0.00  0.00    +0.000 NA
ATOM     19  C   UNL     1      53.998   1.469  18.690  0.00  0.00    +0.000 C 
ENDBRANCH  11  19
ENDBRANCH   9  11
ENDBRANCH   8   9
ENDBRANCH   1   8
BRANCH   4  20
ATOM     20  C   UNL     1      48.803   6.140  16.869  0.00  0.00    +0.000 C 
BRANCH  20  21
ATOM     21  N   UNL     1      47.859   6.036  15.786  0.00  0.00    +0.000 N 
ATOM     22  C   UNL     1      48.174   6.351  14.490  0.00  0.00    +0.000 C 
ATOM     23  O   UNL     1      49.311   6.656  14.141  0.00  0.00    +0.000 OA
ATOM     24  H   UNL     1      46.882   6.042  16.061  0.00  0.00    +0.000 HD
BRANCH  22  25
ATOM     25  C   UNL     1      47.078   6.226  13.521  0.00  0.00    +0.000 A 
ATOM     26  C   UNL     1      46.546   7.359  12.922  0.00  0.00    +0.000 A 
ATOM     27  S   UNL     1      45.338   7.014  11.765  0.00  0.00    +0.000 S 
ATOM     28  C   UNL     1      45.447   5.343  12.067  0.00  0.00    +0.000 A 
ATOM     29  N   UNL     1      44.661   4.455  11.400  0.00  0.00    +0.000 NA
ATOM     30  C   UNL     1      44.829   3.224  11.753  0.00  0.00    +0.000 A 
ATOM     31  N   UNL     1      45.709   2.799  12.713  0.00  0.00    +0.000 N 
ATOM     32  C   UNL     1      46.544   3.655  13.390  0.00  0.00    +0.000 A 
ATOM     33  O   UNL     1      47.358   3.239  14.206  0.00  0.00    +0.000 OA
ATOM     34  C   UNL     1      46.394   5.053  13.031  0.00  0.00    +0.000 A 
ATOM     35  H   UNL     1      45.799   1.820  12.940  0.00  0.00    +0.000 HD
ENDBRANCH  22  25
ENDBRANCH  20  21
ENDBRANCH   4  20
TORSDOF 8
ENDMDL
MODEL 9
REMARK VINA RESULT:    -7.096      3.831      5.235
REMARK INTER + INTRA:         -11.070
REMARK INTER:                  -9.734
REMARK INTRA:                  -1.336
REMARK UNBOUND:                -0.655
REMARK  Name = 
REMARK  8 active torsions:
REMARK  status: ('A' for Active; 'I' for Inactive)
REMARK    1  A    between atoms: C_2  and  C_3
REMARK    2  A    between atoms: C_3  and  N_4
REMARK    3  A    between atoms: C_3  and  C_27
REMARK    4  A    between atoms: N_4  and  C_5
REMARK    5  A    between atoms: C_5  and  C_6
REMARK    6  A    between atoms: C_9  and  C_10
REMARK    7  A    between atoms: C_10  and  N_11
REMARK    8  A    between atoms: C_12  and  C_14
REMARK                            x       y       z     vdW  Elec       q    Type
REMARK                         _______ _______ _______ _____ _____    ______ ____
ROOT
ATOM      1  C   UNL     1      45.135   7.160  12.102  0.00  0.00    +0.000 A 
ATOM      2  C   UNL     1      46.255   6.766  12.852  0.00  0.00    +0.000 A 
ATOM      3  C   UNL     1      47.205   7.704  13.270  0.00  0.00    +0.000 A 
ATOM      4  C   UNL     1      47.051   9.061  12.954  0.00  0.00    +0.000 A 
ATOM      5  C   UNL     1      45.949   9.440  12.185  0.00  0.00    +0.000 A 
ATOM      6  F   UNL     1      45.790  10.723  11.831  0.00  0.00    +0.000 F 
ATOM      7  C   UNL     1      45.000   8.511  11.761  0.00  0.00    +0.000 A 
ENDROOT
BRANCH   1   8
ATOM      8  C   UNL     1      44.122   6.139  11.635  0.00  0.00    +0.000 C 
BRANCH   8   9
ATOM      9  N   UNL     1      44.539   5.521  10.375  0.00  0.00    +0.000 NA
ATOM     10  H   UNL     1      45.355   6.023  10.022  0.00  0.00    +0.000 HD
BRANCH   9  11
ATOM     11  C   UNL     1      44.937   4.098  10.551  0.00  0.00    +0.000 C 
BRANCH  11  12
ATOM     12  C   UNL     1      45.502   3.529   9.248  0.00  0.00    +0.000 A 
ATOM     13  C   UNL     1      45.609   2.147   9.059  0.00  0.00    +0.000 A 
ATOM     14  C   UNL     1      46.149   1.665   7.871  0.00  0.00    +0.000 A 
ATOM     15  C   UNL     1      46.569   2.565   6.900  0.00  0.00    +0.000 A 
ATOM     16  C   UNL     1      46.422   3.919   7.156  0.00  0.00    +0.000 A 
ATOM     17  N   UNL     1      45.896   4.418   8.296  0.00  0.00    +0.000 NA
ENDBRANCH  11  12
BRANCH  11  19
ATOM     18  N   UNL     1      43.009   2.517  11.447  0.00  0.00    +0.000 NA
ATOM     19  C   UNL     1      43.840   3.221  11.037  0.00  0.00    +0.000 C 
ENDBRANCH  11  19
ENDBRANCH   9  11
ENDBRANCH   8   9
ENDBRANCH   1   8
BRANCH   4  20
ATOM     20  C   UNL     1      48.076  10.070  13.390  0.00  0.00    +0.000 C 
BRANCH  20  21
ATOM     21  N   UNL     1      49.279   9.932  12.609  0.00  0.00    +0.000 N 
ATOM     22  C   UNL     1      49.474  10.586  11.421  0.00  0.00    +0.000 C 
ATOM     23  O   UNL     1      48.677  11.408  10.980  0.00  0.00    +0.000 OA
ATOM     24  H   UNL     1      49.825   9.098  12.797  0.00  0.00    +0.000 HD
BRANCH  22  25
ATOM     25  C   UNL     1      50.741  10.298  10.737  0.00  0.00    +0.000 A 
ATOM     26  C   UNL     1      51.451  11.319  10.123  0.00  0.00    +0.000 A 
ATOM     27  S   UNL     1      52.936  10.811   9.453  0.00  0.00    +0.000 S 
ATOM     28  C   UNL     1      52.656   9.197   9.913  0.00  0.00    +0.000 A 
ATOM     29  N   UNL     1      53.557   8.218   9.631  0.00  0.00    +0.000 NA
ATOM     30  C   UNL     1      53.199   7.037  10.011  0.00  0.00    +0.000 A 
ATOM     31  N   UNL     1      52.021   6.744  10.647  0.00  0.00    +0.000 N 
ATOM     32  C   UNL     1      51.096   7.704  10.980  0.00  0.00    +0.000 A 
ATOM     33  O   UNL     1      50.075   7.418  11.595  0.00  0.00    +0.000 OA
ATOM     34  C   UNL     1      51.450   9.050  10.573  0.00  0.00    +0.000 A 
ATOM     35  H   UNL     1      51.801   5.799  10.926  0.00  0.00    +0.000 HD
ENDBRANCH  22  25
ENDBRANCH  20  21
ENDBRANCH   4  20
TORSDOF 8
ENDMDL
