MODEL 1
REMARK VINA RESULT:    -6.928      0.000      0.000
REMARK INTER + INTRA:          -9.392
REMARK INTER:                  -8.751
REMARK INTRA:                  -0.641
REMARK UNBOUND:                -0.641
REMARK  Name = 
REMARK  5 active torsions:
REMARK  status: ('A' for Active; 'I' for Inactive)
REMARK    1  A    between atoms: N_1  and  C_2
REMARK    2  A    between atoms: C_2  and  C_3
REMARK    3  A    between atoms: C_6  and  O_7
REMARK    4  A    between atoms: O_7  and  C_8
REMARK    5  A    between atoms: C_8  and  C_9
REMARK                            x       y       z     vdW  Elec       q    Type
REMARK                         _______ _______ _______ _____ _____    ______ ____
ROOT
ATOM      1  C   UNL     1      46.534   2.250   7.638  0.00  0.00    +0.000 A 
ATOM      2  C   UNL     1      45.661   1.509   8.449  0.00  0.00    +0.000 A 
ATOM      3  C   UNL     1      44.697   2.154   9.232  0.00  0.00    +0.000 A 
ATOM      4  C   UNL     1      44.603   3.546   9.222  0.00  0.00    +0.000 A 
ATOM      5  C   UNL     1      45.426   4.284   8.368  0.00  0.00    +0.000 A 
ATOM      6  C   UNL     1      46.391   3.643   7.592  0.00  0.00    +0.000 A 
ENDROOT
BRANCH   1   7
ATOM      7  C   UNL     1      47.620   1.571   6.847  0.00  0.00    +0.000 C 
BRANCH   7   8
ATOM      8  N   UNL     1      48.604   2.523   6.351  0.00  0.00    +0.000 NA
ATOM      9  H   UNL     1      48.127   3.373   6.062  0.00  0.00    +0.000 HD
ATOM     10  H   UNL     1      49.038   2.137   5.513  0.00  0.00    +0.000 HD
ENDBRANCH   7   8
ENDBRANCH   1   7
BRANCH   4  11
ATOM     11  O   UNL     1      43.686   4.090  10.083  0.00  0.00    +0.000 OA
BRANCH  11  12
ATOM     12  C   UNL     1      43.792   3.626  11.432  0.00  0.00    +0.000 C 
BRANCH  12  13
ATOM     13  C   UNL     1      44.954   4.260  12.158  0.00  0.00    +0.000 A 
ATOM     14  C   UNL     1      45.126   5.644  12.217  0.00  0.00    +0.000 A 
ATOM     15  C   UNL     1      46.170   6.152  12.978  0.00  0.00    +0.000 A 
ATOM     16  N   UNL     1      47.031   5.385  13.680  0.00  0.00    +0.000 NA
ATOM     17  C   UNL     1      46.842   4.052  13.617  0.00  0.00    +0.000 A 
ATOM     18  C   UNL     1      45.832   3.449  12.885  0.00  0.00    +0.000 A 
ENDBRANCH  12  13
ENDBRANCH  11  12
ENDBRANCH   4  11
TORSDOF 5
ENDMDL
MODEL 2
REMARK VINA RESULT:    -6.904      1.305      5.840
REMARK INTER + INTRA:          -9.361
REMARK INTER:                  -8.871
REMARK INTRA:                  -0.490
REMARK UNBOUND:                -0.641
REMARK  Name = 
REMARK  5 active torsions:
REMARK  status: ('A' for Active; 'I' for Inactive)
REMARK    1  A    between atoms: N_1  and  C_2
REMARK    2  A    between atoms: C_2  and  C_3
REMARK    3  A    between atoms: C_6  and  O_7
REMARK    4  A    between atoms: O_7  and  C_8
REMARK    5  A    between atoms: C_8  and  C_9
REMARK                            x       y       z     vdW  Elec       q    Type
REMARK                         _______ _______ _______ _____ _____    ______ ____
ROOT
ATOM      1  C   UNL     1      46.085   4.671  12.974  0.00  0.00    +0.000 A 
ATOM      2  C   UNL     1      46.418   5.786  12.191  0.00  0.00    +0.000 A 
ATOM      3  C   UNL     1      46.037   5.849  10.845  0.00  0.00    +0.000 A 
ATOM      4  C   UNL     1      45.333   4.794  10.266  0.00  0.00    +0.000 A 
ATOM      5  C   UNL     1      44.944   3.711  11.058  0.00  0.00    +0.000 A 
ATOM      6  C   UNL     1      45.328   3.644  12.398  0.00  0.00    +0.000 A 
ENDROOT
BRANCH   1   7
ATOM      7  C   UNL     1      46.551   4.562  14.402  0.00  0.00    +0.000 C 
BRANCH   7   8
ATOM      8  N   UNL     1      47.387   3.388  14.611  0.00  0.00    +0.000 NA
ATOM      9  H   UNL     1      48.120   3.618  15.278  0.00  0.00    +0.000 HD
ATOM     10  H   UNL     1      47.856   3.160  13.735  0.00  0.00    +0.000 HD
ENDBRANCH   7   8
ENDBRANCH   1   7
BRANCH   4  11
ATOM     11  O   UNL     1      45.078   4.908   8.924  0.00  0.00    +0.000 OA
BRANCH  11  12
ATOM     12  C   UNL     1      44.674   3.691   8.292  0.00  0.00    +0.000 C 
BRANCH  12  13
ATOM     13  C   UNL     1      45.855   2.899   7.784  0.00  0.00    +0.000 A 
ATOM     14  C   UNL     1      46.059   1.563   8.133  0.00  0.00    +0.000 A 
ATOM     15  C   UNL     1      47.119   0.880   7.554  0.00  0.00    +0.000 A 
ATOM     16  N   UNL     1      47.967   1.427   6.658  0.00  0.00    +0.000 NA
ATOM     17  C   UNL     1      47.748   2.715   6.327  0.00  0.00    +0.000 A 
ATOM     18  C   UNL     1      46.719   3.482   6.851  0.00  0.00    +0.000 A 
ENDBRANCH  12  13
ENDBRANCH  11  12
ENDBRANCH   4  11
TORSDOF 5
ENDMDL
MODEL 3
REMARK VINA RESULT:    -6.462      1.179      5.640
REMARK INTER + INTRA:          -8.802
REMARK INTER:                  -8.277
REMARK INTRA:                  -0.525
REMARK UNBOUND:                -0.641
REMARK  Name = 
REMARK  5 active torsions:
REMARK  status: ('A' for Active; 'I' for Inactive)
REMARK    1  A    between atoms: N_1  and  C_2
REMARK    2  A    between atoms: C_2  and  C_3
REMARK    3  A    between atoms: C_6  and  O_7
REMARK    4  A    between atoms: O_7  and  C_8
REMARK    5  A    between atoms: C_8  and  C_9
REMARK                            x       y       z     vdW  Elec       q    Type
REMARK                         _______ _______ _______ _____ _____    ______ ____
ROOT
ATOM      1  C   UNL     1      46.419   5.723  12.669  0.00  0.00    +0.000 A 
ATOM      2  C   UNL     1      45.927   4.436  12.936  0.00  0.00    +0.000 A 
ATOM      3  C   UNL     1      45.274   3.704  11.937  0.00  0.00    +0.000 A 
ATOM      4  C   UNL     1      45.097   4.253  10.668  0.00  0.00    +0.000 A 
ATOM      5  C   UNL     1      45.641   5.506  10.379  0.00  0.00    +0.000 A 
ATOM      6  C   UNL     1      46.286   6.240  11.375  0.00  0.00    +0.000 A 
ENDROOT
BRANCH   1   7
ATOM      7  C   UNL     1      47.058   6.547  13.755  0.00  0.00    +0.000 C 
BRANCH   7   8
ATOM      8  N   UNL     1      48.093   5.805  14.460  0.00  0.00    +0.000 NA
ATOM      9  H   UNL     1      49.004   6.098  14.115  0.00  0.00    +0.000 HD
ATOM     10  H   UNL     1      48.001   4.816  14.230  0.00  0.00    +0.000 HD
ENDBRANCH   7   8
ENDBRANCH   1   7
BRANCH   4  11
ATOM     11  O   UNL     1      44.374   3.495   9.783  0.00  0.00    +0.000 OA
BRANCH  11  12
ATOM     12  C   UNL     1      44.629   3.788   8.406  0.00  0.00    +0.000 C 
BRANCH  12  13
ATOM     13  C   UNL     1      45.734   2.929   7.842  0.00  0.00    +0.000 A 
ATOM     14  C   UNL     1      46.749   3.455   7.042  0.00  0.00    +0.000 A 
ATOM     15  C   UNL     1      47.777   2.617   6.635  0.00  0.00    +0.000 A 
ATOM     16  N   UNL     1      47.865   1.314   6.975  0.00  0.00    +0.000 NA
ATOM     17  C   UNL     1      46.879   0.826   7.756  0.00  0.00    +0.000 A 
ATOM     18  C   UNL     1      45.811   1.581   8.211  0.00  0.00    +0.000 A 
ENDBRANCH  12  13
ENDBRANCH  11  12
ENDBRANCH   4  11
TORSDOF 5
ENDMDL
MODEL 4
REMARK VINA RESULT:    -5.458      1.552      2.303
REMARK INTER + INTRA:          -7.534
REMARK INTER:                  -7.158
REMARK INTRA:                  -0.376
REMARK UNBOUND:                -0.641
REMARK  Name = 
REMARK  5 active torsions:
REMARK  status: ('A' for Active; 'I' for Inactive)
REMARK    1  A    between atoms: N_1  and  C_2
REMARK    2  A    between atoms: C_2  and  C_3
REMARK    3  A    between atoms: C_6  and  O_7
REMARK    4  A    between atoms: O_7  and  C_8
REMARK    5  A    between atoms: C_8  and  C_9
REMARK                            x       y       z     vdW  Elec       q    Type
REMARK                         _______ _______ _______ _____ _____    ______ ____
ROOT
ATOM      1  C   UNL     1      45.621   3.366   8.106  0.00  0.00    +0.000 A 
ATOM      2  C   UNL     1      44.961   2.465   8.956  0.00  0.00    +0.000 A 
ATOM      3  C   UNL     1      44.476   2.887  10.199  0.00  0.00    +0.000 A 
ATOM      4  C   UNL     1      44.655   4.207  10.611  0.00  0.00    +0.000 A 
ATOM      5  C   UNL     1      45.254   5.122   9.742  0.00  0.00    +0.000 A 
ATOM      6  C   UNL     1      45.744   4.703   8.506  0.00  0.00    +0.000 A 
ENDROOT
BRANCH   1   7
ATOM      7  C   UNL     1      46.210   2.907   6.799  0.00  0.00    +0.000 C 
BRANCH   7   8
ATOM      8  N   UNL     1      46.828   4.004   6.068  0.00  0.00    +0.000 NA
ATOM      9  H   UNL     1      46.137   4.736   5.923  0.00  0.00    +0.000 HD
ATOM     10  H   UNL     1      47.094   3.670   5.142  0.00  0.00    +0.000 HD
ENDBRANCH   7   8
ENDBRANCH   1   7
BRANCH   4  11
ATOM     11  O   UNL     1      44.220   4.504  11.877  0.00  0.00    +0.000 OA
BRANCH  11  12
ATOM     12  C   UNL     1      45.237   4.443  12.881  0.00  0.00    +0.000 C 
BRANCH  12  13
ATOM     13  C   UNL     1      45.878   5.789  13.118  0.00  0.00    +0.000 A 
ATOM     14  C   UNL     1      47.210   5.919  13.512  0.00  0.00    +0.000 A 
ATOM     15  C   UNL     1      47.750   7.192  13.624  0.00  0.00    +0.000 A 
ATOM     16  N   UNL     1      47.065   8.325  13.362  0.00  0.00    +0.000 NA
ATOM     17  C   UNL     1      45.782   8.179  12.974  0.00  0.00    +0.000 A 
ATOM     18  C   UNL     1      45.153   6.952  12.835  0.00  0.00    +0.000 A 
ENDBRANCH  12  13
ENDBRANCH  11  12
ENDBRANCH   4  11
TORSDOF 5
ENDMDL
MODEL 5
REMARK VINA RESULT:    -5.173      1.809      5.966
REMARK INTER + INTRA:          -7.175
REMARK INTER:                  -6.735
REMARK INTRA:                  -0.440
REMARK UNBOUND:                -0.641
REMARK  Name = 
REMARK  5 active torsions:
REMARK  status: ('A' for Active; 'I' for Inactive)
REMARK    1  A    between atoms: N_1  and  C_2
REMARK    2  A    between atoms: C_2  and  C_3
REMARK    3  A    between atoms: C_6  and  O_7
REMARK    4  A    between atoms: O_7  and  C_8
REMARK    5  A    between atoms: C_8  and  C_9
REMARK                            x       y       z     vdW  Elec       q    Type
REMARK                         _______ _______ _______ _____ _____    ______ ____
ROOT
ATOM      1  C   UNL     1      47.864   6.460  13.860  0.00  0.00    +0.000 A 
ATOM      2  C   UNL     1      47.260   6.924  12.682  0.00  0.00    +0.000 A 
ATOM      3  C   UNL     1      46.180   6.236  12.118  0.00  0.00    +0.000 A 
ATOM      4  C   UNL     1      45.699   5.072  12.718  0.00  0.00    +0.000 A 
ATOM      5  C   UNL     1      46.255   4.643  13.925  0.00  0.00    +0.000 A 
ATOM      6  C   UNL     1      47.336   5.324  14.485  0.00  0.00    +0.000 A 
ENDROOT
BRANCH   1   7
ATOM      7  C   UNL     1      49.071   7.152  14.435  0.00  0.00    +0.000 C 
BRANCH   7   8
ATOM      8  N   UNL     1      50.167   7.213  13.479  0.00  0.00    +0.000 NA
ATOM      9  H   UNL     1      49.957   6.600  12.695  0.00  0.00    +0.000 HD
ATOM     10  H   UNL     1      51.007   6.840  13.920  0.00  0.00    +0.000 HD
ENDBRANCH   7   8
ENDBRANCH   1   7
BRANCH   4  11
ATOM     11  O   UNL     1      44.694   4.423  12.048  0.00  0.00    +0.000 OA
BRANCH  11  12
ATOM     12  C   UNL     1      44.456   4.909  10.724  0.00  0.00    +0.000 C 
BRANCH  12  13
ATOM     13  C   UNL     1      45.094   4.029   9.676  0.00  0.00    +0.000 A 
ATOM     14  C   UNL     1      45.000   2.637   9.718  0.00  0.00    +0.000 A 
ATOM     15  C   UNL     1      45.537   1.903   8.670  0.00  0.00    +0.000 A 
ATOM     16  N   UNL     1      46.142   2.455   7.597  0.00  0.00    +0.000 NA
ATOM     17  C   UNL     1      46.214   3.801   7.571  0.00  0.00    +0.000 A 
ATOM     18  C   UNL     1      45.710   4.621   8.569  0.00  0.00    +0.000 A 
ENDBRANCH  12  13
ENDBRANCH  11  12
ENDBRANCH   4  11
TORSDOF 5
ENDMDL
MODEL 6
REMARK VINA RESULT:    -4.973      4.029      8.144
REMARK INTER + INTRA:          -6.922
REMARK INTER:                  -6.578
REMARK INTRA:                  -0.343
REMARK UNBOUND:                -0.641
REMARK  Name = 
REMARK  5 active torsions:
REMARK  status: ('A' for Active; 'I' for Inactive)
REMARK    1  A    between atoms: N_1  and  C_2
REMARK    2  A    between atoms: C_2  and  C_3
REMARK    3  A    between atoms: C_6  and  O_7
REMARK    4  A    between atoms: O_7  and  C_8
REMARK    5  A    between atoms: C_8  and  C_9
REMARK                            x       y       z     vdW  Elec       q    Type
REMARK                         _______ _______ _______ _____ _____    ______ ____
ROOT
ATOM      1  C   UNL     1      48.565   4.465  18.530  0.00  0.00    +0.000 A 
ATOM      2  C   UNL     1      48.505   5.464  17.547  0.00  0.00    +0.000 A 
ATOM      3  C   UNL     1      48.016   5.174  16.268  0.00  0.00    +0.000 A 
ATOM      4  C   UNL     1      47.594   3.882  15.955  0.00  0.00    +0.000 A 
ATOM      5  C   UNL     1      47.592   2.901  16.949  0.00  0.00    +0.000 A 
ATOM      6  C   UNL     1      48.085   3.187  18.222  0.00  0.00    +0.000 A 
ENDROOT
BRANCH   1   7
ATOM      7  C   UNL     1      49.155   4.749  19.886  0.00  0.00    +0.000 C 
BRANCH   7   8
ATOM      8  N   UNL     1      48.507   3.971  20.932  0.00  0.00    +0.000 NA
ATOM      9  H   UNL     1      48.540   2.986  20.681  0.00  0.00    +0.000 HD
ATOM     10  H   UNL     1      47.521   4.228  20.966  0.00  0.00    +0.000 HD
ENDBRANCH   7   8
ENDBRANCH   1   7
BRANCH   4  11
ATOM     11  O   UNL     1      47.211   3.675  14.655  0.00  0.00    +0.000 OA
BRANCH  11  12
ATOM     12  C   UNL     1      46.940   4.872  13.920  0.00  0.00    +0.000 C 
BRANCH  12  13
ATOM     13  C   UNL     1      46.075   4.609  12.711  0.00  0.00    +0.000 A 
ATOM     14  C   UNL     1      45.426   3.389  12.513  0.00  0.00    +0.000 A 
ATOM     15  C   UNL     1      44.578   3.257  11.423  0.00  0.00    +0.000 A 
ATOM     16  N   UNL     1      44.331   4.245  10.538  0.00  0.00    +0.000 NA
ATOM     17  C   UNL     1      44.959   5.419  10.751  0.00  0.00    +0.000 A 
ATOM     18  C   UNL     1      45.825   5.649  11.809  0.00  0.00    +0.000 A 
ENDBRANCH  12  13
ENDBRANCH  11  12
ENDBRANCH   4  11
TORSDOF 5
ENDMDL
MODEL 7
REMARK VINA RESULT:    -4.773      3.919      7.638
REMARK INTER + INTRA:          -6.669
REMARK INTER:                  -6.413
REMARK INTRA:                  -0.256
REMARK UNBOUND:                -0.641
REMARK  Name = 
REMARK  5 active torsions:
REMARK  status: ('A' for Active; 'I' for Inactive)
REMARK    1  A    between atoms: N_1  and  C_2
REMARK    2  A    between atoms: C_2  and  C_3
REMARK    3  A    between atoms: C_6  and  O_7
REMARK    4  A    between atoms: O_7  and  C_8
REMARK    5  A    between atoms: C_8  and  C_9
REMARK                            x       y       z     vdW  Elec       q    Type
REMARK                         _______ _______ _______ _____ _____    ______ ____
ROOT
ATOM      1  C   UNL     1      49.791   4.105  17.576  0.00  0.00    +0.000 A 
ATOM      2  C   UNL     1      49.141   2.914  17.218  0.00  0.00    +0.000 A 
ATOM      3  C   UNL     1      48.024   2.940  16.376  0.00  0.00    +0.000 A 
ATOM      4  C   UNL     1      47.538   4.154  15.892  0.00  0.00    +0.000 A 
ATOM      5  C   UNL     1      48.219   5.335  16.193  0.00  0.00    +0.000 A 
ATOM      6  C   UNL     1      49.329   5.313  17.038  0.00  0.00    +0.000 A 
ENDROOT
BRANCH   1   7
ATOM      7  C   UNL     1      50.949   4.096  18.538  0.00  0.00    +0.000 C 
BRANCH   7   8
ATOM      8  N   UNL     1      50.532   4.436  19.891  0.00  0.00    +0.000 NA
ATOM      9  H   UNL     1      49.515   4.438  19.934  0.00  0.00    +0.000 HD
ATOM     10  H   UNL     1      50.831   5.389  20.095  0.00  0.00    +0.000 HD
ENDBRANCH   7   8
ENDBRANCH   1   7
BRANCH   4  11
ATOM     11  O   UNL     1      46.391   4.085  15.143  0.00  0.00    +0.000 OA
BRANCH  11  12
ATOM     12  C   UNL     1      46.515   4.615  13.821  0.00  0.00    +0.000 C 
BRANCH  12  13
ATOM     13  C   UNL     1      45.238   4.463  13.030  0.00  0.00    +0.000 A 
ATOM     14  C   UNL     1      44.271   5.467  12.980  0.00  0.00    +0.000 A 
ATOM     15  C   UNL     1      43.167   5.287  12.160  0.00  0.00    +0.000 A 
ATOM     16  N   UNL     1      42.971   4.195  11.391  0.00  0.00    +0.000 NA
ATOM     17  C   UNL     1      43.921   3.240  11.445  0.00  0.00    +0.000 A 
ATOM     18  C   UNL     1      45.057   3.326  12.234  0.00  0.00    +0.000 A 
ENDBRANCH  12  13
ENDBRANCH  11  12
ENDBRANCH   4  11
TORSDOF 5
ENDMDL
MODEL 8
REMARK VINA RESULT:    -4.746      3.780      5.495
REMARK INTER + INTRA:          -6.635
REMARK INTER:                  -6.213
REMARK INTRA:                  -0.421
REMARK UNBOUND:                -0.641
REMARK  Name = 
REMARK  5 active torsions:
REMARK  status: ('A' for Active; 'I' for Inactive)
REMARK    1  A    between atoms: N_1  and  C_2
REMARK    2  A    between atoms: C_2  and  C_3
REMARK    3  A    between atoms: C_6  and  O_7
REMARK    4  A    between atoms: O_7  and  C_8
REMARK    5  A    between atoms: C_8  and  C_9
REMARK                            x       y       z     vdW  Elec       q    Type
REMARK                         _______ _______ _______ _____ _____    ______ ____
ROOT
ATOM      1  C   UNL     1      44.766   4.005  11.375  0.00  0.00    +0.000 A 
ATOM      2  C   UNL     1      45.203   3.860  12.701  0.00  0.00    +0.000 A 
ATOM      3  C   UNL     1      46.025   4.828  13.288  0.00  0.00    +0.000 A 
ATOM      4  C   UNL     1      46.428   5.944  12.555  0.00  0.00    +0.000 A 
ATOM      5  C   UNL     1      45.944   6.124  11.257  0.00  0.00    +0.000 A 
ATOM      6  C   UNL     1      45.130   5.157  10.668  0.00  0.00    +0.000 A 
ENDROOT
BRANCH   1   7
ATOM      7  C   UNL     1      43.941   2.935  10.711  0.00  0.00    +0.000 C 
BRANCH   7   8
ATOM      8  N   UNL     1      43.107   2.221  11.668  0.00  0.00    +0.000 NA
ATOM      9  H   UNL     1      42.560   1.521  11.172  0.00  0.00    +0.000 HD
ATOM     10  H   UNL     1      42.438   2.877  12.070  0.00  0.00    +0.000 HD
ENDBRANCH   7   8
ENDBRANCH   1   7
BRANCH   4  11
ATOM     11  O   UNL     1      47.299   6.794  13.187  0.00  0.00    +0.000 OA
BRANCH  11  12
ATOM     12  C   UNL     1      48.658   6.674  12.758  0.00  0.00    +0.000 C 
BRANCH  12  13
ATOM     13  C   UNL     1      49.153   7.934  12.090  0.00  0.00    +0.000 A 
ATOM     14  C   UNL     1      48.335   9.051  11.913  0.00  0.00    +0.000 A 
ATOM     15  C   UNL     1      48.890  10.201  11.370  0.00  0.00    +0.000 A 
ATOM     16  N   UNL     1      50.185  10.313  11.007  0.00  0.00    +0.000 NA
ATOM     17  C   UNL     1      50.961   9.226  11.195  0.00  0.00    +0.000 A 
ATOM     18  C   UNL     1      50.500   8.033  11.727  0.00  0.00    +0.000 A 
ENDBRANCH  12  13
ENDBRANCH  11  12
ENDBRANCH   4  11
TORSDOF 5
ENDMDL
MODEL 9
REMARK VINA RESULT:    -4.724      4.243      5.987
REMARK INTER + INTRA:          -6.607
REMARK INTER:                  -6.209
REMARK INTRA:                  -0.398
REMARK UNBOUND:                -0.641
REMARK  Name = 
REMARK  5 active torsions:
REMARK  status: ('A' for Active; 'I' for Inactive)
REMARK    1  A    between atoms: N_1  and  C_2
REMARK    2  A    between atoms: C_2  and  C_3
REMARK    3  A    between atoms: C_6  and  O_7
REMARK    4  A    between atoms: O_7  and  C_8
REMARK    5  A    between atoms: C_8  and  C_9
REMARK                            x       y       z     vdW  Elec       q    Type
REMARK                         _______ _______ _______ _____ _____    ______ ____
ROOT
ATOM      1  C   UNL     1      44.275   4.982  11.911  0.00  0.00    +0.000 A 
ATOM      2  C   UNL     1      44.970   6.055  12.488  0.00  0.00    +0.000 A 
ATOM      3  C   UNL     1      46.123   5.828  13.249  0.00  0.00    +0.000 A 
ATOM      4  C   UNL     1      46.585   4.528  13.452  0.00  0.00    +0.000 A 
ATOM      5  C   UNL     1      45.932   3.463  12.827  0.00  0.00    +0.000 A 
ATOM      6  C   UNL     1      44.780   3.686  12.073  0.00  0.00    +0.000 A 
ENDROOT
BRANCH   1   7
ATOM      7  C   UNL     1      42.995   5.208  11.151  0.00  0.00    +0.000 C 
BRANCH   7   8
ATOM      8  N   UNL     1      42.142   6.191  11.805  0.00  0.00    +0.000 NA
ATOM      9  H   UNL     1      42.052   7.005  11.202  0.00  0.00    +0.000 HD
ATOM     10  H   UNL     1      42.606   6.511  12.655  0.00  0.00    +0.000 HD
ENDBRANCH   7   8
ENDBRANCH   1   7
BRANCH   4  11
ATOM     11  O   UNL     1      47.670   4.400  14.279  0.00  0.00    +0.000 OA
BRANCH  11  12
ATOM     12  C   UNL     1      47.506   3.441  15.327  0.00  0.00    +0.000 C 
BRANCH  12  13
ATOM     13  C   UNL     1      47.955   3.981  16.663  0.00  0.00    +0.000 A 
ATOM     14  C   UNL     1      48.040   3.176  17.800  0.00  0.00    +0.000 A 
ATOM     15  C   UNL     1      48.546   3.726  18.968  0.00  0.00    +0.000 A 
ATOM     16  N   UNL     1      48.974   5.002  19.075  0.00  0.00    +0.000 NA
ATOM     17  C   UNL     1      48.892   5.761  17.964  0.00  0.00    +0.000 A 
ATOM     18  C   UNL     1      48.401   5.304  16.752  0.00  0.00    +0.000 A 
ENDBRANCH  12  13
ENDBRANCH  11  12
ENDBRANCH   4  11
TORSDOF 5
ENDMDL
