MODEL 1
REMARK VINA RESULT:    -7.652      0.000      0.000
REMARK INTER + INTRA:         -10.702
REMARK INTER:                 -10.112
REMARK INTRA:                  -0.589
REMARK UNBOUND:                -0.589
REMARK  Name = 
REMARK  6 active torsions:
REMARK  status: ('A' for Active; 'I' for Inactive)
REMARK    1  A    between atoms: C_2  and  C_14
REMARK    2  A    between atoms: N_3  and  C_4
REMARK    3  A    between atoms: C_4  and  C_5
REMARK    4  A    between atoms: N_8  and  C_9
REMARK    5  A    between atoms: C_9  and  C_10
REMARK    6  A    between atoms: C_10  and  O_11
REMARK                            x       y       z     vdW  Elec       q    Type
REMARK                         _______ _______ _______ _____ _____    ______ ____
ROOT
ATOM      1  O   UNL     1      45.786   4.257  13.768  0.00  0.00    +0.000 OA
ATOM      2  C   UNL     1      45.736   4.979  12.776  0.00  0.00    +0.000 C 
ATOM      3  N   UNL     1      45.443   4.495  11.530  0.00  0.00    +0.000 N 
ATOM      4  H   UNL     1      45.426   5.132  10.740  0.00  0.00    +0.000 HD
ENDROOT
BRANCH   2   5
ATOM      5  C   UNL     1      45.965   6.428  12.862  0.00  0.00    +0.000 A 
ATOM      6  C   UNL     1      47.064   6.918  13.554  0.00  0.00    +0.000 A 
ATOM      7  S   UNL     1      47.197   8.619  13.511  0.00  0.00    +0.000 S 
ATOM      8  C   UNL     1      45.811   8.759  12.536  0.00  0.00    +0.000 A 
ATOM      9  N   UNL     1      45.394   9.972  12.078  0.00  0.00    +0.000 NA
ATOM     10  C   UNL     1      44.359   9.929  11.308  0.00  0.00    +0.000 A 
ATOM     11  N   UNL     1      43.683   8.782  10.975  0.00  0.00    +0.000 N 
ATOM     12  C   UNL     1      43.989   7.563  11.520  0.00  0.00    +0.000 A 
ATOM     13  O   UNL     1      43.229   6.608  11.382  0.00  0.00    +0.000 OA
ATOM     14  C   UNL     1      45.218   7.532  12.298  0.00  0.00    +0.000 A 
ATOM     15  H   UNL     1      42.841   8.825  10.423  0.00  0.00    +0.000 HD
ENDBRANCH   2   5
BRANCH   3  16
ATOM     16  C   UNL     1      45.190   3.110  11.221  0.00  0.00    +0.000 C 
BRANCH  16  17
ATOM     17  C   UNL     1      44.212   2.926  10.045  0.00  0.00    +0.000 C 
ATOM     18  C   UNL     1      44.501   1.706   9.162  0.00  0.00    +0.000 C 
ATOM     19  C   UNL     1      45.822   1.831   8.397  0.00  0.00    +0.000 C 
ATOM     20  N   UNL     1      45.918   3.070   7.604  0.00  0.00    +0.000 NA
ATOM     21  C   UNL     1      45.582   4.272   8.394  0.00  0.00    +0.000 C 
ATOM     22  C   UNL     1      44.241   4.152   9.126  0.00  0.00    +0.000 C 
BRANCH  20  23
ATOM     23  C   UNL     1      47.283   3.244   7.038  0.00  0.00    +0.000 C 
BRANCH  23  24
ATOM     24  C   UNL     1      48.073   1.939   6.857  0.00  0.00    +0.000 C 
BRANCH  24  25
ATOM     25  O   UNL     1      48.470   1.772   5.500  0.00  0.00    +0.000 OA
ATOM     26  H   UNL     1      48.330   2.643   5.081  0.00  0.00    +0.000 HD
ENDBRANCH  24  25
ENDBRANCH  23  24
ENDBRANCH  20  23
ENDBRANCH  16  17
ENDBRANCH   3  16
TORSDOF 6
ENDMDL
MODEL 2
REMARK VINA RESULT:    -7.239      4.432      7.490
REMARK INTER + INTRA:         -10.156
REMARK INTER:                  -9.399
REMARK INTRA:                  -0.757
REMARK UNBOUND:                -0.589
REMARK  Name = 
REMARK  6 active torsions:
REMARK  status: ('A' for Active; 'I' for Inactive)
REMARK    1  A    between atoms: C_2  and  C_14
REMARK    2  A    between atoms: N_3  and  C_4
REMARK    3  A    between atoms: C_4  and  C_5
REMARK    4  A    between atoms: N_8  and  C_9
REMARK    5  A    between atoms: C_9  and  C_10
REMARK    6  A    between atoms: C_10  and  O_11
REMARK                            x       y       z     vdW  Elec       q    Type
REMARK                         _______ _______ _______ _____ _____    ______ ____
ROOT
ATOM      1  O   UNL     1      48.849   6.460  13.104  0.00  0.00    +0.000 OA
ATOM      2  C   UNL     1      47.774   6.207  13.643  0.00  0.00    +0.000 C 
ATOM      3  N   UNL     1      47.655   6.022  14.992  0.00  0.00    +0.000 N 
ATOM      4  H   UNL     1      46.745   5.805  15.387  0.00  0.00    +0.000 HD
ENDROOT
BRANCH   2   5
ATOM      5  C   UNL     1      46.527   6.111  12.871  0.00  0.00    +0.000 A 
ATOM      6  C   UNL     1      45.963   7.252  12.316  0.00  0.00    +0.000 A 
ATOM      7  S   UNL     1      44.545   6.946  11.416  0.00  0.00    +0.000 S 
ATOM      8  C   UNL     1      44.654   5.274  11.706  0.00  0.00    +0.000 A 
ATOM      9  N   UNL     1      43.759   4.406  11.158  0.00  0.00    +0.000 NA
ATOM     10  C   UNL     1      43.988   3.163  11.418  0.00  0.00    +0.000 A 
ATOM     11  N   UNL     1      45.016   2.708  12.204  0.00  0.00    +0.000 N 
ATOM     12  C   UNL     1      45.854   3.553  12.881  0.00  0.00    +0.000 A 
ATOM     13  O   UNL     1      46.610   3.122  13.749  0.00  0.00    +0.000 OA
ATOM     14  C   UNL     1      45.720   4.959  12.530  0.00  0.00    +0.000 A 
ATOM     15  H   UNL     1      45.098   1.727  12.424  0.00  0.00    +0.000 HD
ENDBRANCH   2   5
BRANCH   3  16
ATOM     16  C   UNL     1      48.748   6.068  15.931  0.00  0.00    +0.000 C 
BRANCH  16  17
ATOM     17  C   UNL     1      48.353   5.574  17.336  0.00  0.00    +0.000 C 
ATOM     18  C   UNL     1      49.539   5.290  18.267  0.00  0.00    +0.000 C 
ATOM     19  C   UNL     1      50.391   4.108  17.794  0.00  0.00    +0.000 C 
ATOM     20  N   UNL     1      49.607   2.878  17.577  0.00  0.00    +0.000 NA
ATOM     21  C   UNL     1      48.413   3.113  16.739  0.00  0.00    +0.000 C 
ATOM     22  C   UNL     1      47.547   4.274  17.241  0.00  0.00    +0.000 C 
BRANCH  20  23
ATOM     23  C   UNL     1      50.431   1.819  16.936  0.00  0.00    +0.000 C 
BRANCH  23  24
ATOM     24  C   UNL     1      51.774   1.545  17.630  0.00  0.00    +0.000 C 
BRANCH  24  25
ATOM     25  O   UNL     1      51.786   0.248  18.215  0.00  0.00    +0.000 OA
ATOM     26  H   UNL     1      52.045  -0.359  17.495  0.00  0.00    +0.000 HD
ENDBRANCH  24  25
ENDBRANCH  23  24
ENDBRANCH  20  23
ENDBRANCH  16  17
ENDBRANCH   3  16
TORSDOF 6
ENDMDL
MODEL 3
REMARK VINA RESULT:    -6.808      4.210      5.849
REMARK INTER + INTRA:          -9.586
REMARK INTER:                  -9.190
REMARK INTRA:                  -0.395
REMARK UNBOUND:                -0.589
REMARK  Name = 
REMARK  6 active torsions:
REMARK  status: ('A' for Active; 'I' for Inactive)
REMARK    1  A    between atoms: C_2  and  C_14
REMARK    2  A    between atoms: N_3  and  C_4
REMARK    3  A    between atoms: C_4  and  C_5
REMARK    4  A    between atoms: N_8  and  C_9
REMARK    5  A    between atoms: C_9  and  C_10
REMARK    6  A    between atoms: C_10  and  O_11
REMARK                            x       y       z     vdW  Elec       q    Type
REMARK                         _______ _______ _______ _____ _____    ______ ____
ROOT
ATOM      1  O   UNL     1      47.534   3.172  14.715  0.00  0.00    +0.000 OA
ATOM      2  C   UNL     1      47.288   4.340  15.003  0.00  0.00    +0.000 C 
ATOM      3  N   UNL     1      46.259   5.036  14.431  0.00  0.00    +0.000 N 
ATOM      4  H   UNL     1      46.104   6.004  14.695  0.00  0.00    +0.000 HD
ENDROOT
BRANCH   2   5
ATOM      5  C   UNL     1      48.071   5.070  16.010  0.00  0.00    +0.000 A 
ATOM      6  C   UNL     1      48.621   6.307  15.701  0.00  0.00    +0.000 A 
ATOM      7  S   UNL     1      49.457   7.029  17.002  0.00  0.00    +0.000 S 
ATOM      8  C   UNL     1      49.085   5.731  18.035  0.00  0.00    +0.000 A 
ATOM      9  N   UNL     1      49.463   5.744  19.343  0.00  0.00    +0.000 NA
ATOM     10  C   UNL     1      49.072   4.721  20.026  0.00  0.00    +0.000 A 
ATOM     11  N   UNL     1      48.361   3.667  19.511  0.00  0.00    +0.000 N 
ATOM     12  C   UNL     1      48.078   3.552  18.176  0.00  0.00    +0.000 A 
ATOM     13  O   UNL     1      47.646   2.497  17.716  0.00  0.00    +0.000 OA
ATOM     14  C   UNL     1      48.387   4.731  17.381  0.00  0.00    +0.000 A 
ATOM     15  H   UNL     1      48.145   2.865  20.083  0.00  0.00    +0.000 HD
ENDBRANCH   2   5
BRANCH   3  16
ATOM     16  C   UNL     1      45.372   4.515  13.421  0.00  0.00    +0.000 C 
BRANCH  16  17
ATOM     17  C   UNL     1      44.452   5.594  12.816  0.00  0.00    +0.000 C 
ATOM     18  C   UNL     1      43.135   5.057  12.241  0.00  0.00    +0.000 C 
ATOM     19  C   UNL     1      43.347   4.164  11.015  0.00  0.00    +0.000 C 
ATOM     20  N   UNL     1      44.141   4.813   9.955  0.00  0.00    +0.000 NA
ATOM     21  C   UNL     1      45.391   5.407  10.471  0.00  0.00    +0.000 C 
ATOM     22  C   UNL     1      45.164   6.328  11.675  0.00  0.00    +0.000 C 
BRANCH  20  23
ATOM     23  C   UNL     1      44.486   3.852   8.874  0.00  0.00    +0.000 C 
BRANCH  23  24
ATOM     24  C   UNL     1      44.595   2.388   9.329  0.00  0.00    +0.000 C 
BRANCH  24  25
ATOM     25  O   UNL     1      45.722   1.755   8.732  0.00  0.00    +0.000 OA
ATOM     26  H   UNL     1      46.444   1.846   9.383  0.00  0.00    +0.000 HD
ENDBRANCH  24  25
ENDBRANCH  23  24
ENDBRANCH  20  23
ENDBRANCH  16  17
ENDBRANCH   3  16
TORSDOF 6
ENDMDL
MODEL 4
REMARK VINA RESULT:    -6.783      3.318      5.099
REMARK INTER + INTRA:          -9.554
REMARK INTER:                  -8.741
REMARK INTRA:                  -0.813
REMARK UNBOUND:                -0.589
REMARK  Name = 
REMARK  6 active torsions:
REMARK  status: ('A' for Active; 'I' for Inactive)
REMARK    1  A    between atoms: C_2  and  C_14
REMARK    2  A    between atoms: N_3  and  C_4
REMARK    3  A    between atoms: C_4  and  C_5
REMARK    4  A    between atoms: N_8  and  C_9
REMARK    5  A    between atoms: C_9  and  C_10
REMARK    6  A    between atoms: C_10  and  O_11
REMARK                            x       y       z     vdW  Elec       q    Type
REMARK                         _______ _______ _______ _____ _____    ______ ____
ROOT
ATOM      1  O   UNL     1      47.983   6.689  12.567  0.00  0.00    +0.000 OA
ATOM      2  C   UNL     1      47.371   6.398  13.592  0.00  0.00    +0.000 C 
ATOM      3  N   UNL     1      46.018   6.195  13.606  0.00  0.00    +0.000 N 
ATOM      4  H   UNL     1      45.558   5.967  14.481  0.00  0.00    +0.000 HD
ENDROOT
BRANCH   2   5
ATOM      5  C   UNL     1      48.058   6.222  14.879  0.00  0.00    +0.000 A 
ATOM      6  C   UNL     1      48.830   7.250  15.401  0.00  0.00    +0.000 A 
ATOM      7  S   UNL     1      49.514   6.888  16.923  0.00  0.00    +0.000 S 
ATOM      8  C   UNL     1      48.773   5.358  16.954  0.00  0.00    +0.000 A 
ATOM      9  N   UNL     1      48.905   4.535  18.031  0.00  0.00    +0.000 NA
ATOM     10  C   UNL     1      48.251   3.427  17.945  0.00  0.00    +0.000 A 
ATOM     11  N   UNL     1      47.497   3.050  16.862  0.00  0.00    +0.000 N 
ATOM     12  C   UNL     1      47.447   3.785  15.708  0.00  0.00    +0.000 A 
ATOM     13  O   UNL     1      46.956   3.313  14.686  0.00  0.00    +0.000 OA
ATOM     14  C   UNL     1      48.066   5.100  15.793  0.00  0.00    +0.000 A 
ATOM     15  H   UNL     1      47.065   2.139  16.829  0.00  0.00    +0.000 HD
ENDBRANCH   2   5
BRANCH   3  16
ATOM     16  C   UNL     1      45.153   6.321  12.459  0.00  0.00    +0.000 C 
BRANCH  16  17
ATOM     17  C   UNL     1      43.845   5.519  12.604  0.00  0.00    +0.000 C 
ATOM     18  C   UNL     1      44.044   4.032  12.924  0.00  0.00    +0.000 C 
ATOM     19  C   UNL     1      44.706   3.264  11.776  0.00  0.00    +0.000 C 
ATOM     20  N   UNL     1      44.001   3.420  10.491  0.00  0.00    +0.000 NA
ATOM     21  C   UNL     1      43.725   4.835  10.168  0.00  0.00    +0.000 C 
ATOM     22  C   UNL     1      43.028   5.586  11.309  0.00  0.00    +0.000 C 
BRANCH  20  23
ATOM     23  C   UNL     1      44.779   2.825   9.372  0.00  0.00    +0.000 C 
BRANCH  23  24
ATOM     24  C   UNL     1      44.763   3.646   8.073  0.00  0.00    +0.000 C 
BRANCH  24  25
ATOM     25  O   UNL     1      46.049   4.192   7.803  0.00  0.00    +0.000 OA
ATOM     26  H   UNL     1      45.881   5.088   7.452  0.00  0.00    +0.000 HD
ENDBRANCH  24  25
ENDBRANCH  23  24
ENDBRANCH  20  23
ENDBRANCH  16  17
ENDBRANCH   3  16
TORSDOF 6
ENDMDL
MODEL 5
REMARK VINA RESULT:    -6.243      4.439      8.510
REMARK INTER + INTRA:          -8.839
REMARK INTER:                  -7.973
REMARK INTRA:                  -0.867
REMARK UNBOUND:                -0.589
REMARK  Name = 
REMARK  6 active torsions:
REMARK  status: ('A' for Active; 'I' for Inactive)
REMARK    1  A    between atoms: C_2  and  C_14
REMARK    2  A    between atoms: N_3  and  C_4
REMARK    3  A    between atoms: C_4  and  C_5
REMARK    4  A    between atoms: N_8  and  C_9
REMARK    5  A    between atoms: C_9  and  C_10
REMARK    6  A    between atoms: C_10  and  O_11
REMARK                            x       y       z     vdW  Elec       q    Type
REMARK                         _______ _______ _______ _____ _____    ______ ____
ROOT
ATOM      1  O   UNL     1      49.120   6.713  13.475  0.00  0.00    +0.000 OA
ATOM      2  C   UNL     1      48.046   6.361  13.955  0.00  0.00    +0.000 C 
ATOM      3  N   UNL     1      47.895   6.071  15.283  0.00  0.00    +0.000 N 
ATOM      4  H   UNL     1      46.988   5.773  15.628  0.00  0.00    +0.000 HD
ENDROOT
BRANCH   2   5
ATOM      5  C   UNL     1      46.832   6.250  13.134  0.00  0.00    +0.000 A 
ATOM      6  C   UNL     1      46.300   7.378  12.523  0.00  0.00    +0.000 A 
ATOM      7  S   UNL     1      44.920   7.055  11.573  0.00  0.00    +0.000 S 
ATOM      8  C   UNL     1      45.004   5.391  11.915  0.00  0.00    +0.000 A 
ATOM      9  N   UNL     1      44.128   4.513  11.353  0.00  0.00    +0.000 NA
ATOM     10  C   UNL     1      44.336   3.277  11.657  0.00  0.00    +0.000 A 
ATOM     11  N   UNL     1      45.327   2.838  12.499  0.00  0.00    +0.000 N 
ATOM     12  C   UNL     1      46.141   3.697  13.187  0.00  0.00    +0.000 A 
ATOM     13  O   UNL     1      46.856   3.287  14.098  0.00  0.00    +0.000 OA
ATOM     14  C   UNL     1      46.032   5.093  12.792  0.00  0.00    +0.000 A 
ATOM     15  H   UNL     1      45.393   1.864  12.750  0.00  0.00    +0.000 HD
ENDBRANCH   2   5
BRANCH   3  16
ATOM     16  C   UNL     1      48.953   6.111  16.262  0.00  0.00    +0.000 C 
BRANCH  16  17
ATOM     17  C   UNL     1      48.990   4.857  17.157  0.00  0.00    +0.000 C 
ATOM     18  C   UNL     1      47.629   4.445  17.731  0.00  0.00    +0.000 C 
ATOM     19  C   UNL     1      47.074   5.470  18.726  0.00  0.00    +0.000 C 
ATOM     20  N   UNL     1      48.015   5.788  19.816  0.00  0.00    +0.000 NA
ATOM     21  C   UNL     1      49.363   6.126  19.316  0.00  0.00    +0.000 C 
ATOM     22  C   UNL     1      49.925   5.076  18.351  0.00  0.00    +0.000 C 
BRANCH  20  23
ATOM     23  C   UNL     1      47.520   6.922  20.642  0.00  0.00    +0.000 C 
BRANCH  23  24
ATOM     24  C   UNL     1      48.010   8.306  20.188  0.00  0.00    +0.000 C 
BRANCH  24  25
ATOM     25  O   UNL     1      47.092   8.893  19.273  0.00  0.00    +0.000 OA
ATOM     26  H   UNL     1      47.293   8.484  18.408  0.00  0.00    +0.000 HD
ENDBRANCH  24  25
ENDBRANCH  23  24
ENDBRANCH  20  23
ENDBRANCH  16  17
ENDBRANCH   3  16
TORSDOF 6
ENDMDL
MODEL 6
REMARK VINA RESULT:    -6.093      4.158      7.131
REMARK INTER + INTRA:          -8.641
REMARK INTER:                  -8.340
REMARK INTRA:                  -0.301
REMARK UNBOUND:                -0.589
REMARK  Name = 
REMARK  6 active torsions:
REMARK  status: ('A' for Active; 'I' for Inactive)
REMARK    1  A    between atoms: C_2  and  C_14
REMARK    2  A    between atoms: N_3  and  C_4
REMARK    3  A    between atoms: C_4  and  C_5
REMARK    4  A    between atoms: N_8  and  C_9
REMARK    5  A    between atoms: C_9  and  C_10
REMARK    6  A    between atoms: C_10  and  O_11
REMARK                            x       y       z     vdW  Elec       q    Type
REMARK                         _______ _______ _______ _____ _____    ______ ____
ROOT
ATOM      1  O   UNL     1      47.206   3.193  13.793  0.00  0.00    +0.000 OA
ATOM      2  C   UNL     1      46.772   4.204  14.339  0.00  0.00    +0.000 C 
ATOM      3  N   UNL     1      46.866   4.408  15.687  0.00  0.00    +0.000 N 
ATOM      4  H   UNL     1      46.482   5.257  16.091  0.00  0.00    +0.000 HD
ENDROOT
BRANCH   2   5
ATOM      5  C   UNL     1      46.137   5.284  13.570  0.00  0.00    +0.000 A 
ATOM      6  C   UNL     1      46.817   6.476  13.355  0.00  0.00    +0.000 A 
ATOM      7  S   UNL     1      45.948   7.597  12.405  0.00  0.00    +0.000 S 
ATOM      8  C   UNL     1      44.648   6.517  12.218  0.00  0.00    +0.000 A 
ATOM      9  N   UNL     1      43.572   6.840  11.449  0.00  0.00    +0.000 NA
ATOM     10  C   UNL     1      42.682   5.911  11.353  0.00  0.00    +0.000 A 
ATOM     11  N   UNL     1      42.756   4.693  11.981  0.00  0.00    +0.000 N 
ATOM     12  C   UNL     1      43.753   4.382  12.867  0.00  0.00    +0.000 A 
ATOM     13  O   UNL     1      43.667   3.385  13.580  0.00  0.00    +0.000 OA
ATOM     14  C   UNL     1      44.845   5.342  12.922  0.00  0.00    +0.000 A 
ATOM     15  H   UNL     1      41.993   4.037  11.919  0.00  0.00    +0.000 HD
ENDBRANCH   2   5
BRANCH   3  16
ATOM     16  C   UNL     1      47.446   3.478  16.625  0.00  0.00    +0.000 C 
BRANCH  16  17
ATOM     17  C   UNL     1      47.798   4.130  17.976  0.00  0.00    +0.000 C 
ATOM     18  C   UNL     1      47.658   5.657  18.002  0.00  0.00    +0.000 C 
ATOM     19  C   UNL     1      48.672   6.358  17.092  0.00  0.00    +0.000 C 
ATOM     20  N   UNL     1      50.067   5.967  17.369  0.00  0.00    +0.000 NA
ATOM     21  C   UNL     1      50.241   4.502  17.422  0.00  0.00    +0.000 C 
ATOM     22  C   UNL     1      49.246   3.813  18.363  0.00  0.00    +0.000 C 
BRANCH  20  23
ATOM     23  C   UNL     1      50.994   6.516  16.344  0.00  0.00    +0.000 C 
BRANCH  23  24
ATOM     24  C   UNL     1      52.485   6.364  16.683  0.00  0.00    +0.000 C 
BRANCH  24  25
ATOM     25  O   UNL     1      53.286   6.497  15.514  0.00  0.00    +0.000 OA
ATOM     26  H   UNL     1      53.253   7.446  15.284  0.00  0.00    +0.000 HD
ENDBRANCH  24  25
ENDBRANCH  23  24
ENDBRANCH  20  23
ENDBRANCH  16  17
ENDBRANCH   3  16
TORSDOF 6
ENDMDL
MODEL 7
REMARK VINA RESULT:    -5.615      3.011      4.417
REMARK INTER + INTRA:          -8.009
REMARK INTER:                  -7.242
REMARK INTRA:                  -0.768
REMARK UNBOUND:                -0.589
REMARK  Name = 
REMARK  6 active torsions:
REMARK  status: ('A' for Active; 'I' for Inactive)
REMARK    1  A    between atoms: C_2  and  C_14
REMARK    2  A    between atoms: N_3  and  C_4
REMARK    3  A    between atoms: C_4  and  C_5
REMARK    4  A    between atoms: N_8  and  C_9
REMARK    5  A    between atoms: C_9  and  C_10
REMARK    6  A    between atoms: C_10  and  O_11
REMARK                            x       y       z     vdW  Elec       q    Type
REMARK                         _______ _______ _______ _____ _____    ______ ____
ROOT
ATOM      1  O   UNL     1      47.394   6.603  11.559  0.00  0.00    +0.000 OA
ATOM      2  C   UNL     1      47.085   7.164  12.607  0.00  0.00    +0.000 C 
ATOM      3  N   UNL     1      46.181   6.634  13.485  0.00  0.00    +0.000 N 
ATOM      4  H   UNL     1      45.952   7.143  14.333  0.00  0.00    +0.000 HD
ENDROOT
BRANCH   2   5
ATOM      5  C   UNL     1      47.690   8.443  13.006  0.00  0.00    +0.000 A 
ATOM      6  C   UNL     1      47.621   9.540  12.157  0.00  0.00    +0.000 A 
ATOM      7  S   UNL     1      48.334  10.950  12.802  0.00  0.00    +0.000 S 
ATOM      8  C   UNL     1      48.729  10.155  14.252  0.00  0.00    +0.000 A 
ATOM      9  N   UNL     1      49.320  10.824  15.281  0.00  0.00    +0.000 NA
ATOM     10  C   UNL     1      49.518  10.113  16.340  0.00  0.00    +0.000 A 
ATOM     11  N   UNL     1      49.206   8.782  16.455  0.00  0.00    +0.000 N 
ATOM     12  C   UNL     1      48.736   8.043  15.402  0.00  0.00    +0.000 A 
ATOM     13  O   UNL     1      48.685   6.818  15.472  0.00  0.00    +0.000 OA
ATOM     14  C   UNL     1      48.380   8.816  14.222  0.00  0.00    +0.000 A 
ATOM     15  H   UNL     1      49.449   8.268  17.287  0.00  0.00    +0.000 HD
ENDBRANCH   2   5
BRANCH   3  16
ATOM     16  C   UNL     1      45.468   5.396  13.288  0.00  0.00    +0.000 C 
BRANCH  16  17
ATOM     17  C   UNL     1      44.024   5.607  12.793  0.00  0.00    +0.000 C 
ATOM     18  C   UNL     1      43.100   4.399  12.996  0.00  0.00    +0.000 C 
ATOM     19  C   UNL     1      43.506   3.195  12.140  0.00  0.00    +0.000 C 
ATOM     20  N   UNL     1      43.621   3.516  10.705  0.00  0.00    +0.000 NA
ATOM     21  C   UNL     1      44.448   4.715  10.461  0.00  0.00    +0.000 C 
ATOM     22  C   UNL     1      44.012   5.925  11.294  0.00  0.00    +0.000 C 
BRANCH  20  23
ATOM     23  C   UNL     1      44.202   2.379   9.942  0.00  0.00    +0.000 C 
BRANCH  23  24
ATOM     24  C   UNL     1      45.176   2.788   8.827  0.00  0.00    +0.000 C 
BRANCH  24  25
ATOM     25  O   UNL     1      45.980   1.683   8.427  0.00  0.00    +0.000 OA
ATOM     26  H   UNL     1      46.535   1.472   9.204  0.00  0.00    +0.000 HD
ENDBRANCH  24  25
ENDBRANCH  23  24
ENDBRANCH  20  23
ENDBRANCH  16  17
ENDBRANCH   3  16
TORSDOF 6
ENDMDL
MODEL 8
REMARK VINA RESULT:    -5.494      2.532      3.559
REMARK INTER + INTRA:          -7.850
REMARK INTER:                  -7.644
REMARK INTRA:                  -0.206
REMARK UNBOUND:                -0.589
REMARK  Name = 
REMARK  6 active torsions:
REMARK  status: ('A' for Active; 'I' for Inactive)
REMARK    1  A    between atoms: C_2  and  C_14
REMARK    2  A    between atoms: N_3  and  C_4
REMARK    3  A    between atoms: C_4  and  C_5
REMARK    4  A    between atoms: N_8  and  C_9
REMARK    5  A    between atoms: C_9  and  C_10
REMARK    6  A    between atoms: C_10  and  O_11
REMARK                            x       y       z     vdW  Elec       q    Type
REMARK                         _______ _______ _______ _____ _____    ______ ____
ROOT
ATOM      1  O   UNL     1      46.699   6.028  11.396  0.00  0.00    +0.000 OA
ATOM      2  C   UNL     1      46.004   6.760  12.097  0.00  0.00    +0.000 C 
ATOM      3  N   UNL     1      45.118   6.271  13.017  0.00  0.00    +0.000 N 
ATOM      4  H   UNL     1      44.559   6.919  13.564  0.00  0.00    +0.000 HD
ENDROOT
BRANCH   2   5
ATOM      5  C   UNL     1      46.095   8.224  12.012  0.00  0.00    +0.000 A 
ATOM      6  C   UNL     1      44.965   8.975  11.714  0.00  0.00    +0.000 A 
ATOM      7  S   UNL     1      45.246  10.659  11.703  0.00  0.00    +0.000 S 
ATOM      8  C   UNL     1      46.879  10.446  12.130  0.00  0.00    +0.000 A 
ATOM      9  N   UNL     1      47.693  11.516  12.344  0.00  0.00    +0.000 NA
ATOM     10  C   UNL     1      48.893  11.213  12.711  0.00  0.00    +0.000 A 
ATOM     11  N   UNL     1      49.363   9.932  12.855  0.00  0.00    +0.000 N 
ATOM     12  C   UNL     1      48.618   8.833  12.521  0.00  0.00    +0.000 A 
ATOM     13  O   UNL     1      49.140   7.723  12.443  0.00  0.00    +0.000 OA
ATOM     14  C   UNL     1      47.222   9.109  12.218  0.00  0.00    +0.000 A 
ATOM     15  H   UNL     1      50.332   9.763  13.079  0.00  0.00    +0.000 HD
ENDBRANCH   2   5
BRANCH   3  16
ATOM     16  C   UNL     1      44.868   4.872  13.260  0.00  0.00    +0.000 C 
BRANCH  16  17
ATOM     17  C   UNL     1      43.446   4.437  12.855  0.00  0.00    +0.000 C 
ATOM     18  C   UNL     1      43.318   2.957  12.474  0.00  0.00    +0.000 C 
ATOM     19  C   UNL     1      44.082   2.610  11.192  0.00  0.00    +0.000 C 
ATOM     20  N   UNL     1      43.715   3.466  10.048  0.00  0.00    +0.000 NA
ATOM     21  C   UNL     1      43.758   4.904  10.385  0.00  0.00    +0.000 C 
ATOM     22  C   UNL     1      42.960   5.248  11.649  0.00  0.00    +0.000 C 
BRANCH  20  23
ATOM     23  C   UNL     1      44.612   3.228   8.886  0.00  0.00    +0.000 C 
BRANCH  23  24
ATOM     24  C   UNL     1      45.295   1.851   8.876  0.00  0.00    +0.000 C 
BRANCH  24  25
ATOM     25  O   UNL     1      46.424   1.853   8.009  0.00  0.00    +0.000 OA
ATOM     26  H   UNL     1      47.081   2.432   8.442  0.00  0.00    +0.000 HD
ENDBRANCH  24  25
ENDBRANCH  23  24
ENDBRANCH  20  23
ENDBRANCH  16  17
ENDBRANCH   3  16
TORSDOF 6
ENDMDL
MODEL 9
REMARK VINA RESULT:    -5.396      4.545      8.338
REMARK INTER + INTRA:          -7.721
REMARK INTER:                  -7.169
REMARK INTRA:                  -0.552
REMARK UNBOUND:                -0.589
REMARK  Name = 
REMARK  6 active torsions:
REMARK  status: ('A' for Active; 'I' for Inactive)
REMARK    1  A    between atoms: C_2  and  C_14
REMARK    2  A    between atoms: N_3  and  C_4
REMARK    3  A    between atoms: C_4  and  C_5
REMARK    4  A    between atoms: N_8  and  C_9
REMARK    5  A    between atoms: C_9  and  C_10
REMARK    6  A    between atoms: C_10  and  O_11
REMARK                            x       y       z     vdW  Elec       q    Type
REMARK                         _______ _______ _______ _____ _____    ______ ____
ROOT
ATOM      1  O   UNL     1      48.469   6.088  13.147  0.00  0.00    +0.000 OA
ATOM      2  C   UNL     1      47.532   5.560  13.740  0.00  0.00    +0.000 C 
ATOM      3  N   UNL     1      47.490   5.460  15.103  0.00  0.00    +0.000 N 
ATOM      4  H   UNL     1      46.698   5.004  15.545  0.00  0.00    +0.000 HD
ENDROOT
BRANCH   2   5
ATOM      5  C   UNL     1      46.370   5.018  13.023  0.00  0.00    +0.000 A 
ATOM      6  C   UNL     1      46.147   3.648  12.994  0.00  0.00    +0.000 A 
ATOM      7  S   UNL     1      44.729   3.202  12.156  0.00  0.00    +0.000 S 
ATOM      8  C   UNL     1      44.342   4.826  11.832  0.00  0.00    +0.000 A 
ATOM      9  N   UNL     1      43.192   5.158  11.183  0.00  0.00    +0.000 NA
ATOM     10  C   UNL     1      42.999   6.427  11.048  0.00  0.00    +0.000 A 
ATOM     11  N   UNL     1      43.867   7.398  11.479  0.00  0.00    +0.000 N 
ATOM     12  C   UNL     1      45.093   7.104  12.014  0.00  0.00    +0.000 A 
ATOM     13  O   UNL     1      45.933   7.985  12.175  0.00  0.00    +0.000 OA
ATOM     14  C   UNL     1      45.313   5.694  12.301  0.00  0.00    +0.000 A 
ATOM     15  H   UNL     1      43.689   8.370  11.281  0.00  0.00    +0.000 HD
ENDBRANCH   2   5
BRANCH   3  16
ATOM     16  C   UNL     1      48.524   5.920  15.997  0.00  0.00    +0.000 C 
BRANCH  16  17
ATOM     17  C   UNL     1      48.771   4.957  17.175  0.00  0.00    +0.000 C 
ATOM     18  C   UNL     1      47.594   4.827  18.149  0.00  0.00    +0.000 C 
ATOM     19  C   UNL     1      47.316   6.125  18.915  0.00  0.00    +0.000 C 
ATOM     20  N   UNL     1      48.503   6.650  19.614  0.00  0.00    +0.000 NA
ATOM     21  C   UNL     1      49.687   6.731  18.734  0.00  0.00    +0.000 C 
ATOM     22  C   UNL     1      49.978   5.417  17.999  0.00  0.00    +0.000 C 
BRANCH  20  23
ATOM     23  C   UNL     1      48.243   8.001  20.179  0.00  0.00    +0.000 C 
BRANCH  23  24
ATOM     24  C   UNL     1      47.373   8.908  19.295  0.00  0.00    +0.000 C 
BRANCH  24  25
ATOM     25  O   UNL     1      46.561   9.763  20.092  0.00  0.00    +0.000 OA
ATOM     26  H   UNL     1      46.313   9.230  20.873  0.00  0.00    +0.000 HD
ENDBRANCH  24  25
ENDBRANCH  23  24
ENDBRANCH  20  23
ENDBRANCH  16  17
ENDBRANCH   3  16
TORSDOF 6
ENDMDL
