MODEL 1
REMARK VINA RESULT:    -8.021      0.000      0.000
REMARK INTER + INTRA:         -11.583
REMARK INTER:                 -10.835
REMARK INTRA:                  -0.748
REMARK UNBOUND:                -0.748
REMARK  Name = 
REMARK  7 active torsions:
REMARK  status: ('A' for Active; 'I' for Inactive)
REMARK    1  A    between atoms: N_1  and  C_2
REMARK    2  A    between atoms: C_2  and  C_3
REMARK    3  A    between atoms: C_3  and  C_4
REMARK    4  A    between atoms: C_7  and  C_8
REMARK    5  A    between atoms: C_8  and  C_9
REMARK    6  A    between atoms: C_14  and  C_15
REMARK    7  A    between atoms: C_15  and  O_17
REMARK                            x       y       z     vdW  Elec       q    Type
REMARK                         _______ _______ _______ _____ _____    ______ ____
ROOT
ATOM      1  C   UNL     1      44.442   4.849  11.710  0.00  0.00    +0.000 A 
ATOM      2  C   UNL     1      44.204   4.125  12.900  0.00  0.00    +0.000 A 
ATOM      3  N   UNL     1      45.100   4.369  13.857  0.00  0.00    +0.000 NA
ATOM      4  N   UNL     1      45.976   5.239  13.297  0.00  0.00    +0.000 N 
ATOM      5  C   UNL     1      47.163   5.711  13.853  0.00  0.00    +0.000 A 
ATOM      6  C   UNL     1      47.956   6.552  13.158  0.00  0.00    +0.000 A 
ATOM      7  C   UNL     1      47.522   6.965  11.826  0.00  0.00    +0.000 A 
ATOM      8  C   UNL     1      46.375   6.515  11.285  0.00  0.00    +0.000 A 
ATOM      9  C   UNL     1      45.567   5.593  12.007  0.00  0.00    +0.000 A 
ENDROOT
BRANCH   6  10
ATOM     10  C   UNL     1      49.252   6.932  13.782  0.00  0.00    +0.000 C 
ATOM     11  O   UNL     1      49.504   6.771  14.964  0.00  0.00    +0.000 OA
BRANCH  10  12
ATOM     12  O   UNL     1      50.141   7.478  12.928  0.00  0.00    +0.000 OA
ATOM     13  H   UNL     1      51.066   7.474  13.226  0.00  0.00    +0.000 HD
ENDBRANCH  10  12
ENDBRANCH   6  10
BRANCH   1  14
ATOM     14  C   UNL     1      43.716   4.727  10.414  0.00  0.00    +0.000 C 
BRANCH  14  18
ATOM     15  C   UNL     1      46.124   2.211   7.831  0.00  0.00    +0.000 A 
ATOM     16  C   UNL     1      46.143   3.602   7.685  0.00  0.00    +0.000 A 
ATOM     17  C   UNL     1      45.355   4.417   8.507  0.00  0.00    +0.000 A 
ATOM     18  C   UNL     1      44.534   3.854   9.498  0.00  0.00    +0.000 A 
ATOM     19  C   UNL     1      44.531   2.462   9.649  0.00  0.00    +0.000 A 
ATOM     20  C   UNL     1      45.318   1.648   8.828  0.00  0.00    +0.000 A 
BRANCH  15  21
ATOM     21  C   UNL     1      46.953   1.325   6.930  0.00  0.00    +0.000 C 
BRANCH  21  22
ATOM     22  C   UNL     1      48.294   1.958   6.545  0.00  0.00    +0.000 C 
BRANCH  22  23
ATOM     23  N   UNL     1      48.356   2.219   5.106  0.00  0.00    +0.000 NA
ATOM     24  H   UNL     1      49.332   2.232   4.808  0.00  0.00    +0.000 HD
ATOM     25  H   UNL     1      47.985   3.148   4.907  0.00  0.00    +0.000 HD
ENDBRANCH  22  23
ENDBRANCH  21  22
ENDBRANCH  15  21
ENDBRANCH  14  18
ENDBRANCH   1  14
TORSDOF 7
ENDMDL
MODEL 2
REMARK VINA RESULT:    -7.843      0.207      1.236
REMARK INTER + INTRA:         -11.343
REMARK INTER:                 -10.593
REMARK INTRA:                  -0.750
REMARK UNBOUND:                -0.748
REMARK  Name = 
REMARK  7 active torsions:
REMARK  status: ('A' for Active; 'I' for Inactive)
REMARK    1  A    between atoms: N_1  and  C_2
REMARK    2  A    between atoms: C_2  and  C_3
REMARK    3  A    between atoms: C_3  and  C_4
REMARK    4  A    between atoms: C_7  and  C_8
REMARK    5  A    between atoms: C_8  and  C_9
REMARK    6  A    between atoms: C_14  and  C_15
REMARK    7  A    between atoms: C_15  and  O_17
REMARK                            x       y       z     vdW  Elec       q    Type
REMARK                         _______ _______ _______ _____ _____    ______ ____
ROOT
ATOM      1  C   UNL     1      44.463   4.874  11.738  0.00  0.00    +0.000 A 
ATOM      2  C   UNL     1      44.225   4.134  12.918  0.00  0.00    +0.000 A 
ATOM      3  N   UNL     1      45.100   4.393  13.890  0.00  0.00    +0.000 NA
ATOM      4  N   UNL     1      45.962   5.290  13.350  0.00  0.00    +0.000 N 
ATOM      5  C   UNL     1      47.129   5.786  13.929  0.00  0.00    +0.000 A 
ATOM      6  C   UNL     1      47.911   6.653  13.253  0.00  0.00    +0.000 A 
ATOM      7  C   UNL     1      47.486   7.066  11.917  0.00  0.00    +0.000 A 
ATOM      8  C   UNL     1      46.359   6.592  11.355  0.00  0.00    +0.000 A 
ATOM      9  C   UNL     1      45.564   5.644  12.057  0.00  0.00    +0.000 A 
ENDROOT
BRANCH   6  10
ATOM     10  C   UNL     1      49.187   7.060  13.899  0.00  0.00    +0.000 C 
ATOM     11  O   UNL     1      49.956   7.875  13.419  0.00  0.00    +0.000 OA
BRANCH  10  12
ATOM     12  O   UNL     1      49.432   6.451  15.077  0.00  0.00    +0.000 OA
ATOM     13  H   UNL     1      49.042   6.876  15.859  0.00  0.00    +0.000 HD
ENDBRANCH  10  12
ENDBRANCH   6  10
BRANCH   1  14
ATOM     14  C   UNL     1      43.760   4.745  10.430  0.00  0.00    +0.000 C 
BRANCH  14  18
ATOM     15  C   UNL     1      46.160   2.309   7.763  0.00  0.00    +0.000 A 
ATOM     16  C   UNL     1      45.382   1.713   8.760  0.00  0.00    +0.000 A 
ATOM     17  C   UNL     1      44.617   2.498   9.633  0.00  0.00    +0.000 A 
ATOM     18  C   UNL     1      44.613   3.898   9.521  0.00  0.00    +0.000 A 
ATOM     19  C   UNL     1      45.382   4.487   8.511  0.00  0.00    +0.000 A 
ATOM     20  C   UNL     1      46.146   3.704   7.638  0.00  0.00    +0.000 A 
BRANCH  15  21
ATOM     21  C   UNL     1      47.006   1.471   6.833  0.00  0.00    +0.000 C 
BRANCH  21  22
ATOM     22  C   UNL     1      48.296   2.178   6.404  0.00  0.00    +0.000 C 
BRANCH  22  23
ATOM     23  N   UNL     1      48.263   2.507   4.978  0.00  0.00    +0.000 NA
ATOM     24  H   UNL     1      49.190   2.360   4.577  0.00  0.00    +0.000 HD
ATOM     25  H   UNL     1      48.055   3.498   4.856  0.00  0.00    +0.000 HD
ENDBRANCH  22  23
ENDBRANCH  21  22
ENDBRANCH  15  21
ENDBRANCH  14  18
ENDBRANCH   1  14
TORSDOF 7
ENDMDL
MODEL 3
REMARK VINA RESULT:    -7.740      1.563      2.112
REMARK INTER + INTRA:         -11.204
REMARK INTER:                 -10.478
REMARK INTRA:                  -0.726
REMARK UNBOUND:                -0.748
REMARK  Name = 
REMARK  7 active torsions:
REMARK  status: ('A' for Active; 'I' for Inactive)
REMARK    1  A    between atoms: N_1  and  C_2
REMARK    2  A    between atoms: C_2  and  C_3
REMARK    3  A    between atoms: C_3  and  C_4
REMARK    4  A    between atoms: C_7  and  C_8
REMARK    5  A    between atoms: C_8  and  C_9
REMARK    6  A    between atoms: C_14  and  C_15
REMARK    7  A    between atoms: C_15  and  O_17
REMARK                            x       y       z     vdW  Elec       q    Type
REMARK                         _______ _______ _______ _____ _____    ______ ____
ROOT
ATOM      1  C   UNL     1      44.666   5.569  11.277  0.00  0.00    +0.000 A 
ATOM      2  C   UNL     1      44.797   6.972  11.390  0.00  0.00    +0.000 A 
ATOM      3  N   UNL     1      45.631   7.349  12.360  0.00  0.00    +0.000 NA
ATOM      4  N   UNL     1      46.040   6.191  12.934  0.00  0.00    +0.000 N 
ATOM      5  C   UNL     1      46.831   6.052  14.073  0.00  0.00    +0.000 A 
ATOM      6  C   UNL     1      47.130   4.827  14.552  0.00  0.00    +0.000 A 
ATOM      7  C   UNL     1      46.620   3.663  13.831  0.00  0.00    +0.000 A 
ATOM      8  C   UNL     1      45.858   3.791  12.730  0.00  0.00    +0.000 A 
ATOM      9  C   UNL     1      45.511   5.088  12.257  0.00  0.00    +0.000 A 
ENDROOT
BRANCH   6  10
ATOM     10  C   UNL     1      47.897   4.766  15.825  0.00  0.00    +0.000 C 
ATOM     11  O   UNL     1      48.426   3.751  16.244  0.00  0.00    +0.000 OA
BRANCH  10  12
ATOM     12  O   UNL     1      47.964   5.936  16.490  0.00  0.00    +0.000 OA
ATOM     13  H   UNL     1      47.257   6.574  16.291  0.00  0.00    +0.000 HD
ENDBRANCH  10  12
ENDBRANCH   6  10
BRANCH   1  14
ATOM     14  C   UNL     1      43.734   4.815  10.392  0.00  0.00    +0.000 C 
BRANCH  14  18
ATOM     15  C   UNL     1      46.151   2.238   7.876  0.00  0.00    +0.000 A 
ATOM     16  C   UNL     1      46.239   3.628   7.760  0.00  0.00    +0.000 A 
ATOM     17  C   UNL     1      45.449   4.464   8.560  0.00  0.00    +0.000 A 
ATOM     18  C   UNL     1      44.556   3.921   9.499  0.00  0.00    +0.000 A 
ATOM     19  C   UNL     1      44.483   2.529   9.622  0.00  0.00    +0.000 A 
ATOM     20  C   UNL     1      45.273   1.694   8.823  0.00  0.00    +0.000 A 
BRANCH  15  21
ATOM     21  C   UNL     1      46.982   1.331   6.999  0.00  0.00    +0.000 C 
BRANCH  21  22
ATOM     22  C   UNL     1      48.310   1.968   6.577  0.00  0.00    +0.000 C 
BRANCH  22  23
ATOM     23  N   UNL     1      48.341   2.205   5.132  0.00  0.00    +0.000 NA
ATOM     24  H   UNL     1      47.871   1.436   4.654  0.00  0.00    +0.000 HD
ATOM     25  H   UNL     1      49.306   2.198   4.802  0.00  0.00    +0.000 HD
ENDBRANCH  22  23
ENDBRANCH  21  22
ENDBRANCH  15  21
ENDBRANCH  14  18
ENDBRANCH   1  14
TORSDOF 7
ENDMDL
MODEL 4
REMARK VINA RESULT:    -6.996      3.585      6.661
REMARK INTER + INTRA:         -10.198
REMARK INTER:                  -9.506
REMARK INTRA:                  -0.692
REMARK UNBOUND:                -0.748
REMARK  Name = 
REMARK  7 active torsions:
REMARK  status: ('A' for Active; 'I' for Inactive)
REMARK    1  A    between atoms: N_1  and  C_2
REMARK    2  A    between atoms: C_2  and  C_3
REMARK    3  A    between atoms: C_3  and  C_4
REMARK    4  A    between atoms: C_7  and  C_8
REMARK    5  A    between atoms: C_8  and  C_9
REMARK    6  A    between atoms: C_14  and  C_15
REMARK    7  A    between atoms: C_15  and  O_17
REMARK                            x       y       z     vdW  Elec       q    Type
REMARK                         _______ _______ _______ _____ _____    ______ ____
ROOT
ATOM      1  C   UNL     1      44.139   4.155  10.350  0.00  0.00    +0.000 A 
ATOM      2  C   UNL     1      43.750   2.828  10.643  0.00  0.00    +0.000 A 
ATOM      3  N   UNL     1      44.395   1.915   9.915  0.00  0.00    +0.000 NA
ATOM      4  N   UNL     1      45.202   2.632   9.095  0.00  0.00    +0.000 N 
ATOM      5  C   UNL     1      45.996   2.143   8.060  0.00  0.00    +0.000 A 
ATOM      6  C   UNL     1      46.724   2.986   7.300  0.00  0.00    +0.000 A 
ATOM      7  C   UNL     1      46.670   4.413   7.611  0.00  0.00    +0.000 A 
ATOM      8  C   UNL     1      45.907   4.891   8.611  0.00  0.00    +0.000 A 
ATOM      9  C   UNL     1      45.107   3.999   9.378  0.00  0.00    +0.000 A 
ENDROOT
BRANCH   6  10
ATOM     10  C   UNL     1      47.468   2.397   6.156  0.00  0.00    +0.000 C 
ATOM     11  O   UNL     1      48.205   1.431   6.257  0.00  0.00    +0.000 OA
BRANCH  10  12
ATOM     12  O   UNL     1      47.263   3.021   4.978  0.00  0.00    +0.000 OA
ATOM     13  H   UNL     1      47.489   2.506   4.185  0.00  0.00    +0.000 HD
ENDBRANCH  10  12
ENDBRANCH   6  10
BRANCH   1  14
ATOM     14  C   UNL     1      43.542   5.412  10.882  0.00  0.00    +0.000 C 
BRANCH  14  18
ATOM     15  C   UNL     1      46.637   7.487  13.101  0.00  0.00    +0.000 A 
ATOM     16  C   UNL     1      46.408   6.124  13.309  0.00  0.00    +0.000 A 
ATOM     17  C   UNL     1      45.398   5.453  12.606  0.00  0.00    +0.000 A 
ATOM     18  C   UNL     1      44.601   6.136  11.673  0.00  0.00    +0.000 A 
ATOM     19  C   UNL     1      44.846   7.498  11.457  0.00  0.00    +0.000 A 
ATOM     20  C   UNL     1      45.854   8.167  12.160  0.00  0.00    +0.000 A 
BRANCH  15  21
ATOM     21  C   UNL     1      47.707   8.221  13.874  0.00  0.00    +0.000 C 
BRANCH  21  22
ATOM     22  C   UNL     1      48.631   7.278  14.651  0.00  0.00    +0.000 C 
BRANCH  22  23
ATOM     23  N   UNL     1      49.894   7.077  13.939  0.00  0.00    +0.000 NA
ATOM     24  H   UNL     1      50.339   7.981  13.780  0.00  0.00    +0.000 HD
ATOM     25  H   UNL     1      49.712   6.683  13.017  0.00  0.00    +0.000 HD
ENDBRANCH  22  23
ENDBRANCH  21  22
ENDBRANCH  15  21
ENDBRANCH  14  18
ENDBRANCH   1  14
TORSDOF 7
ENDMDL
MODEL 5
REMARK VINA RESULT:    -5.630      3.978      6.669
REMARK INTER + INTRA:          -8.354
REMARK INTER:                  -7.697
REMARK INTRA:                  -0.657
REMARK UNBOUND:                -0.748
REMARK  Name = 
REMARK  7 active torsions:
REMARK  status: ('A' for Active; 'I' for Inactive)
REMARK    1  A    between atoms: N_1  and  C_2
REMARK    2  A    between atoms: C_2  and  C_3
REMARK    3  A    between atoms: C_3  and  C_4
REMARK    4  A    between atoms: C_7  and  C_8
REMARK    5  A    between atoms: C_8  and  C_9
REMARK    6  A    between atoms: C_14  and  C_15
REMARK    7  A    between atoms: C_15  and  O_17
REMARK                            x       y       z     vdW  Elec       q    Type
REMARK                         _______ _______ _______ _____ _____    ______ ____
ROOT
ATOM      1  C   UNL     1      47.212   6.248  13.602  0.00  0.00    +0.000 A 
ATOM      2  C   UNL     1      47.508   5.258  14.566  0.00  0.00    +0.000 A 
ATOM      3  N   UNL     1      46.984   4.066  14.279  0.00  0.00    +0.000 NA
ATOM      4  N   UNL     1      46.295   4.260  13.127  0.00  0.00    +0.000 N 
ATOM      5  C   UNL     1      45.472   3.343  12.478  0.00  0.00    +0.000 A 
ATOM      6  C   UNL     1      44.817   3.691  11.350  0.00  0.00    +0.000 A 
ATOM      7  C   UNL     1      45.017   5.041  10.828  0.00  0.00    +0.000 A 
ATOM      8  C   UNL     1      45.813   5.930  11.450  0.00  0.00    +0.000 A 
ATOM      9  C   UNL     1      46.464   5.568  12.662  0.00  0.00    +0.000 A 
ENDROOT
BRANCH   6  10
ATOM     10  C   UNL     1      43.884   2.689  10.771  0.00  0.00    +0.000 C 
ATOM     11  O   UNL     1      43.927   2.319   9.611  0.00  0.00    +0.000 OA
BRANCH  10  12
ATOM     12  O   UNL     1      42.971   2.212  11.642  0.00  0.00    +0.000 OA
ATOM     13  H   UNL     1      42.788   1.259  11.579  0.00  0.00    +0.000 HD
ENDBRANCH  10  12
ENDBRANCH   6  10
BRANCH   1  14
ATOM     14  C   UNL     1      47.533   7.702  13.669  0.00  0.00    +0.000 C 
BRANCH  14  18
ATOM     15  C   UNL     1      51.467   8.228  11.921  0.00  0.00    +0.000 A 
ATOM     16  C   UNL     1      51.274   8.391  13.296  0.00  0.00    +0.000 A 
ATOM     17  C   UNL     1      50.002   8.237  13.863  0.00  0.00    +0.000 A 
ATOM     18  C   UNL     1      48.896   7.911  13.060  0.00  0.00    +0.000 A 
ATOM     19  C   UNL     1      49.098   7.734  11.687  0.00  0.00    +0.000 A 
ATOM     20  C   UNL     1      50.369   7.887  11.121  0.00  0.00    +0.000 A 
BRANCH  15  21
ATOM     21  C   UNL     1      52.832   8.417  11.301  0.00  0.00    +0.000 C 
BRANCH  21  22
ATOM     22  C   UNL     1      53.207   7.286  10.337  0.00  0.00    +0.000 C 
BRANCH  22  23
ATOM     23  N   UNL     1      53.892   6.201  11.043  0.00  0.00    +0.000 NA
ATOM     24  H   UNL     1      54.787   6.017  10.591  0.00  0.00    +0.000 HD
ATOM     25  H   UNL     1      53.350   5.341  10.963  0.00  0.00    +0.000 HD
ENDBRANCH  22  23
ENDBRANCH  21  22
ENDBRANCH  15  21
ENDBRANCH  14  18
ENDBRANCH   1  14
TORSDOF 7
ENDMDL
MODEL 6
REMARK VINA RESULT:    -5.555      4.160      6.670
REMARK INTER + INTRA:          -8.252
REMARK INTER:                  -7.581
REMARK INTRA:                  -0.671
REMARK UNBOUND:                -0.748
REMARK  Name = 
REMARK  7 active torsions:
REMARK  status: ('A' for Active; 'I' for Inactive)
REMARK    1  A    between atoms: N_1  and  C_2
REMARK    2  A    between atoms: C_2  and  C_3
REMARK    3  A    between atoms: C_3  and  C_4
REMARK    4  A    between atoms: C_7  and  C_8
REMARK    5  A    between atoms: C_8  and  C_9
REMARK    6  A    between atoms: C_14  and  C_15
REMARK    7  A    between atoms: C_15  and  O_17
REMARK                            x       y       z     vdW  Elec       q    Type
REMARK                         _______ _______ _______ _____ _____    ______ ____
ROOT
ATOM      1  C   UNL     1      45.683   7.935  12.776  0.00  0.00    +0.000 A 
ATOM      2  C   UNL     1      44.914   8.618  11.807  0.00  0.00    +0.000 A 
ATOM      3  N   UNL     1      44.118   7.814  11.100  0.00  0.00    +0.000 NA
ATOM      4  N   UNL     1      44.378   6.569  11.570  0.00  0.00    +0.000 N 
ATOM      5  C   UNL     1      43.885   5.364  11.073  0.00  0.00    +0.000 A 
ATOM      6  C   UNL     1      44.262   4.192  11.624  0.00  0.00    +0.000 A 
ATOM      7  C   UNL     1      45.179   4.230  12.762  0.00  0.00    +0.000 A 
ATOM      8  C   UNL     1      45.656   5.391  13.247  0.00  0.00    +0.000 A 
ATOM      9  C   UNL     1      45.288   6.620  12.631  0.00  0.00    +0.000 A 
ENDROOT
BRANCH   6  10
ATOM     10  C   UNL     1      43.768   2.948  10.977  0.00  0.00    +0.000 C 
ATOM     11  O   UNL     1      44.047   2.627   9.834  0.00  0.00    +0.000 OA
BRANCH  10  12
ATOM     12  O   UNL     1      42.976   2.190  11.761  0.00  0.00    +0.000 OA
ATOM     13  H   UNL     1      42.020   2.296  11.620  0.00  0.00    +0.000 HD
ENDBRANCH  10  12
ENDBRANCH   6  10
BRANCH   1  14
ATOM     14  C   UNL     1      46.753   8.499  13.646  0.00  0.00    +0.000 C 
BRANCH  14  18
ATOM     15  C   UNL     1      50.417   8.516  11.327  0.00  0.00    +0.000 A 
ATOM     16  C   UNL     1      49.964   7.338  11.928  0.00  0.00    +0.000 A 
ATOM     17  C   UNL     1      48.789   7.332  12.691  0.00  0.00    +0.000 A 
ATOM     18  C   UNL     1      48.040   8.508  12.862  0.00  0.00    +0.000 A 
ATOM     19  C   UNL     1      48.491   9.681  12.245  0.00  0.00    +0.000 A 
ATOM     20  C   UNL     1      49.665   9.687  11.483  0.00  0.00    +0.000 A 
BRANCH  15  21
ATOM     21  C   UNL     1      51.697   8.535  10.523  0.00  0.00    +0.000 C 
BRANCH  21  22
ATOM     22  C   UNL     1      52.916   8.089  11.338  0.00  0.00    +0.000 C 
BRANCH  22  23
ATOM     23  N   UNL     1      53.413   6.793  10.873  0.00  0.00    +0.000 NA
ATOM     24  H   UNL     1      54.432   6.816  10.837  0.00  0.00    +0.000 HD
ATOM     25  H   UNL     1      53.098   6.626   9.917  0.00  0.00    +0.000 HD
ENDBRANCH  22  23
ENDBRANCH  21  22
ENDBRANCH  15  21
ENDBRANCH  14  18
ENDBRANCH   1  14
TORSDOF 7
ENDMDL
MODEL 7
REMARK VINA RESULT:    -5.469      2.466      3.826
REMARK INTER + INTRA:          -8.135
REMARK INTER:                  -7.518
REMARK INTRA:                  -0.617
REMARK UNBOUND:                -0.748
REMARK  Name = 
REMARK  7 active torsions:
REMARK  status: ('A' for Active; 'I' for Inactive)
REMARK    1  A    between atoms: N_1  and  C_2
REMARK    2  A    between atoms: C_2  and  C_3
REMARK    3  A    between atoms: C_3  and  C_4
REMARK    4  A    between atoms: C_7  and  C_8
REMARK    5  A    between atoms: C_8  and  C_9
REMARK    6  A    between atoms: C_14  and  C_15
REMARK    7  A    between atoms: C_15  and  O_17
REMARK                            x       y       z     vdW  Elec       q    Type
REMARK                         _______ _______ _______ _____ _____    ______ ____
ROOT
ATOM      1  C   UNL     1      46.953   7.035  13.136  0.00  0.00    +0.000 A 
ATOM      2  C   UNL     1      47.749   6.146  13.892  0.00  0.00    +0.000 A 
ATOM      3  N   UNL     1      49.045   6.460  13.887  0.00  0.00    +0.000 NA
ATOM      4  N   UNL     1      49.132   7.553  13.087  0.00  0.00    +0.000 N 
ATOM      5  C   UNL     1      50.296   8.194  12.667  0.00  0.00    +0.000 A 
ATOM      6  C   UNL     1      50.228   9.256  11.838  0.00  0.00    +0.000 A 
ATOM      7  C   UNL     1      48.907   9.719  11.418  0.00  0.00    +0.000 A 
ATOM      8  C   UNL     1      47.780   9.105  11.824  0.00  0.00    +0.000 A 
ATOM      9  C   UNL     1      47.863   7.958  12.662  0.00  0.00    +0.000 A 
ENDROOT
BRANCH   6  10
ATOM     10  C   UNL     1      51.516   9.825  11.358  0.00  0.00    +0.000 C 
ATOM     11  O   UNL     1      52.413   9.152  10.879  0.00  0.00    +0.000 OA
BRANCH  10  12
ATOM     12  O   UNL     1      51.618  11.162  11.495  0.00  0.00    +0.000 OA
ATOM     13  H   UNL     1      51.375  11.684  10.712  0.00  0.00    +0.000 HD
ENDBRANCH  10  12
ENDBRANCH   6  10
BRANCH   1  14
ATOM     14  C   UNL     1      45.499   6.913  12.831  0.00  0.00    +0.000 C 
BRANCH  14  18
ATOM     15  C   UNL     1      44.881   3.512  10.212  0.00  0.00    +0.000 A 
ATOM     16  C   UNL     1      44.629   3.406  11.583  0.00  0.00    +0.000 A 
ATOM     17  C   UNL     1      44.842   4.498  12.435  0.00  0.00    +0.000 A 
ATOM     18  C   UNL     1      45.307   5.722  11.927  0.00  0.00    +0.000 A 
ATOM     19  C   UNL     1      45.543   5.827  10.551  0.00  0.00    +0.000 A 
ATOM     20  C   UNL     1      45.330   4.736   9.700  0.00  0.00    +0.000 A 
BRANCH  15  21
ATOM     21  C   UNL     1      44.677   2.332   9.291  0.00  0.00    +0.000 C 
BRANCH  21  22
ATOM     22  C   UNL     1      45.814   2.165   8.278  0.00  0.00    +0.000 C 
BRANCH  22  23
ATOM     23  N   UNL     1      46.233   0.765   8.185  0.00  0.00    +0.000 NA
ATOM     24  H   UNL     1      47.073   0.627   8.746  0.00  0.00    +0.000 HD
ATOM     25  H   UNL     1      46.493   0.546   7.224  0.00  0.00    +0.000 HD
ENDBRANCH  22  23
ENDBRANCH  21  22
ENDBRANCH  15  21
ENDBRANCH  14  18
ENDBRANCH   1  14
TORSDOF 7
ENDMDL
MODEL 8
REMARK VINA RESULT:    -5.453      4.210      8.580
REMARK INTER + INTRA:          -8.114
REMARK INTER:                  -7.516
REMARK INTRA:                  -0.598
REMARK UNBOUND:                -0.748
REMARK  Name = 
REMARK  7 active torsions:
REMARK  status: ('A' for Active; 'I' for Inactive)
REMARK    1  A    between atoms: N_1  and  C_2
REMARK    2  A    between atoms: C_2  and  C_3
REMARK    3  A    between atoms: C_3  and  C_4
REMARK    4  A    between atoms: C_7  and  C_8
REMARK    5  A    between atoms: C_8  and  C_9
REMARK    6  A    between atoms: C_14  and  C_15
REMARK    7  A    between atoms: C_15  and  O_17
REMARK                            x       y       z     vdW  Elec       q    Type
REMARK                         _______ _______ _______ _____ _____    ______ ____
ROOT
ATOM      1  C   UNL     1      47.663   7.156  13.640  0.00  0.00    +0.000 A 
ATOM      2  C   UNL     1      47.178   8.395  13.162  0.00  0.00    +0.000 A 
ATOM      3  N   UNL     1      46.049   8.286  12.460  0.00  0.00    +0.000 NA
ATOM      4  N   UNL     1      45.787   6.956  12.430  0.00  0.00    +0.000 N 
ATOM      5  C   UNL     1      44.775   6.316  11.717  0.00  0.00    +0.000 A 
ATOM      6  C   UNL     1      44.657   4.972  11.756  0.00  0.00    +0.000 A 
ATOM      7  C   UNL     1      45.602   4.222  12.580  0.00  0.00    +0.000 A 
ATOM      8  C   UNL     1      46.579   4.836  13.273  0.00  0.00    +0.000 A 
ATOM      9  C   UNL     1      46.724   6.249  13.190  0.00  0.00    +0.000 A 
ENDROOT
BRANCH   6  10
ATOM     10  C   UNL     1      43.614   4.358  10.892  0.00  0.00    +0.000 C 
ATOM     11  O   UNL     1      43.461   4.640   9.716  0.00  0.00    +0.000 OA
BRANCH  10  12
ATOM     12  O   UNL     1      42.838   3.451  11.519  0.00  0.00    +0.000 OA
ATOM     13  H   UNL     1      43.022   2.521  11.303  0.00  0.00    +0.000 HD
ENDBRANCH  10  12
ENDBRANCH   6  10
BRANCH   1  14
ATOM     14  C   UNL     1      48.948   6.899  14.348  0.00  0.00    +0.000 C 
BRANCH  14  18
ATOM     15  C   UNL     1      48.155   6.345  18.575  0.00  0.00    +0.000 A 
ATOM     16  C   UNL     1      48.093   5.261  17.695  0.00  0.00    +0.000 A 
ATOM     17  C   UNL     1      48.334   5.439  16.326  0.00  0.00    +0.000 A 
ATOM     18  C   UNL     1      48.647   6.708  15.812  0.00  0.00    +0.000 A 
ATOM     19  C   UNL     1      48.723   7.787  16.702  0.00  0.00    +0.000 A 
ATOM     20  C   UNL     1      48.483   7.609  18.069  0.00  0.00    +0.000 A 
BRANCH  15  21
ATOM     21  C   UNL     1      47.873   6.166  20.049  0.00  0.00    +0.000 C 
BRANCH  21  22
ATOM     22  C   UNL     1      48.917   5.292  20.751  0.00  0.00    +0.000 C 
BRANCH  22  23
ATOM     23  N   UNL     1      48.424   3.924  20.925  0.00  0.00    +0.000 NA
ATOM     24  H   UNL     1      47.900   3.863  21.798  0.00  0.00    +0.000 HD
ATOM     25  H   UNL     1      49.212   3.283  21.021  0.00  0.00    +0.000 HD
ENDBRANCH  22  23
ENDBRANCH  21  22
ENDBRANCH  15  21
ENDBRANCH  14  18
ENDBRANCH   1  14
TORSDOF 7
ENDMDL
MODEL 9
REMARK VINA RESULT:    -5.361      4.290      6.345
REMARK INTER + INTRA:          -7.990
REMARK INTER:                  -7.292
REMARK INTRA:                  -0.698
REMARK UNBOUND:                -0.748
REMARK  Name = 
REMARK  7 active torsions:
REMARK  status: ('A' for Active; 'I' for Inactive)
REMARK    1  A    between atoms: N_1  and  C_2
REMARK    2  A    between atoms: C_2  and  C_3
REMARK    3  A    between atoms: C_3  and  C_4
REMARK    4  A    between atoms: C_7  and  C_8
REMARK    5  A    between atoms: C_8  and  C_9
REMARK    6  A    between atoms: C_14  and  C_15
REMARK    7  A    between atoms: C_15  and  O_17
REMARK                            x       y       z     vdW  Elec       q    Type
REMARK                         _______ _______ _______ _____ _____    ______ ____
ROOT
ATOM      1  C   UNL     1      48.684   7.247  15.149  0.00  0.00    +0.000 A 
ATOM      2  C   UNL     1      48.535   8.583  15.584  0.00  0.00    +0.000 A 
ATOM      3  N   UNL     1      48.473   8.704  16.911  0.00  0.00    +0.000 NA
ATOM      4  N   UNL     1      48.542   7.433  17.378  0.00  0.00    +0.000 N 
ATOM      5  C   UNL     1      48.400   7.016  18.700  0.00  0.00    +0.000 A 
ATOM      6  C   UNL     1      48.459   5.705  19.012  0.00  0.00    +0.000 A 
ATOM      7  C   UNL     1      48.697   4.750  17.932  0.00  0.00    +0.000 A 
ATOM      8  C   UNL     1      48.837   5.148  16.654  0.00  0.00    +0.000 A 
ATOM      9  C   UNL     1      48.729   6.528  16.328  0.00  0.00    +0.000 A 
ENDROOT
BRANCH   6  10
ATOM     10  C   UNL     1      48.202   5.333  20.429  0.00  0.00    +0.000 C 
ATOM     11  O   UNL     1      49.017   4.765  21.136  0.00  0.00    +0.000 OA
BRANCH  10  12
ATOM     12  O   UNL     1      46.979   5.678  20.880  0.00  0.00    +0.000 OA
ATOM     13  H   UNL     1      46.695   6.584  20.672  0.00  0.00    +0.000 HD
ENDBRANCH  10  12
ENDBRANCH   6  10
BRANCH   1  14
ATOM     14  C   UNL     1      48.666   6.742  13.747  0.00  0.00    +0.000 C 
BRANCH  14  18
ATOM     15  C   UNL     1      44.743   5.114  12.874  0.00  0.00    +0.000 A 
ATOM     16  C   UNL     1      44.983   6.486  12.755  0.00  0.00    +0.000 A 
ATOM     17  C   UNL     1      46.245   7.018  13.051  0.00  0.00    +0.000 A 
ATOM     18  C   UNL     1      47.295   6.183  13.467  0.00  0.00    +0.000 A 
ATOM     19  C   UNL     1      47.052   4.808  13.570  0.00  0.00    +0.000 A 
ATOM     20  C   UNL     1      45.791   4.277  13.274  0.00  0.00    +0.000 A 
BRANCH  15  21
ATOM     21  C   UNL     1      43.377   4.537  12.581  0.00  0.00    +0.000 C 
BRANCH  21  22
ATOM     22  C   UNL     1      43.358   3.670  11.317  0.00  0.00    +0.000 C 
BRANCH  22  23
ATOM     23  N   UNL     1      43.023   2.282  11.639  0.00  0.00    +0.000 NA
ATOM     24  H   UNL     1      42.025   2.133  11.488  0.00  0.00    +0.000 HD
ATOM     25  H   UNL     1      43.190   2.107  12.630  0.00  0.00    +0.000 HD
ENDBRANCH  22  23
ENDBRANCH  21  22
ENDBRANCH  15  21
ENDBRANCH  14  18
ENDBRANCH   1  14
TORSDOF 7
ENDMDL
