MODEL 1
REMARK VINA RESULT:    -8.094      0.000      0.000
REMARK INTER + INTRA:         -11.684
REMARK INTER:                 -10.933
REMARK INTRA:                  -0.752
REMARK UNBOUND:                -0.752
REMARK  Name = 
REMARK  6 active torsions:
REMARK  status: ('A' for Active; 'I' for Inactive)
REMARK    1  A    between atoms: C_2  and  C_3
REMARK    2  A    between atoms: C_7  and  C_8
REMARK    3  A    between atoms: C_12  and  C_13
REMARK    4  A    between atoms: C_13  and  N_14
REMARK    5  A    between atoms: N_14  and  C_15
REMARK    6  A    between atoms: C_18  and  C_19
REMARK                            x       y       z     vdW  Elec       q    Type
REMARK                         _______ _______ _______ _____ _____    ______ ____
ROOT
ATOM      1  C   UNL     1      46.938   5.589  13.775  0.00  0.00    +0.000 A 
ATOM      2  C   UNL     1      47.494   6.690  13.109  0.00  0.00    +0.000 A 
ATOM      3  C   UNL     1      46.939   7.175  11.921  0.00  0.00    +0.000 A 
ATOM      4  C   UNL     1      45.809   6.568  11.373  0.00  0.00    +0.000 A 
ATOM      5  C   UNL     1      45.211   5.470  11.998  0.00  0.00    +0.000 A 
ATOM      6  C   UNL     1      45.791   5.013  13.200  0.00  0.00    +0.000 A 
ENDROOT
BRANCH   1  11
ATOM      7  C   UNL     1      48.908   5.286  17.021  0.00  0.00    +0.000 A 
ATOM      8  C   UNL     1      48.705   3.948  17.354  0.00  0.00    +0.000 A 
ATOM      9  C   UNL     1      47.923   3.143  16.530  0.00  0.00    +0.000 A 
ATOM     10  C   UNL     1      47.341   3.683  15.378  0.00  0.00    +0.000 A 
ATOM     11  C   UNL     1      47.530   5.029  15.015  0.00  0.00    +0.000 A 
ATOM     12  C   UNL     1      48.332   5.817  15.856  0.00  0.00    +0.000 A 
BRANCH   7  14
ATOM     13  N   UNL     1      50.374   6.800  18.533  0.00  0.00    +0.000 NA
ATOM     14  C   UNL     1      49.716   6.123  17.858  0.00  0.00    +0.000 C 
ENDBRANCH   7  14
ENDBRANCH   1  11
BRANCH   5  15
ATOM     15  C   UNL     1      43.974   4.769  11.453  0.00  0.00    +0.000 C 
ATOM     16  C   UNL     1      42.685   5.109  12.201  0.00  0.00    +0.000 C 
ATOM     17  C   UNL     1      43.224   3.721  12.246  0.00  0.00    +0.000 C 
BRANCH  15  18
ATOM     18  N   UNL     1      43.932   4.720   9.974  0.00  0.00    +0.000 N 
ATOM     19  H   UNL     1      43.698   5.609   9.536  0.00  0.00    +0.000 HD
BRANCH  18  20
ATOM     20  C   UNL     1      44.884   4.012   9.218  0.00  0.00    +0.000 A 
ATOM     21  C   UNL     1      45.008   2.635   9.156  0.00  0.00    +0.000 A 
ATOM     22  N   UNL     1      45.880   1.966   8.364  0.00  0.00    +0.000 NA
ATOM     23  C   UNL     1      46.647   2.733   7.567  0.00  0.00    +0.000 A 
ATOM     24  N   UNL     1      46.605   4.076   7.500  0.00  0.00    +0.000 NA
ATOM     25  C   UNL     1      45.714   4.674   8.322  0.00  0.00    +0.000 A 
BRANCH  23  26
ATOM     26  C   UNL     1      47.583   2.059   6.707  0.00  0.00    +0.000 C 
ATOM     27  N   UNL     1      48.344   1.513   6.014  0.00  0.00    +0.000 NA
ENDBRANCH  23  26
ENDBRANCH  18  20
ENDBRANCH  15  18
ENDBRANCH   5  15
TORSDOF 6
ENDMDL
MODEL 2
REMARK VINA RESULT:    -8.056      2.365      4.075
REMARK INTER + INTRA:         -11.634
REMARK INTER:                 -10.789
REMARK INTRA:                  -0.845
REMARK UNBOUND:                -0.752
REMARK  Name = 
REMARK  6 active torsions:
REMARK  status: ('A' for Active; 'I' for Inactive)
REMARK    1  A    between atoms: C_2  and  C_3
REMARK    2  A    between atoms: C_7  and  C_8
REMARK    3  A    between atoms: C_12  and  C_13
REMARK    4  A    between atoms: C_13  and  N_14
REMARK    5  A    between atoms: N_14  and  C_15
REMARK    6  A    between atoms: C_18  and  C_19
REMARK                            x       y       z     vdW  Elec       q    Type
REMARK                         _______ _______ _______ _____ _____    ______ ____
ROOT
ATOM      1  C   UNL     1      47.129   6.696  12.532  0.00  0.00    +0.000 A 
ATOM      2  C   UNL     1      47.537   5.925  13.628  0.00  0.00    +0.000 A 
ATOM      3  C   UNL     1      46.833   4.780  14.013  0.00  0.00    +0.000 A 
ATOM      4  C   UNL     1      45.701   4.379  13.304  0.00  0.00    +0.000 A 
ATOM      5  C   UNL     1      45.251   5.109  12.199  0.00  0.00    +0.000 A 
ATOM      6  C   UNL     1      45.992   6.253  11.833  0.00  0.00    +0.000 A 
ENDROOT
BRANCH   1  11
ATOM      7  C   UNL     1      49.865   9.089  11.393  0.00  0.00    +0.000 A 
ATOM      8  C   UNL     1      49.197  10.312  11.404  0.00  0.00    +0.000 A 
ATOM      9  C   UNL     1      47.856  10.363  11.774  0.00  0.00    +0.000 A 
ATOM     10  C   UNL     1      47.185   9.186  12.126  0.00  0.00    +0.000 A 
ATOM     11  C   UNL     1      47.834   7.937  12.126  0.00  0.00    +0.000 A 
ATOM     12  C   UNL     1      49.189   7.915  11.760  0.00  0.00    +0.000 A 
BRANCH   7  14
ATOM     13  N   UNL     1      52.368   8.978  10.721  0.00  0.00    +0.000 NA
ATOM     14  C   UNL     1      51.247   9.026  11.020  0.00  0.00    +0.000 C 
ENDBRANCH   7  14
ENDBRANCH   1  11
BRANCH   5  15
ATOM     15  C   UNL     1      44.027   4.721  11.382  0.00  0.00    +0.000 C 
ATOM     16  C   UNL     1      42.698   5.110  12.028  0.00  0.00    +0.000 C 
ATOM     17  C   UNL     1      43.042   3.671  11.849  0.00  0.00    +0.000 C 
BRANCH  15  18
ATOM     18  N   UNL     1      44.193   4.956   9.930  0.00  0.00    +0.000 N 
ATOM     19  H   UNL     1      44.202   5.940   9.666  0.00  0.00    +0.000 HD
BRANCH  18  20
ATOM     20  C   UNL     1      45.090   4.209   9.144  0.00  0.00    +0.000 A 
ATOM     21  C   UNL     1      45.127   2.828   9.048  0.00  0.00    +0.000 A 
ATOM     22  N   UNL     1      45.946   2.126   8.230  0.00  0.00    +0.000 NA
ATOM     23  C   UNL     1      46.750   2.863   7.442  0.00  0.00    +0.000 A 
ATOM     24  N   UNL     1      46.792   4.208   7.406  0.00  0.00    +0.000 NA
ATOM     25  C   UNL     1      45.949   4.839   8.254  0.00  0.00    +0.000 A 
BRANCH  23  26
ATOM     26  C   UNL     1      47.633   2.153   6.554  0.00  0.00    +0.000 C 
ATOM     27  N   UNL     1      48.345   1.574   5.836  0.00  0.00    +0.000 NA
ENDBRANCH  23  26
ENDBRANCH  18  20
ENDBRANCH  15  18
ENDBRANCH   5  15
TORSDOF 6
ENDMDL
MODEL 3
REMARK VINA RESULT:    -7.673      1.954      2.994
REMARK INTER + INTRA:         -11.115
REMARK INTER:                 -10.249
REMARK INTRA:                  -0.867
REMARK UNBOUND:                -0.752
REMARK  Name = 
REMARK  6 active torsions:
REMARK  status: ('A' for Active; 'I' for Inactive)
REMARK    1  A    between atoms: C_2  and  C_3
REMARK    2  A    between atoms: C_7  and  C_8
REMARK    3  A    between atoms: C_12  and  C_13
REMARK    4  A    between atoms: C_13  and  N_14
REMARK    5  A    between atoms: N_14  and  C_15
REMARK    6  A    between atoms: C_18  and  C_19
REMARK                            x       y       z     vdW  Elec       q    Type
REMARK                         _______ _______ _______ _____ _____    ______ ____
ROOT
ATOM      1  C   UNL     1      46.546   7.358  12.141  0.00  0.00    +0.000 A 
ATOM      2  C   UNL     1      45.655   8.393  11.826  0.00  0.00    +0.000 A 
ATOM      3  C   UNL     1      44.338   8.125  11.439  0.00  0.00    +0.000 A 
ATOM      4  C   UNL     1      43.882   6.809  11.361  0.00  0.00    +0.000 A 
ATOM      5  C   UNL     1      44.728   5.738  11.668  0.00  0.00    +0.000 A 
ATOM      6  C   UNL     1      46.047   6.046  12.064  0.00  0.00    +0.000 A 
ENDROOT
BRANCH   1  11
ATOM      7  C   UNL     1      49.786   7.491  14.140  0.00  0.00    +0.000 A 
ATOM      8  C   UNL     1      50.641   8.145  13.254  0.00  0.00    +0.000 A 
ATOM      9  C   UNL     1      50.170   8.538  12.004  0.00  0.00    +0.000 A 
ATOM     10  C   UNL     1      48.845   8.269  11.642  0.00  0.00    +0.000 A 
ATOM     11  C   UNL     1      47.959   7.613  12.515  0.00  0.00    +0.000 A 
ATOM     12  C   UNL     1      48.455   7.237  13.774  0.00  0.00    +0.000 A 
BRANCH   7  14
ATOM     13  N   UNL     1      50.643   6.758  16.475  0.00  0.00    +0.000 NA
ATOM     14  C   UNL     1      50.257   7.088  15.431  0.00  0.00    +0.000 C 
ENDBRANCH   7  14
ENDBRANCH   1  11
BRANCH   5  15
ATOM     15  C   UNL     1      44.289   4.282  11.607  0.00  0.00    +0.000 C 
ATOM     16  C   UNL     1      43.474   3.826  12.817  0.00  0.00    +0.000 C 
ATOM     17  C   UNL     1      44.818   3.236  12.564  0.00  0.00    +0.000 C 
BRANCH  15  18
ATOM     18  N   UNL     1      43.836   3.862  10.261  0.00  0.00    +0.000 N 
ATOM     19  H   UNL     1      43.098   4.446   9.870  0.00  0.00    +0.000 HD
BRANCH  18  20
ATOM     20  C   UNL     1      44.732   3.435   9.265  0.00  0.00    +0.000 A 
ATOM     21  C   UNL     1      45.423   4.257   8.390  0.00  0.00    +0.000 A 
ATOM     22  N   UNL     1      46.340   3.837   7.488  0.00  0.00    +0.000 NA
ATOM     23  C   UNL     1      46.597   2.516   7.492  0.00  0.00    +0.000 A 
ATOM     24  N   UNL     1      46.028   1.611   8.309  0.00  0.00    +0.000 NA
ATOM     25  C   UNL     1      45.119   2.104   9.180  0.00  0.00    +0.000 A 
BRANCH  23  26
ATOM     26  C   UNL     1      47.570   2.032   6.549  0.00  0.00    +0.000 C 
ATOM     27  N   UNL     1      48.360   1.643   5.785  0.00  0.00    +0.000 NA
ENDBRANCH  23  26
ENDBRANCH  18  20
ENDBRANCH  15  18
ENDBRANCH   5  15
TORSDOF 6
ENDMDL
MODEL 4
REMARK VINA RESULT:    -7.335      2.275      7.856
REMARK INTER + INTRA:         -10.659
REMARK INTER:                 -10.686
REMARK INTRA:                   0.027
REMARK UNBOUND:                -0.752
REMARK  Name = 
REMARK  6 active torsions:
REMARK  status: ('A' for Active; 'I' for Inactive)
REMARK    1  A    between atoms: C_2  and  C_3
REMARK    2  A    between atoms: C_7  and  C_8
REMARK    3  A    between atoms: C_12  and  C_13
REMARK    4  A    between atoms: C_13  and  N_14
REMARK    5  A    between atoms: N_14  and  C_15
REMARK    6  A    between atoms: C_18  and  C_19
REMARK                            x       y       z     vdW  Elec       q    Type
REMARK                         _______ _______ _______ _____ _____    ______ ____
ROOT
ATOM      1  C   UNL     1      45.154   4.539   9.498  0.00  0.00    +0.000 A 
ATOM      2  C   UNL     1      43.825   4.312   9.880  0.00  0.00    +0.000 A 
ATOM      3  C   UNL     1      43.237   5.030  10.926  0.00  0.00    +0.000 A 
ATOM      4  C   UNL     1      43.970   5.998  11.613  0.00  0.00    +0.000 A 
ATOM      5  C   UNL     1      45.298   6.269  11.271  0.00  0.00    +0.000 A 
ATOM      6  C   UNL     1      45.856   5.532  10.204  0.00  0.00    +0.000 A 
ENDROOT
BRANCH   1  11
ATOM      7  C   UNL     1      46.573   1.630   7.489  0.00  0.00    +0.000 A 
ATOM      8  C   UNL     1      47.123   2.285   6.389  0.00  0.00    +0.000 A 
ATOM      9  C   UNL     1      47.029   3.671   6.293  0.00  0.00    +0.000 A 
ATOM     10  C   UNL     1      46.379   4.397   7.297  0.00  0.00    +0.000 A 
ATOM     11  C   UNL     1      45.815   3.764   8.420  0.00  0.00    +0.000 A 
ATOM     12  C   UNL     1      45.933   2.367   8.498  0.00  0.00    +0.000 A 
BRANCH   7  14
ATOM     13  N   UNL     1      46.748  -0.950   7.689  0.00  0.00    +0.000 NA
ATOM     14  C   UNL     1      46.668   0.205   7.602  0.00  0.00    +0.000 C 
ENDBRANCH   7  14
ENDBRANCH   1  11
BRANCH   5  15
ATOM     15  C   UNL     1      46.147   7.316  11.978  0.00  0.00    +0.000 C 
ATOM     16  C   UNL     1      45.354   8.238  12.904  0.00  0.00    +0.000 C 
ATOM     17  C   UNL     1      46.015   8.795  11.689  0.00  0.00    +0.000 C 
BRANCH  15  18
ATOM     18  N   UNL     1      47.445   6.790  12.460  0.00  0.00    +0.000 N 
ATOM     19  H   UNL     1      48.206   7.467  12.425  0.00  0.00    +0.000 HD
BRANCH  18  20
ATOM     20  C   UNL     1      47.547   5.963  13.593  0.00  0.00    +0.000 A 
ATOM     21  C   UNL     1      48.248   6.257  14.750  0.00  0.00    +0.000 A 
ATOM     22  N   UNL     1      48.274   5.485  15.862  0.00  0.00    +0.000 NA
ATOM     23  C   UNL     1      47.525   4.369  15.812  0.00  0.00    +0.000 A 
ATOM     24  N   UNL     1      46.769   3.980  14.769  0.00  0.00    +0.000 NA
ATOM     25  C   UNL     1      46.796   4.800  13.694  0.00  0.00    +0.000 A 
BRANCH  23  26
ATOM     26  C   UNL     1      47.523   3.524  16.977  0.00  0.00    +0.000 C 
ATOM     27  N   UNL     1      47.518   2.839  17.920  0.00  0.00    +0.000 NA
ENDBRANCH  23  26
ENDBRANCH  18  20
ENDBRANCH  15  18
ENDBRANCH   5  15
TORSDOF 6
ENDMDL
MODEL 5
REMARK VINA RESULT:    -6.780      2.069      8.051
REMARK INTER + INTRA:          -9.910
REMARK INTER:                  -9.211
REMARK INTRA:                  -0.699
REMARK UNBOUND:                -0.752
REMARK  Name = 
REMARK  6 active torsions:
REMARK  status: ('A' for Active; 'I' for Inactive)
REMARK    1  A    between atoms: C_2  and  C_3
REMARK    2  A    between atoms: C_7  and  C_8
REMARK    3  A    between atoms: C_12  and  C_13
REMARK    4  A    between atoms: C_13  and  N_14
REMARK    5  A    between atoms: N_14  and  C_15
REMARK    6  A    between atoms: C_18  and  C_19
REMARK                            x       y       z     vdW  Elec       q    Type
REMARK                         _______ _______ _______ _____ _____    ______ ____
ROOT
ATOM      1  C   UNL     1      45.532   6.369  11.047  0.00  0.00    +0.000 A 
ATOM      2  C   UNL     1      44.528   7.306  11.328  0.00  0.00    +0.000 A 
ATOM      3  C   UNL     1      44.813   8.494  12.008  0.00  0.00    +0.000 A 
ATOM      4  C   UNL     1      46.115   8.773  12.420  0.00  0.00    +0.000 A 
ATOM      5  C   UNL     1      47.157   7.876  12.163  0.00  0.00    +0.000 A 
ATOM      6  C   UNL     1      46.835   6.692  11.466  0.00  0.00    +0.000 A 
ENDROOT
BRANCH   1  11
ATOM      7  C   UNL     1      45.478   3.610   8.421  0.00  0.00    +0.000 A 
ATOM      8  C   UNL     1      44.672   2.651   9.033  0.00  0.00    +0.000 A 
ATOM      9  C   UNL     1      44.150   2.894  10.301  0.00  0.00    +0.000 A 
ATOM     10  C   UNL     1      44.443   4.095  10.955  0.00  0.00    +0.000 A 
ATOM     11  C   UNL     1      45.251   5.083  10.363  0.00  0.00    +0.000 A 
ATOM     12  C   UNL     1      45.755   4.818   9.080  0.00  0.00    +0.000 A 
BRANCH   7  14
ATOM     13  N   UNL     1      46.455   3.182   6.058  0.00  0.00    +0.000 NA
ATOM     14  C   UNL     1      46.015   3.373   7.115  0.00  0.00    +0.000 C 
ENDBRANCH   7  14
ENDBRANCH   1  11
BRANCH   5  15
ATOM     15  C   UNL     1      48.599   8.126  12.582  0.00  0.00    +0.000 C 
ATOM     16  C   UNL     1      49.391   8.992  11.602  0.00  0.00    +0.000 C 
ATOM     17  C   UNL     1      49.774   7.567  11.811  0.00  0.00    +0.000 C 
BRANCH  15  18
ATOM     18  N   UNL     1      48.750   8.393  14.030  0.00  0.00    +0.000 N 
ATOM     19  H   UNL     1      48.307   9.256  14.342  0.00  0.00    +0.000 HD
BRANCH  18  20
ATOM     20  C   UNL     1      48.632   7.379  14.999  0.00  0.00    +0.000 A 
ATOM     21  C   UNL     1      48.221   6.078  14.763  0.00  0.00    +0.000 A 
ATOM     22  N   UNL     1      48.186   5.093  15.691  0.00  0.00    +0.000 NA
ATOM     23  C   UNL     1      48.620   5.435  16.918  0.00  0.00    +0.000 A 
ATOM     24  N   UNL     1      49.078   6.649  17.275  0.00  0.00    +0.000 NA
ATOM     25  C   UNL     1      49.080   7.582  16.297  0.00  0.00    +0.000 A 
BRANCH  23  26
ATOM     26  C   UNL     1      48.601   4.414  17.932  0.00  0.00    +0.000 C 
ATOM     27  N   UNL     1      48.583   3.584  18.751  0.00  0.00    +0.000 NA
ENDBRANCH  23  26
ENDBRANCH  18  20
ENDBRANCH  15  18
ENDBRANCH   5  15
TORSDOF 6
ENDMDL
MODEL 6
REMARK VINA RESULT:    -6.280      2.344      7.916
REMARK INTER + INTRA:          -9.234
REMARK INTER:                  -8.436
REMARK INTRA:                  -0.798
REMARK UNBOUND:                -0.752
REMARK  Name = 
REMARK  6 active torsions:
REMARK  status: ('A' for Active; 'I' for Inactive)
REMARK    1  A    between atoms: C_2  and  C_3
REMARK    2  A    between atoms: C_7  and  C_8
REMARK    3  A    between atoms: C_12  and  C_13
REMARK    4  A    between atoms: C_13  and  N_14
REMARK    5  A    between atoms: N_14  and  C_15
REMARK    6  A    between atoms: C_18  and  C_19
REMARK                            x       y       z     vdW  Elec       q    Type
REMARK                         _______ _______ _______ _____ _____    ______ ____
ROOT
ATOM      1  C   UNL     1      47.299   6.779  12.639  0.00  0.00    +0.000 A 
ATOM      2  C   UNL     1      48.204   7.300  11.703  0.00  0.00    +0.000 A 
ATOM      3  C   UNL     1      49.277   8.104  12.100  0.00  0.00    +0.000 A 
ATOM      4  C   UNL     1      49.471   8.402  13.448  0.00  0.00    +0.000 A 
ATOM      5  C   UNL     1      48.602   7.905  14.425  0.00  0.00    +0.000 A 
ATOM      6  C   UNL     1      47.536   7.090  13.989  0.00  0.00    +0.000 A 
ENDROOT
BRANCH   1  11
ATOM      7  C   UNL     1      44.832   4.791  10.525  0.00  0.00    +0.000 A 
ATOM      8  C   UNL     1      43.870   4.435  11.469  0.00  0.00    +0.000 A 
ATOM      9  C   UNL     1      44.023   4.834  12.794  0.00  0.00    +0.000 A 
ATOM     10  C   UNL     1      45.143   5.583  13.172  0.00  0.00    +0.000 A 
ATOM     11  C   UNL     1      46.130   5.958  12.241  0.00  0.00    +0.000 A 
ATOM     12  C   UNL     1      45.946   5.553  10.909  0.00  0.00    +0.000 A 
BRANCH   7  14
ATOM     13  N   UNL     1      44.566   4.068   8.049  0.00  0.00    +0.000 NA
ATOM     14  C   UNL     1      44.682   4.391   9.158  0.00  0.00    +0.000 C 
ENDBRANCH   7  14
ENDBRANCH   1  11
BRANCH   5  15
ATOM     15  C   UNL     1      48.763   8.191  15.911  0.00  0.00    +0.000 C 
ATOM     16  C   UNL     1      48.393   9.618  16.315  0.00  0.00    +0.000 C 
ATOM     17  C   UNL     1      49.803   9.153  16.442  0.00  0.00    +0.000 C 
BRANCH  15  18
ATOM     18  N   UNL     1      48.304   7.079  16.775  0.00  0.00    +0.000 N 
ATOM     19  H   UNL     1      47.294   6.952  16.787  0.00  0.00    +0.000 HD
BRANCH  18  20
ATOM     20  C   UNL     1      48.975   5.843  16.830  0.00  0.00    +0.000 A 
ATOM     21  C   UNL     1      50.317   5.662  17.119  0.00  0.00    +0.000 A 
ATOM     22  N   UNL     1      50.931   4.462  17.244  0.00  0.00    +0.000 NA
ATOM     23  C   UNL     1      50.137   3.385  17.098  0.00  0.00    +0.000 A 
ATOM     24  N   UNL     1      48.815   3.416  16.852  0.00  0.00    +0.000 NA
ATOM     25  C   UNL     1      48.273   4.649  16.737  0.00  0.00    +0.000 A 
BRANCH  23  26
ATOM     26  C   UNL     1      50.753   2.091  17.228  0.00  0.00    +0.000 C 
ATOM     27  N   UNL     1      51.249   1.042  17.337  0.00  0.00    +0.000 NA
ENDBRANCH  23  26
ENDBRANCH  18  20
ENDBRANCH  15  18
ENDBRANCH   5  15
TORSDOF 6
ENDMDL
MODEL 7
REMARK VINA RESULT:    -6.200      2.948      8.090
REMARK INTER + INTRA:          -9.127
REMARK INTER:                  -8.358
REMARK INTRA:                  -0.769
REMARK UNBOUND:                -0.752
REMARK  Name = 
REMARK  6 active torsions:
REMARK  status: ('A' for Active; 'I' for Inactive)
REMARK    1  A    between atoms: C_2  and  C_3
REMARK    2  A    between atoms: C_7  and  C_8
REMARK    3  A    between atoms: C_12  and  C_13
REMARK    4  A    between atoms: C_13  and  N_14
REMARK    5  A    between atoms: N_14  and  C_15
REMARK    6  A    between atoms: C_18  and  C_19
REMARK                            x       y       z     vdW  Elec       q    Type
REMARK                         _______ _______ _______ _____ _____    ______ ____
ROOT
ATOM      1  C   UNL     1      46.082   6.908  11.439  0.00  0.00    +0.000 A 
ATOM      2  C   UNL     1      45.195   7.821  12.026  0.00  0.00    +0.000 A 
ATOM      3  C   UNL     1      45.661   8.916  12.761  0.00  0.00    +0.000 A 
ATOM      4  C   UNL     1      47.031   9.123  12.923  0.00  0.00    +0.000 A 
ATOM      5  C   UNL     1      47.960   8.245  12.355  0.00  0.00    +0.000 A 
ATOM      6  C   UNL     1      47.455   7.157  11.612  0.00  0.00    +0.000 A 
ENDROOT
BRANCH   1  11
ATOM      7  C   UNL     1      44.403   3.590  10.610  0.00  0.00    +0.000 A 
ATOM      8  C   UNL     1      44.765   3.414   9.276  0.00  0.00    +0.000 A 
ATOM      9  C   UNL     1      45.549   4.373   8.640  0.00  0.00    +0.000 A 
ATOM     10  C   UNL     1      45.963   5.511   9.342  0.00  0.00    +0.000 A 
ATOM     11  C   UNL     1      45.614   5.716  10.689  0.00  0.00    +0.000 A 
ATOM     12  C   UNL     1      44.833   4.729  11.310  0.00  0.00    +0.000 A 
BRANCH   7  14
ATOM     13  N   UNL     1      42.957   1.808  11.817  0.00  0.00    +0.000 NA
ATOM     14  C   UNL     1      43.602   2.608  11.276  0.00  0.00    +0.000 C 
ENDBRANCH   7  14
ENDBRANCH   1  11
BRANCH   5  15
ATOM     15  C   UNL     1      49.466   8.420  12.491  0.00  0.00    +0.000 C 
ATOM     16  C   UNL     1      50.104   9.225  11.359  0.00  0.00    +0.000 C 
ATOM     17  C   UNL     1      50.444   7.784  11.527  0.00  0.00    +0.000 C 
BRANCH  15  18
ATOM     18  N   UNL     1      49.901   8.699  13.878  0.00  0.00    +0.000 N 
ATOM     19  H   UNL     1      49.417   9.481  14.316  0.00  0.00    +0.000 HD
BRANCH  18  20
ATOM     20  C   UNL     1      50.158   7.674  14.806  0.00  0.00    +0.000 A 
ATOM     21  C   UNL     1      51.356   7.461  15.468  0.00  0.00    +0.000 A 
ATOM     22  N   UNL     1      51.565   6.517  16.416  0.00  0.00    +0.000 NA
ATOM     23  C   UNL     1      50.495   5.767  16.734  0.00  0.00    +0.000 A 
ATOM     24  N   UNL     1      49.267   5.889  16.198  0.00  0.00    +0.000 NA
ATOM     25  C   UNL     1      49.135   6.850  15.256  0.00  0.00    +0.000 A 
BRANCH  23  26
ATOM     26  C   UNL     1      50.676   4.754  17.741  0.00  0.00    +0.000 C 
ATOM     27  N   UNL     1      50.824   3.937  18.559  0.00  0.00    +0.000 NA
ENDBRANCH  23  26
ENDBRANCH  18  20
ENDBRANCH  15  18
ENDBRANCH   5  15
TORSDOF 6
ENDMDL
MODEL 8
REMARK VINA RESULT:    -6.088      1.701      2.915
REMARK INTER + INTRA:          -8.975
REMARK INTER:                  -9.089
REMARK INTRA:                   0.114
REMARK UNBOUND:                -0.752
REMARK  Name = 
REMARK  6 active torsions:
REMARK  status: ('A' for Active; 'I' for Inactive)
REMARK    1  A    between atoms: C_2  and  C_3
REMARK    2  A    between atoms: C_7  and  C_8
REMARK    3  A    between atoms: C_12  and  C_13
REMARK    4  A    between atoms: C_13  and  N_14
REMARK    5  A    between atoms: N_14  and  C_15
REMARK    6  A    between atoms: C_18  and  C_19
REMARK                            x       y       z     vdW  Elec       q    Type
REMARK                         _______ _______ _______ _____ _____    ______ ____
ROOT
ATOM      1  C   UNL     1      47.190   5.826  13.466  0.00  0.00    +0.000 A 
ATOM      2  C   UNL     1      47.511   4.545  13.937  0.00  0.00    +0.000 A 
ATOM      3  C   UNL     1      46.759   3.426  13.565  0.00  0.00    +0.000 A 
ATOM      4  C   UNL     1      45.667   3.565  12.709  0.00  0.00    +0.000 A 
ATOM      5  C   UNL     1      45.305   4.819  12.206  0.00  0.00    +0.000 A 
ATOM      6  C   UNL     1      46.092   5.924  12.594  0.00  0.00    +0.000 A 
ENDROOT
BRANCH   1  11
ATOM      7  C   UNL     1      49.901   8.071  14.923  0.00  0.00    +0.000 A 
ATOM      8  C   UNL     1      49.365   9.340  14.708  0.00  0.00    +0.000 A 
ATOM      9  C   UNL     1      48.127   9.471  14.085  0.00  0.00    +0.000 A 
ATOM     10  C   UNL     1      47.431   8.329  13.672  0.00  0.00    +0.000 A 
ATOM     11  C   UNL     1      47.945   7.035  13.876  0.00  0.00    +0.000 A 
ATOM     12  C   UNL     1      49.190   6.931  14.517  0.00  0.00    +0.000 A 
BRANCH   7  14
ATOM     13  N   UNL     1      52.198   7.804  16.096  0.00  0.00    +0.000 NA
ATOM     14  C   UNL     1      51.171   7.924  15.568  0.00  0.00    +0.000 C 
ENDBRANCH   7  14
ENDBRANCH   1  11
BRANCH   5  15
ATOM     15  C   UNL     1      44.129   5.034  11.264  0.00  0.00    +0.000 C 
ATOM     16  C   UNL     1      44.067   6.435  10.656  0.00  0.00    +0.000 C 
ATOM     17  C   UNL     1      42.996   5.984  11.589  0.00  0.00    +0.000 C 
BRANCH  15  18
ATOM     18  N   UNL     1      43.866   3.876  10.380  0.00  0.00    +0.000 N 
ATOM     19  H   UNL     1      42.900   3.805  10.065  0.00  0.00    +0.000 HD
BRANCH  18  20
ATOM     20  C   UNL     1      44.764   3.482   9.370  0.00  0.00    +0.000 A 
ATOM     21  C   UNL     1      45.515   4.333   8.577  0.00  0.00    +0.000 A 
ATOM     22  N   UNL     1      46.431   3.938   7.662  0.00  0.00    +0.000 NA
ATOM     23  C   UNL     1      46.621   2.609   7.567  0.00  0.00    +0.000 A 
ATOM     24  N   UNL     1      45.988   1.674   8.299  0.00  0.00    +0.000 NA
ATOM     25  C   UNL     1      45.085   2.144   9.189  0.00  0.00    +0.000 A 
BRANCH  23  26
ATOM     26  C   UNL     1      47.590   2.149   6.608  0.00  0.00    +0.000 C 
ATOM     27  N   UNL     1      48.374   1.773   5.831  0.00  0.00    +0.000 NA
ENDBRANCH  23  26
ENDBRANCH  18  20
ENDBRANCH  15  18
ENDBRANCH   5  15
TORSDOF 6
ENDMDL
MODEL 9
REMARK VINA RESULT:    -6.059      3.191      8.227
REMARK INTER + INTRA:          -8.936
REMARK INTER:                  -8.061
REMARK INTRA:                  -0.875
REMARK UNBOUND:                -0.752
REMARK  Name = 
REMARK  6 active torsions:
REMARK  status: ('A' for Active; 'I' for Inactive)
REMARK    1  A    between atoms: C_2  and  C_3
REMARK    2  A    between atoms: C_7  and  C_8
REMARK    3  A    between atoms: C_12  and  C_13
REMARK    4  A    between atoms: C_13  and  N_14
REMARK    5  A    between atoms: N_14  and  C_15
REMARK    6  A    between atoms: C_18  and  C_19
REMARK                            x       y       z     vdW  Elec       q    Type
REMARK                         _______ _______ _______ _____ _____    ______ ____
ROOT
ATOM      1  C   UNL     1      48.347   6.556  13.997  0.00  0.00    +0.000 A 
ATOM      2  C   UNL     1      49.474   7.316  13.657  0.00  0.00    +0.000 A 
ATOM      3  C   UNL     1      50.423   7.678  14.618  0.00  0.00    +0.000 A 
ATOM      4  C   UNL     1      50.265   7.282  15.946  0.00  0.00    +0.000 A 
ATOM      5  C   UNL     1      49.161   6.519  16.340  0.00  0.00    +0.000 A 
ATOM      6  C   UNL     1      48.229   6.164  15.342  0.00  0.00    +0.000 A 
ENDROOT
BRANCH   1  11
ATOM      7  C   UNL     1      45.420   4.791  12.314  0.00  0.00    +0.000 A 
ATOM      8  C   UNL     1      45.347   5.462  11.094  0.00  0.00    +0.000 A 
ATOM      9  C   UNL     1      46.242   6.491  10.817  0.00  0.00    +0.000 A 
ATOM     10  C   UNL     1      47.205   6.852  11.767  0.00  0.00    +0.000 A 
ATOM     11  C   UNL     1      47.304   6.193  13.006  0.00  0.00    +0.000 A 
ATOM     12  C   UNL     1      46.397   5.150  13.256  0.00  0.00    +0.000 A 
BRANCH   7  14
ATOM     13  N   UNL     1      43.771   2.860  12.841  0.00  0.00    +0.000 NA
ATOM     14  C   UNL     1      44.509   3.726  12.607  0.00  0.00    +0.000 C 
ENDBRANCH   7  14
ENDBRANCH   1  11
BRANCH   5  15
ATOM     15  C   UNL     1      48.935   6.052  17.772  0.00  0.00    +0.000 C 
ATOM     16  C   UNL     1      47.979   6.936  18.571  0.00  0.00    +0.000 C 
ATOM     17  C   UNL     1      49.413   6.847  18.967  0.00  0.00    +0.000 C 
BRANCH  15  18
ATOM     18  N   UNL     1      48.796   4.583  17.894  0.00  0.00    +0.000 N 
ATOM     19  H   UNL     1      47.954   4.208  17.460  0.00  0.00    +0.000 HD
BRANCH  18  20
ATOM     20  C   UNL     1      49.887   3.708  17.734  0.00  0.00    +0.000 A 
ATOM     21  C   UNL     1      51.165   3.909  18.224  0.00  0.00    +0.000 A 
ATOM     22  N   UNL     1      52.185   3.023  18.128  0.00  0.00    +0.000 NA
ATOM     23  C   UNL     1      51.884   1.856  17.530  0.00  0.00    +0.000 A 
ATOM     24  N   UNL     1      50.678   1.514  17.042  0.00  0.00    +0.000 NA
ATOM     25  C   UNL     1      49.712   2.451  17.171  0.00  0.00    +0.000 A 
BRANCH  23  26
ATOM     26  C   UNL     1      52.941   0.886  17.413  0.00  0.00    +0.000 C 
ATOM     27  N   UNL     1      53.795   0.098  17.320  0.00  0.00    +0.000 NA
ENDBRANCH  23  26
ENDBRANCH  18  20
ENDBRANCH  15  18
ENDBRANCH   5  15
TORSDOF 6
ENDMDL
