MODEL 1
REMARK VINA RESULT:    -8.042      0.000      0.000
REMARK INTER + INTRA:         -12.061
REMARK INTER:                 -10.862
REMARK INTRA:                  -1.198
REMARK UNBOUND:                -1.198
REMARK  Name = 
REMARK  7 active torsions:
REMARK  status: ('A' for Active; 'I' for Inactive)
REMARK    1  A    between atoms: C_1  and  C_2
REMARK    2  A    between atoms: C_7  and  C_8
REMARK    3  A    between atoms: N_10  and  C_11
REMARK    4  A    between atoms: C_11  and  C_12
REMARK    5  A    between atoms: C_15  and  C_16
REMARK    6  A    between atoms: C_16  and  N_17
REMARK    7  A    between atoms: C_18  and  C_20
REMARK                            x       y       z     vdW  Elec       q    Type
REMARK                         _______ _______ _______ _____ _____    ______ ____
ROOT
ATOM      1  C   UNL     1      45.773   7.185  12.607  0.00  0.00    +0.000 A 
ATOM      2  C   UNL     1      46.719   6.291  13.127  0.00  0.00    +0.000 A 
ATOM      3  C   UNL     1      47.785   6.752  13.914  0.00  0.00    +0.000 A 
ATOM      4  C   UNL     1      47.914   8.116  14.213  0.00  0.00    +0.000 A 
ATOM      5  C   UNL     1      46.971   9.008  13.685  0.00  0.00    +0.000 A 
ATOM      6  C   UNL     1      45.907   8.548  12.903  0.00  0.00    +0.000 A 
ENDROOT
BRANCH   1   7
ATOM      7  C   UNL     1      44.624   6.695  11.757  0.00  0.00    +0.000 C 
BRANCH   7  10
ATOM      8  C   UNL     1      44.084   4.547  10.691  0.00  0.00    +0.000 C 
ATOM      9  O   UNL     1      42.934   4.576  11.123  0.00  0.00    +0.000 OA
ATOM     10  N   UNL     1      44.985   5.550  10.958  0.00  0.00    +0.000 N 
ATOM     11  H   UNL     1      45.935   5.501  10.602  0.00  0.00    +0.000 HD
BRANCH   8  18
ATOM     12  C   UNL     1      47.992   2.159   5.608  0.00  0.00    +0.000 C 
ATOM     13  C   UNL     1      47.076   2.500   6.749  0.00  0.00    +0.000 A 
ATOM     14  N   UNL     1      46.353   1.589   7.334  0.00  0.00    +0.000 NA
ATOM     15  C   UNL     1      45.590   2.082   8.339  0.00  0.00    +0.000 A 
ATOM     16  N   UNL     1      44.749   1.318   9.091  0.00  0.00    +0.000 N 
ATOM     17  C   UNL     1      44.124   2.120  10.014  0.00  0.00    +0.000 A 
ATOM     18  C   UNL     1      44.565   3.433   9.862  0.00  0.00    +0.000 A 
ATOM     19  C   UNL     1      45.505   3.383   8.787  0.00  0.00    +0.000 A 
ATOM     20  C   UNL     1      46.326   4.361   8.119  0.00  0.00    +0.000 A 
ATOM     21  O   UNL     1      46.359   5.551   8.411  0.00  0.00    +0.000 OA
ATOM     22  N   UNL     1      47.091   3.836   7.103  0.00  0.00    +0.000 N 
ATOM     23  H   UNL     1      44.617   0.321   8.973  0.00  0.00    +0.000 HD
ATOM     24  H   UNL     1      47.675   4.495   6.612  0.00  0.00    +0.000 HD
ENDBRANCH   8  18
ENDBRANCH   7  10
ENDBRANCH   1   7
BRANCH   4  25
ATOM     25  C   UNL     1      49.046   8.632  15.064  0.00  0.00    +0.000 C 
BRANCH  25  26
ATOM     26  N   UNL     1      49.896   7.565  15.531  0.00  0.00    +0.000 N 
ATOM     27  C   UNL     1      49.729   7.026  16.782  0.00  0.00    +0.000 C 
ATOM     28  O   UNL     1      48.840   7.404  17.542  0.00  0.00    +0.000 OA
ATOM     29  H   UNL     1      50.768   7.414  15.033  0.00  0.00    +0.000 HD
BRANCH  27  30
ATOM     30  C   UNL     1      50.625   5.920  17.147  0.00  0.00    +0.000 A 
ATOM     31  C   UNL     1      51.924   6.192  17.554  0.00  0.00    +0.000 A 
ATOM     32  S   UNL     1      52.806   4.803  18.001  0.00  0.00    +0.000 S 
ATOM     33  C   UNL     1      51.501   3.783  17.611  0.00  0.00    +0.000 A 
ATOM     34  N   UNL     1      51.606   2.433  17.743  0.00  0.00    +0.000 NA
ATOM     35  C   UNL     1      50.553   1.779  17.376  0.00  0.00    +0.000 A 
ATOM     36  N   UNL     1      49.405   2.355  16.896  0.00  0.00    +0.000 N 
ATOM     37  C   UNL     1      49.244   3.714  16.777  0.00  0.00    +0.000 A 
ATOM     38  O   UNL     1      48.187   4.200  16.388  0.00  0.00    +0.000 OA
ATOM     39  C   UNL     1      50.403   4.494  17.163  0.00  0.00    +0.000 A 
ATOM     40  H   UNL     1      48.613   1.788  16.634  0.00  0.00    +0.000 HD
ENDBRANCH  27  30
ENDBRANCH  25  26
ENDBRANCH   4  25
TORSDOF 6
ENDMDL
MODEL 2
REMARK VINA RESULT:    -7.789      3.229      9.314
REMARK INTER + INTRA:         -11.720
REMARK INTER:                 -10.507
REMARK INTRA:                  -1.213
REMARK UNBOUND:                -1.198
REMARK  Name = 
REMARK  7 active torsions:
REMARK  status: ('A' for Active; 'I' for Inactive)
REMARK    1  A    between atoms: C_1  and  C_2
REMARK    2  A    between atoms: C_7  and  C_8
REMARK    3  A    between atoms: N_10  and  C_11
REMARK    4  A    between atoms: C_11  and  C_12
REMARK    5  A    between atoms: C_15  and  C_16
REMARK    6  A    between atoms: C_16  and  N_17
REMARK    7  A    between atoms: C_18  and  C_20
REMARK                            x       y       z     vdW  Elec       q    Type
REMARK                         _______ _______ _______ _____ _____    ______ ____
ROOT
ATOM      1  C   UNL     1      50.261   7.172  15.697  0.00  0.00    +0.000 A 
ATOM      2  C   UNL     1      50.990   7.710  14.629  0.00  0.00    +0.000 A 
ATOM      3  C   UNL     1      50.362   8.017  13.413  0.00  0.00    +0.000 A 
ATOM      4  C   UNL     1      48.985   7.811  13.249  0.00  0.00    +0.000 A 
ATOM      5  C   UNL     1      48.259   7.265  14.316  0.00  0.00    +0.000 A 
ATOM      6  C   UNL     1      48.885   6.962  15.529  0.00  0.00    +0.000 A 
ENDROOT
BRANCH   1   7
ATOM      7  C   UNL     1      50.932   6.837  17.008  0.00  0.00    +0.000 C 
BRANCH   7  10
ATOM      8  C   UNL     1      50.579   4.480  17.609  0.00  0.00    +0.000 C 
ATOM      9  O   UNL     1      49.469   4.723  18.075  0.00  0.00    +0.000 OA
ATOM     10  N   UNL     1      51.369   5.463  17.064  0.00  0.00    +0.000 N 
ATOM     11  H   UNL     1      52.289   5.244  16.696  0.00  0.00    +0.000 HD
BRANCH   8  18
ATOM     12  C   UNL     1      55.613   0.084  19.075  0.00  0.00    +0.000 C 
ATOM     13  C   UNL     1      54.411   0.896  18.685  0.00  0.00    +0.000 A 
ATOM     14  N   UNL     1      53.383   0.349  18.103  0.00  0.00    +0.000 NA
ATOM     15  C   UNL     1      52.397   1.235  17.824  0.00  0.00    +0.000 A 
ATOM     16  N   UNL     1      51.228   0.894  17.214  0.00  0.00    +0.000 N 
ATOM     17  C   UNL     1      50.453   2.020  17.075  0.00  0.00    +0.000 A 
ATOM     18  C   UNL     1      51.129   3.117  17.606  0.00  0.00    +0.000 A 
ATOM     19  C   UNL     1      52.368   2.590  18.082  0.00  0.00    +0.000 A 
ATOM     20  C   UNL     1      53.522   3.157  18.734  0.00  0.00    +0.000 A 
ATOM     21  O   UNL     1      53.637   4.340  19.029  0.00  0.00    +0.000 OA
ATOM     22  N   UNL     1      54.509   2.237  19.006  0.00  0.00    +0.000 N 
ATOM     23  H   UNL     1      50.986  -0.042  16.915  0.00  0.00    +0.000 HD
ATOM     24  H   UNL     1      55.332   2.602  19.458  0.00  0.00    +0.000 HD
ENDBRANCH   8  18
ENDBRANCH   7  10
ENDBRANCH   1   7
BRANCH   4  25
ATOM     25  C   UNL     1      48.287   8.143  11.955  0.00  0.00    +0.000 C 
BRANCH  25  26
ATOM     26  N   UNL     1      47.604   6.999  11.404  0.00  0.00    +0.000 N 
ATOM     27  C   UNL     1      46.233   6.946  11.367  0.00  0.00    +0.000 C 
ATOM     28  O   UNL     1      45.534   7.872  11.771  0.00  0.00    +0.000 OA
ATOM     29  H   UNL     1      48.141   6.144  11.297  0.00  0.00    +0.000 HD
BRANCH  27  30
ATOM     30  C   UNL     1      45.637   5.752  10.752  0.00  0.00    +0.000 A 
ATOM     31  C   UNL     1      45.816   5.514   9.395  0.00  0.00    +0.000 A 
ATOM     32  S   UNL     1      45.114   4.056   8.858  0.00  0.00    +0.000 S 
ATOM     33  C   UNL     1      44.497   3.719  10.408  0.00  0.00    +0.000 A 
ATOM     34  N   UNL     1      43.756   2.601  10.638  0.00  0.00    +0.000 NA
ATOM     35  C   UNL     1      43.321   2.491  11.849  0.00  0.00    +0.000 A 
ATOM     36  N   UNL     1      43.565   3.394  12.851  0.00  0.00    +0.000 N 
ATOM     37  C   UNL     1      44.335   4.518  12.673  0.00  0.00    +0.000 A 
ATOM     38  O   UNL     1      44.573   5.283  13.602  0.00  0.00    +0.000 OA
ATOM     39  C   UNL     1      44.836   4.697  11.325  0.00  0.00    +0.000 A 
ATOM     40  H   UNL     1      43.203   3.245  13.781  0.00  0.00    +0.000 HD
ENDBRANCH  27  30
ENDBRANCH  25  26
ENDBRANCH   4  25
TORSDOF 6
ENDMDL
MODEL 3
REMARK VINA RESULT:    -7.732      4.868      5.998
REMARK INTER + INTRA:         -11.642
REMARK INTER:                 -10.252
REMARK INTRA:                  -1.390
REMARK UNBOUND:                -1.198
REMARK  Name = 
REMARK  7 active torsions:
REMARK  status: ('A' for Active; 'I' for Inactive)
REMARK    1  A    between atoms: C_1  and  C_2
REMARK    2  A    between atoms: C_7  and  C_8
REMARK    3  A    between atoms: N_10  and  C_11
REMARK    4  A    between atoms: C_11  and  C_12
REMARK    5  A    between atoms: C_15  and  C_16
REMARK    6  A    between atoms: C_16  and  N_17
REMARK    7  A    between atoms: C_18  and  C_20
REMARK                            x       y       z     vdW  Elec       q    Type
REMARK                         _______ _______ _______ _____ _____    ______ ____
ROOT
ATOM      1  C   UNL     1      46.255   8.403  12.021  0.00  0.00    +0.000 A 
ATOM      2  C   UNL     1      47.456   7.694  11.874  0.00  0.00    +0.000 A 
ATOM      3  C   UNL     1      48.690   8.360  11.898  0.00  0.00    +0.000 A 
ATOM      4  C   UNL     1      48.749   9.747  12.090  0.00  0.00    +0.000 A 
ATOM      5  C   UNL     1      47.548  10.455  12.229  0.00  0.00    +0.000 A 
ATOM      6  C   UNL     1      46.317   9.791  12.208  0.00  0.00    +0.000 A 
ENDROOT
BRANCH   1   7
ATOM      7  C   UNL     1      44.923   7.692  11.994  0.00  0.00    +0.000 C 
BRANCH   7  10
ATOM      8  C   UNL     1      43.923   5.609  11.155  0.00  0.00    +0.000 C 
ATOM      9  O   UNL     1      42.787   6.067  11.255  0.00  0.00    +0.000 OA
ATOM     10  N   UNL     1      45.033   6.342  11.499  0.00  0.00    +0.000 N 
ATOM     11  H   UNL     1      45.963   5.941  11.421  0.00  0.00    +0.000 HD
BRANCH   8  18
ATOM     12  C   UNL     1      46.967   1.302   6.797  0.00  0.00    +0.000 C 
ATOM     13  C   UNL     1      46.218   2.091   7.833  0.00  0.00    +0.000 A 
ATOM     14  N   UNL     1      45.427   1.509   8.687  0.00  0.00    +0.000 NA
ATOM     15  C   UNL     1      44.837   2.378   9.542  0.00  0.00    +0.000 A 
ATOM     16  N   UNL     1      43.966   2.000  10.519  0.00  0.00    +0.000 N 
ATOM     17  C   UNL     1      43.550   3.118  11.201  0.00  0.00    +0.000 A 
ATOM     18  C   UNL     1      44.161   4.247  10.659  0.00  0.00    +0.000 A 
ATOM     19  C   UNL     1      44.982   3.749   9.602  0.00  0.00    +0.000 A 
ATOM     20  C   UNL     1      45.872   4.355   8.644  0.00  0.00    +0.000 A 
ATOM     21  O   UNL     1      46.103   5.557   8.580  0.00  0.00    +0.000 OA
ATOM     22  N   UNL     1      46.458   3.451   7.787  0.00  0.00    +0.000 N 
ATOM     23  H   UNL     1      43.681   1.046  10.699  0.00  0.00    +0.000 HD
ATOM     24  H   UNL     1      47.084   3.844   7.102  0.00  0.00    +0.000 HD
ENDBRANCH   8  18
ENDBRANCH   7  10
ENDBRANCH   1   7
BRANCH   4  25
ATOM     25  C   UNL     1      50.065  10.481  12.129  0.00  0.00    +0.000 C 
BRANCH  25  26
ATOM     26  N   UNL     1      50.860  10.222  10.955  0.00  0.00    +0.000 N 
ATOM     27  C   UNL     1      52.230  10.278  11.004  0.00  0.00    +0.000 C 
ATOM     28  O   UNL     1      52.835  10.523  12.045  0.00  0.00    +0.000 OA
ATOM     29  H   UNL     1      50.389  10.263  10.056  0.00  0.00    +0.000 HD
BRANCH  27  30
ATOM     30  C   UNL     1      52.947   9.962   9.761  0.00  0.00    +0.000 A 
ATOM     31  C   UNL     1      53.644  10.962   9.095  0.00  0.00    +0.000 A 
ATOM     32  S   UNL     1      54.470  10.412   7.708  0.00  0.00    +0.000 S 
ATOM     33  C   UNL     1      53.878   8.831   7.916  0.00  0.00    +0.000 A 
ATOM     34  N   UNL     1      54.194   7.844   7.034  0.00  0.00    +0.000 NA
ATOM     35  C   UNL     1      53.646   6.703   7.293  0.00  0.00    +0.000 A 
ATOM     36  N   UNL     1      52.816   6.459   8.357  0.00  0.00    +0.000 N 
ATOM     37  C   UNL     1      52.497   7.415   9.290  0.00  0.00    +0.000 A 
ATOM     38  O   UNL     1      51.789   7.153  10.257  0.00  0.00    +0.000 OA
ATOM     39  C   UNL     1      53.076   8.720   9.037  0.00  0.00    +0.000 A 
ATOM     40  H   UNL     1      52.427   5.541   8.509  0.00  0.00    +0.000 HD
ENDBRANCH  27  30
ENDBRANCH  25  26
ENDBRANCH   4  25
TORSDOF 6
ENDMDL
MODEL 4
REMARK VINA RESULT:    -7.631      5.258      8.251
REMARK INTER + INTRA:         -11.506
REMARK INTER:                 -10.262
REMARK INTRA:                  -1.245
REMARK UNBOUND:                -1.198
REMARK  Name = 
REMARK  7 active torsions:
REMARK  status: ('A' for Active; 'I' for Inactive)
REMARK    1  A    between atoms: C_1  and  C_2
REMARK    2  A    between atoms: C_7  and  C_8
REMARK    3  A    between atoms: N_10  and  C_11
REMARK    4  A    between atoms: C_11  and  C_12
REMARK    5  A    between atoms: C_15  and  C_16
REMARK    6  A    between atoms: C_16  and  N_17
REMARK    7  A    between atoms: C_18  and  C_20
REMARK                            x       y       z     vdW  Elec       q    Type
REMARK                         _______ _______ _______ _____ _____    ______ ____
ROOT
ATOM      1  C   UNL     1      50.294   8.918  11.773  0.00  0.00    +0.000 A 
ATOM      2  C   UNL     1      49.618   9.834  12.591  0.00  0.00    +0.000 A 
ATOM      3  C   UNL     1      48.301   9.590  13.005  0.00  0.00    +0.000 A 
ATOM      4  C   UNL     1      47.639   8.414  12.625  0.00  0.00    +0.000 A 
ATOM      5  C   UNL     1      48.314   7.504  11.801  0.00  0.00    +0.000 A 
ATOM      6  C   UNL     1      49.629   7.746  11.390  0.00  0.00    +0.000 A 
ENDROOT
BRANCH   1   7
ATOM      7  C   UNL     1      51.712   9.176  11.322  0.00  0.00    +0.000 C 
BRANCH   7  10
ATOM      8  C   UNL     1      53.077   8.884   9.298  0.00  0.00    +0.000 C 
ATOM      9  O   UNL     1      53.787   9.843   9.590  0.00  0.00    +0.000 OA
ATOM     10  N   UNL     1      52.031   8.487  10.095  0.00  0.00    +0.000 N 
ATOM     11  H   UNL     1      51.447   7.700   9.830  0.00  0.00    +0.000 HD
BRANCH   8  18
ATOM     12  C   UNL     1      54.323   2.919   6.187  0.00  0.00    +0.000 C 
ATOM     13  C   UNL     1      54.047   4.307   6.693  0.00  0.00    +0.000 A 
ATOM     14  N   UNL     1      53.959   5.319   5.880  0.00  0.00    +0.000 NA
ATOM     15  C   UNL     1      53.709   6.489   6.516  0.00  0.00    +0.000 A 
ATOM     16  N   UNL     1      53.579   7.683   5.872  0.00  0.00    +0.000 N 
ATOM     17  C   UNL     1      53.337   8.666   6.801  0.00  0.00    +0.000 A 
ATOM     18  C   UNL     1      53.307   8.102   8.076  0.00  0.00    +0.000 A 
ATOM     19  C   UNL     1      53.544   6.709   7.867  0.00  0.00    +0.000 A 
ATOM     20  C   UNL     1      53.643   5.561   8.733  0.00  0.00    +0.000 A 
ATOM     21  O   UNL     1      53.514   5.602   9.952  0.00  0.00    +0.000 OA
ATOM     22  N   UNL     1      53.897   4.386   8.064  0.00  0.00    +0.000 N 
ATOM     23  H   UNL     1      53.654   7.809   4.871  0.00  0.00    +0.000 HD
ATOM     24  H   UNL     1      53.975   3.564   8.643  0.00  0.00    +0.000 HD
ENDBRANCH   8  18
ENDBRANCH   7  10
ENDBRANCH   1   7
BRANCH   4  25
ATOM     25  C   UNL     1      46.227   8.126  13.067  0.00  0.00    +0.000 C 
BRANCH  25  26
ATOM     26  N   UNL     1      45.815   6.791  12.714  0.00  0.00    +0.000 N 
ATOM     27  C   UNL     1      44.811   6.580  11.802  0.00  0.00    +0.000 C 
ATOM     28  O   UNL     1      44.244   7.509  11.231  0.00  0.00    +0.000 OA
ATOM     29  H   UNL     1      46.089   6.039  13.338  0.00  0.00    +0.000 HD
BRANCH  27  30
ATOM     30  C   UNL     1      44.492   5.181  11.485  0.00  0.00    +0.000 A 
ATOM     31  C   UNL     1      43.754   4.423  12.385  0.00  0.00    +0.000 A 
ATOM     32  S   UNL     1      43.420   2.844  11.836  0.00  0.00    +0.000 S 
ATOM     33  C   UNL     1      44.298   3.099  10.401  0.00  0.00    +0.000 A 
ATOM     34  N   UNL     1      44.430   2.109   9.477  0.00  0.00    +0.000 NA
ATOM     35  C   UNL     1      45.152   2.428   8.455  0.00  0.00    +0.000 A 
ATOM     36  N   UNL     1      45.749   3.648   8.271  0.00  0.00    +0.000 N 
ATOM     37  C   UNL     1      45.615   4.687   9.161  0.00  0.00    +0.000 A 
ATOM     38  O   UNL     1      46.123   5.782   8.945  0.00  0.00    +0.000 OA
ATOM     39  C   UNL     1      44.824   4.376  10.335  0.00  0.00    +0.000 A 
ATOM     40  H   UNL     1      46.295   3.838   7.444  0.00  0.00    +0.000 HD
ENDBRANCH  27  30
ENDBRANCH  25  26
ENDBRANCH   4  25
TORSDOF 6
ENDMDL
MODEL 5
REMARK VINA RESULT:    -7.452      2.615      9.459
REMARK INTER + INTRA:         -11.265
REMARK INTER:                  -9.967
REMARK INTRA:                  -1.298
REMARK UNBOUND:                -1.198
REMARK  Name = 
REMARK  7 active torsions:
REMARK  status: ('A' for Active; 'I' for Inactive)
REMARK    1  A    between atoms: C_1  and  C_2
REMARK    2  A    between atoms: C_7  and  C_8
REMARK    3  A    between atoms: N_10  and  C_11
REMARK    4  A    between atoms: C_11  and  C_12
REMARK    5  A    between atoms: C_15  and  C_16
REMARK    6  A    between atoms: C_16  and  N_17
REMARK    7  A    between atoms: C_18  and  C_20
REMARK                            x       y       z     vdW  Elec       q    Type
REMARK                         _______ _______ _______ _____ _____    ______ ____
ROOT
ATOM      1  C   UNL     1      48.852   8.027  16.178  0.00  0.00    +0.000 A 
ATOM      2  C   UNL     1      49.014   6.826  15.475  0.00  0.00    +0.000 A 
ATOM      3  C   UNL     1      48.590   6.711  14.143  0.00  0.00    +0.000 A 
ATOM      4  C   UNL     1      48.013   7.804  13.481  0.00  0.00    +0.000 A 
ATOM      5  C   UNL     1      47.844   9.002  14.189  0.00  0.00    +0.000 A 
ATOM      6  C   UNL     1      48.270   9.117  15.516  0.00  0.00    +0.000 A 
ENDROOT
BRANCH   1   7
ATOM      7  C   UNL     1      49.305   8.156  17.614  0.00  0.00    +0.000 C 
BRANCH   7  10
ATOM      8  C   UNL     1      50.096   6.184  18.849  0.00  0.00    +0.000 C 
ATOM      9  O   UNL     1      49.009   6.046  19.405  0.00  0.00    +0.000 OA
ATOM     10  N   UNL     1      50.329   7.198  17.952  0.00  0.00    +0.000 N 
ATOM     11  H   UNL     1      51.238   7.303  17.513  0.00  0.00    +0.000 HD
BRANCH   8  18
ATOM     12  C   UNL     1      53.384   0.303  17.659  0.00  0.00    +0.000 C 
ATOM     13  C   UNL     1      52.805   1.634  18.045  0.00  0.00    +0.000 A 
ATOM     14  N   UNL     1      53.372   2.385  18.945  0.00  0.00    +0.000 NA
ATOM     15  C   UNL     1      52.707   3.545  19.163  0.00  0.00    +0.000 A 
ATOM     16  N   UNL     1      53.110   4.487  20.061  0.00  0.00    +0.000 N 
ATOM     17  C   UNL     1      52.218   5.531  20.041  0.00  0.00    +0.000 A 
ATOM     18  C   UNL     1      51.214   5.267  19.111  0.00  0.00    +0.000 A 
ATOM     19  C   UNL     1      51.550   3.993  18.560  0.00  0.00    +0.000 A 
ATOM     20  C   UNL     1      50.957   3.136  17.564  0.00  0.00    +0.000 A 
ATOM     21  O   UNL     1      49.935   3.403  16.943  0.00  0.00    +0.000 OA
ATOM     22  N   UNL     1      51.650   1.965  17.362  0.00  0.00    +0.000 N 
ATOM     23  H   UNL     1      53.934   4.411  20.643  0.00  0.00    +0.000 HD
ATOM     24  H   UNL     1      51.259   1.341  16.674  0.00  0.00    +0.000 HD
ENDBRANCH   8  18
ENDBRANCH   7  10
ENDBRANCH   1   7
BRANCH   4  25
ATOM     25  C   UNL     1      47.559   7.707  12.047  0.00  0.00    +0.000 C 
BRANCH  25  26
ATOM     26  N   UNL     1      46.885   6.460  11.781  0.00  0.00    +0.000 N 
ATOM     27  C   UNL     1      45.517   6.369  11.847  0.00  0.00    +0.000 C 
ATOM     28  O   UNL     1      44.811   7.341  12.107  0.00  0.00    +0.000 OA
ATOM     29  H   UNL     1      47.445   5.613  11.809  0.00  0.00    +0.000 HD
BRANCH  27  30
ATOM     30  C   UNL     1      44.928   5.063  11.523  0.00  0.00    +0.000 A 
ATOM     31  C   UNL     1      44.211   4.372  12.491  0.00  0.00    +0.000 A 
ATOM     32  S   UNL     1      43.543   2.906  11.931  0.00  0.00    +0.000 S 
ATOM     33  C   UNL     1      44.237   3.115  10.392  0.00  0.00    +0.000 A 
ATOM     34  N   UNL     1      44.069   2.181   9.417  0.00  0.00    +0.000 NA
ATOM     35  C   UNL     1      44.680   2.451   8.311  0.00  0.00    +0.000 A 
ATOM     36  N   UNL     1      45.439   3.571   8.092  0.00  0.00    +0.000 N 
ATOM     37  C   UNL     1      45.609   4.555   9.035  0.00  0.00    +0.000 A 
ATOM     38  O   UNL     1      46.256   5.569   8.792  0.00  0.00    +0.000 OA
ATOM     39  C   UNL     1      44.953   4.295  10.302  0.00  0.00    +0.000 A 
ATOM     40  H   UNL     1      45.885   3.728   7.200  0.00  0.00    +0.000 HD
ENDBRANCH  27  30
ENDBRANCH  25  26
ENDBRANCH   4  25
TORSDOF 6
ENDMDL
MODEL 6
REMARK VINA RESULT:    -7.429      4.233      7.394
REMARK INTER + INTRA:         -11.233
REMARK INTER:                  -9.797
REMARK INTRA:                  -1.437
REMARK UNBOUND:                -1.198
REMARK  Name = 
REMARK  7 active torsions:
REMARK  status: ('A' for Active; 'I' for Inactive)
REMARK    1  A    between atoms: C_1  and  C_2
REMARK    2  A    between atoms: C_7  and  C_8
REMARK    3  A    between atoms: N_10  and  C_11
REMARK    4  A    between atoms: C_11  and  C_12
REMARK    5  A    between atoms: C_15  and  C_16
REMARK    6  A    between atoms: C_16  and  N_17
REMARK    7  A    between atoms: C_18  and  C_20
REMARK                            x       y       z     vdW  Elec       q    Type
REMARK                         _______ _______ _______ _____ _____    ______ ____
ROOT
ATOM      1  C   UNL     1      48.908   3.448  17.279  0.00  0.00    +0.000 A 
ATOM      2  C   UNL     1      49.790   4.461  17.681  0.00  0.00    +0.000 A 
ATOM      3  C   UNL     1      51.142   4.181  17.923  0.00  0.00    +0.000 A 
ATOM      4  C   UNL     1      51.645   2.884  17.747  0.00  0.00    +0.000 A 
ATOM      5  C   UNL     1      50.761   1.872  17.352  0.00  0.00    +0.000 A 
ATOM      6  C   UNL     1      49.413   2.152  17.108  0.00  0.00    +0.000 A 
ENDROOT
BRANCH   1   7
ATOM      7  C   UNL     1      47.450   3.743  17.019  0.00  0.00    +0.000 C 
BRANCH   7  10
ATOM      8  C   UNL     1      47.183   4.311  14.642  0.00  0.00    +0.000 C 
ATOM      9  O   UNL     1      47.265   3.131  14.310  0.00  0.00    +0.000 OA
ATOM     10  N   UNL     1      47.266   4.702  15.957  0.00  0.00    +0.000 N 
ATOM     11  H   UNL     1      47.209   5.684  16.211  0.00  0.00    +0.000 HD
BRANCH   8  18
ATOM     12  C   UNL     1      49.154  10.198  11.766  0.00  0.00    +0.000 C 
ATOM     13  C   UNL     1      48.577   8.905  12.268  0.00  0.00    +0.000 A 
ATOM     14  N   UNL     1      47.494   8.400  11.752  0.00  0.00    +0.000 NA
ATOM     15  C   UNL     1      47.123   7.234  12.333  0.00  0.00    +0.000 A 
ATOM     16  N   UNL     1      46.021   6.524  11.962  0.00  0.00    +0.000 N 
ATOM     17  C   UNL     1      45.929   5.402  12.748  0.00  0.00    +0.000 A 
ATOM     18  C   UNL     1      46.991   5.378  13.650  0.00  0.00    +0.000 A 
ATOM     19  C   UNL     1      47.743   6.558  13.363  0.00  0.00    +0.000 A 
ATOM     20  C   UNL     1      48.943   7.146  13.903  0.00  0.00    +0.000 A 
ATOM     21  O   UNL     1      49.602   6.658  14.814  0.00  0.00    +0.000 OA
ATOM     22  N   UNL     1      49.298   8.329  13.296  0.00  0.00    +0.000 N 
ATOM     23  H   UNL     1      45.383   6.796  11.225  0.00  0.00    +0.000 HD
ATOM     24  H   UNL     1      50.132   8.769  13.654  0.00  0.00    +0.000 HD
ENDBRANCH   8  18
ENDBRANCH   7  10
ENDBRANCH   1   7
BRANCH   4  25
ATOM     25  C   UNL     1      53.098   2.563  17.991  0.00  0.00    +0.000 C 
BRANCH  25  26
ATOM     26  N   UNL     1      53.386   1.170  17.760  0.00  0.00    +0.000 N 
ATOM     27  C   UNL     1      54.167   0.456  18.633  0.00  0.00    +0.000 C 
ATOM     28  O   UNL     1      54.629   0.959  19.655  0.00  0.00    +0.000 OA
ATOM     29  H   UNL     1      53.228   0.811  16.823  0.00  0.00    +0.000 HD
BRANCH  27  30
ATOM     30  C   UNL     1      54.370  -0.966  18.324  0.00  0.00    +0.000 A 
ATOM     31  C   UNL     1      54.080  -1.927  19.284  0.00  0.00    +0.000 A 
ATOM     32  S   UNL     1      54.312  -3.527  18.741  0.00  0.00    +0.000 S 
ATOM     33  C   UNL     1      54.863  -2.990  17.224  0.00  0.00    +0.000 A 
ATOM     34  N   UNL     1      55.257  -3.876  16.269  0.00  0.00    +0.000 NA
ATOM     35  C   UNL     1      55.686  -3.330  15.180  0.00  0.00    +0.000 A 
ATOM     36  N   UNL     1      55.751  -1.978  14.958  0.00  0.00    +0.000 N 
ATOM     37  C   UNL     1      55.332  -1.049  15.879  0.00  0.00    +0.000 A 
ATOM     38  O   UNL     1      55.359   0.152  15.632  0.00  0.00    +0.000 OA
ATOM     39  C   UNL     1      54.854  -1.610  17.127  0.00  0.00    +0.000 A 
ATOM     40  H   UNL     1      56.088  -1.614  14.080  0.00  0.00    +0.000 HD
ENDBRANCH  27  30
ENDBRANCH  25  26
ENDBRANCH   4  25
TORSDOF 6
ENDMDL
MODEL 7
REMARK VINA RESULT:    -7.231      3.256      3.506
REMARK INTER + INTRA:         -10.966
REMARK INTER:                  -9.536
REMARK INTRA:                  -1.430
REMARK UNBOUND:                -1.198
REMARK  Name = 
REMARK  7 active torsions:
REMARK  status: ('A' for Active; 'I' for Inactive)
REMARK    1  A    between atoms: C_1  and  C_2
REMARK    2  A    between atoms: C_7  and  C_8
REMARK    3  A    between atoms: N_10  and  C_11
REMARK    4  A    between atoms: C_11  and  C_12
REMARK    5  A    between atoms: C_15  and  C_16
REMARK    6  A    between atoms: C_16  and  N_17
REMARK    7  A    between atoms: C_18  and  C_20
REMARK                            x       y       z     vdW  Elec       q    Type
REMARK                         _______ _______ _______ _____ _____    ______ ____
ROOT
ATOM      1  C   UNL     1      46.471   8.294  12.049  0.00  0.00    +0.000 A 
ATOM      2  C   UNL     1      47.603   7.468  12.065  0.00  0.00    +0.000 A 
ATOM      3  C   UNL     1      48.848   7.964  12.479  0.00  0.00    +0.000 A 
ATOM      4  C   UNL     1      48.980   9.293  12.906  0.00  0.00    +0.000 A 
ATOM      5  C   UNL     1      47.849  10.119  12.882  0.00  0.00    +0.000 A 
ATOM      6  C   UNL     1      46.608   9.624  12.472  0.00  0.00    +0.000 A 
ENDROOT
BRANCH   1   7
ATOM      7  C   UNL     1      45.128   7.767  11.602  0.00  0.00    +0.000 C 
BRANCH   7  10
ATOM      8  C   UNL     1      44.052   5.646  10.980  0.00  0.00    +0.000 C 
ATOM      9  O   UNL     1      42.931   6.126  11.125  0.00  0.00    +0.000 OA
ATOM     10  N   UNL     1      45.191   6.384  11.196  0.00  0.00    +0.000 N 
ATOM     11  H   UNL     1      46.109   5.966  11.083  0.00  0.00    +0.000 HD
BRANCH   8  18
ATOM     12  C   UNL     1      46.949   0.988   6.889  0.00  0.00    +0.000 C 
ATOM     13  C   UNL     1      46.227   1.861   7.876  0.00  0.00    +0.000 A 
ATOM     14  N   UNL     1      45.414   1.358   8.759  0.00  0.00    +0.000 NA
ATOM     15  C   UNL     1      44.854   2.296   9.560  0.00  0.00    +0.000 A 
ATOM     16  N   UNL     1      43.970   2.006  10.555  0.00  0.00    +0.000 N 
ATOM     17  C   UNL     1      43.592   3.175  11.169  0.00  0.00    +0.000 A 
ATOM     18  C   UNL     1      44.243   4.249  10.564  0.00  0.00    +0.000 A 
ATOM     19  C   UNL     1      45.047   3.662   9.541  0.00  0.00    +0.000 A 
ATOM     20  C   UNL     1      45.960   4.179   8.552  0.00  0.00    +0.000 A 
ATOM     21  O   UNL     1      46.233   5.367   8.419  0.00  0.00    +0.000 OA
ATOM     22  N   UNL     1      46.514   3.207   7.752  0.00  0.00    +0.000 N 
ATOM     23  H   UNL     1      43.651   1.075  10.789  0.00  0.00    +0.000 HD
ATOM     24  H   UNL     1      47.154   3.537   7.047  0.00  0.00    +0.000 HD
ENDBRANCH   8  18
ENDBRANCH   7  10
ENDBRANCH   1   7
BRANCH   4  25
ATOM     25  C   UNL     1      50.306   9.844  13.365  0.00  0.00    +0.000 C 
BRANCH  25  26
ATOM     26  N   UNL     1      50.400   9.892  14.802  0.00  0.00    +0.000 N 
ATOM     27  C   UNL     1      50.925   8.840  15.511  0.00  0.00    +0.000 C 
ATOM     28  O   UNL     1      51.359   7.834  14.957  0.00  0.00    +0.000 OA
ATOM     29  H   UNL     1      49.835  10.587  15.283  0.00  0.00    +0.000 HD
BRANCH  27  30
ATOM     30  C   UNL     1      51.008   9.005  16.969  0.00  0.00    +0.000 A 
ATOM     31  C   UNL     1      52.241   8.919  17.602  0.00  0.00    +0.000 A 
ATOM     32  S   UNL     1      52.167   9.196  19.283  0.00  0.00    +0.000 S 
ATOM     33  C   UNL     1      50.477   9.384  19.233  0.00  0.00    +0.000 A 
ATOM     34  N   UNL     1      49.766   9.623  20.368  0.00  0.00    +0.000 NA
ATOM     35  C   UNL     1      48.489   9.707  20.188  0.00  0.00    +0.000 A 
ATOM     36  N   UNL     1      47.861   9.578  18.977  0.00  0.00    +0.000 N 
ATOM     37  C   UNL     1      48.541   9.370  17.801  0.00  0.00    +0.000 A 
ATOM     38  O   UNL     1      47.953   9.306  16.726  0.00  0.00    +0.000 OA
ATOM     39  C   UNL     1      49.978   9.253  17.949  0.00  0.00    +0.000 A 
ATOM     40  H   UNL     1      46.858   9.663  18.902  0.00  0.00    +0.000 HD
ENDBRANCH  27  30
ENDBRANCH  25  26
ENDBRANCH   4  25
TORSDOF 6
ENDMDL
MODEL 8
REMARK VINA RESULT:    -7.097      3.848      9.766
REMARK INTER + INTRA:         -10.785
REMARK INTER:                  -9.597
REMARK INTRA:                  -1.188
REMARK UNBOUND:                -1.198
REMARK  Name = 
REMARK  7 active torsions:
REMARK  status: ('A' for Active; 'I' for Inactive)
REMARK    1  A    between atoms: C_1  and  C_2
REMARK    2  A    between atoms: C_7  and  C_8
REMARK    3  A    between atoms: N_10  and  C_11
REMARK    4  A    between atoms: C_11  and  C_12
REMARK    5  A    between atoms: C_15  and  C_16
REMARK    6  A    between atoms: C_16  and  N_17
REMARK    7  A    between atoms: C_18  and  C_20
REMARK                            x       y       z     vdW  Elec       q    Type
REMARK                         _______ _______ _______ _____ _____    ______ ____
ROOT
ATOM      1  C   UNL     1      49.539   5.066  17.674  0.00  0.00    +0.000 A 
ATOM      2  C   UNL     1      50.090   6.345  17.516  0.00  0.00    +0.000 A 
ATOM      3  C   UNL     1      49.662   7.188  16.481  0.00  0.00    +0.000 A 
ATOM      4  C   UNL     1      48.658   6.776  15.593  0.00  0.00    +0.000 A 
ATOM      5  C   UNL     1      48.115   5.493  15.747  0.00  0.00    +0.000 A 
ATOM      6  C   UNL     1      48.540   4.654  16.782  0.00  0.00    +0.000 A 
ENDROOT
BRANCH   1   7
ATOM      7  C   UNL     1      49.998   4.152  18.786  0.00  0.00    +0.000 C 
BRANCH   7  10
ATOM      8  C   UNL     1      52.370   3.686  19.230  0.00  0.00    +0.000 C 
ATOM      9  O   UNL     1      52.377   4.435  20.204  0.00  0.00    +0.000 OA
ATOM     10  N   UNL     1      51.241   3.490  18.473  0.00  0.00    +0.000 N 
ATOM     11  H   UNL     1      51.259   2.877  17.663  0.00  0.00    +0.000 HD
BRANCH   8  18
ATOM     12  C   UNL     1      55.332  -1.756  16.328  0.00  0.00    +0.000 C 
ATOM     13  C   UNL     1      54.862  -0.493  16.991  0.00  0.00    +0.000 A 
ATOM     14  N   UNL     1      55.704   0.392  17.440  0.00  0.00    +0.000 NA
ATOM     15  C   UNL     1      55.097   1.462  18.007  0.00  0.00    +0.000 A 
ATOM     16  N   UNL     1      55.775   2.513  18.549  0.00  0.00    +0.000 N 
ATOM     17  C   UNL     1      54.869   3.420  19.041  0.00  0.00    +0.000 A 
ATOM     18  C   UNL     1      53.575   2.954  18.816  0.00  0.00    +0.000 A 
ATOM     19  C   UNL     1      53.747   1.702  18.150  0.00  0.00    +0.000 A 
ATOM     20  C   UNL     1      52.846   0.702  17.634  0.00  0.00    +0.000 A 
ATOM     21  O   UNL     1      51.624   0.780  17.685  0.00  0.00    +0.000 OA
ATOM     22  N   UNL     1      53.487  -0.375  17.064  0.00  0.00    +0.000 N 
ATOM     23  H   UNL     1      56.783   2.594  18.578  0.00  0.00    +0.000 HD
ATOM     24  H   UNL     1      52.884  -1.094  16.697  0.00  0.00    +0.000 HD
ENDBRANCH   8  18
ENDBRANCH   7  10
ENDBRANCH   1   7
BRANCH   4  25
ATOM     25  C   UNL     1      48.176   7.669  14.479  0.00  0.00    +0.000 C 
BRANCH  25  26
ATOM     26  N   UNL     1      46.929   7.208  13.922  0.00  0.00    +0.000 N 
ATOM     27  C   UNL     1      46.864   6.725  12.639  0.00  0.00    +0.000 C 
ATOM     28  O   UNL     1      47.860   6.640  11.925  0.00  0.00    +0.000 OA
ATOM     29  H   UNL     1      46.075   7.494  14.393  0.00  0.00    +0.000 HD
BRANCH  27  30
ATOM     30  C   UNL     1      45.553   6.247  12.181  0.00  0.00    +0.000 A 
ATOM     31  C   UNL     1      44.643   7.147  11.641  0.00  0.00    +0.000 A 
ATOM     32  S   UNL     1      43.199   6.418  11.102  0.00  0.00    +0.000 S 
ATOM     33  C   UNL     1      43.715   4.883  11.623  0.00  0.00    +0.000 A 
ATOM     34  N   UNL     1      42.917   3.790  11.478  0.00  0.00    +0.000 NA
ATOM     35  C   UNL     1      43.420   2.698  11.951  0.00  0.00    +0.000 A 
ATOM     36  N   UNL     1      44.649   2.599  12.550  0.00  0.00    +0.000 N 
ATOM     37  C   UNL     1      45.501   3.669  12.687  0.00  0.00    +0.000 A 
ATOM     38  O   UNL     1      46.614   3.538  13.186  0.00  0.00    +0.000 OA
ATOM     39  C   UNL     1      44.978   4.924  12.185  0.00  0.00    +0.000 A 
ATOM     40  H   UNL     1      44.988   1.713  12.891  0.00  0.00    +0.000 HD
ENDBRANCH  27  30
ENDBRANCH  25  26
ENDBRANCH   4  25
TORSDOF 6
ENDMDL
MODEL 9
REMARK VINA RESULT:    -6.212      4.689      8.780
REMARK INTER + INTRA:          -9.589
REMARK INTER:                  -7.942
REMARK INTRA:                  -1.647
REMARK UNBOUND:                -1.198
REMARK  Name = 
REMARK  7 active torsions:
REMARK  status: ('A' for Active; 'I' for Inactive)
REMARK    1  A    between atoms: C_1  and  C_2
REMARK    2  A    between atoms: C_7  and  C_8
REMARK    3  A    between atoms: N_10  and  C_11
REMARK    4  A    between atoms: C_11  and  C_12
REMARK    5  A    between atoms: C_15  and  C_16
REMARK    6  A    between atoms: C_16  and  N_17
REMARK    7  A    between atoms: C_18  and  C_20
REMARK                            x       y       z     vdW  Elec       q    Type
REMARK                         _______ _______ _______ _____ _____    ______ ____
ROOT
ATOM      1  C   UNL     1      47.569   4.545  15.803  0.00  0.00    +0.000 A 
ATOM      2  C   UNL     1      48.281   5.749  15.886  0.00  0.00    +0.000 A 
ATOM      3  C   UNL     1      48.302   6.646  14.808  0.00  0.00    +0.000 A 
ATOM      4  C   UNL     1      47.592   6.366  13.632  0.00  0.00    +0.000 A 
ATOM      5  C   UNL     1      46.887   5.158  13.548  0.00  0.00    +0.000 A 
ATOM      6  C   UNL     1      46.864   4.265  14.624  0.00  0.00    +0.000 A 
ENDROOT
BRANCH   1   7
ATOM      7  C   UNL     1      47.545   3.573  16.959  0.00  0.00    +0.000 C 
BRANCH   7  10
ATOM      8  C   UNL     1      49.672   2.345  16.872  0.00  0.00    +0.000 C 
ATOM      9  O   UNL     1      49.305   1.699  15.893  0.00  0.00    +0.000 OA
ATOM     10  N   UNL     1      48.866   3.288  17.462  0.00  0.00    +0.000 N 
ATOM     11  H   UNL     1      49.183   3.802  18.279  0.00  0.00    +0.000 HD
BRANCH   8  18
ATOM     12  C   UNL     1      55.603   4.851  19.186  0.00  0.00    +0.000 C 
ATOM     13  C   UNL     1      54.368   4.127  18.730  0.00  0.00    +0.000 A 
ATOM     14  N   UNL     1      54.273   2.831  18.812  0.00  0.00    +0.000 NA
ATOM     15  C   UNL     1      53.091   2.356  18.351  0.00  0.00    +0.000 A 
ATOM     16  N   UNL     1      52.766   1.033  18.334  0.00  0.00    +0.000 N 
ATOM     17  C   UNL     1      51.507   0.891  17.805  0.00  0.00    +0.000 A 
ATOM     18  C   UNL     1      50.999   2.145  17.471  0.00  0.00    +0.000 A 
ATOM     19  C   UNL     1      52.028   3.067  17.833  0.00  0.00    +0.000 A 
ATOM     20  C   UNL     1      52.169   4.499  17.765  0.00  0.00    +0.000 A 
ATOM     21  O   UNL     1      51.310   5.259  17.335  0.00  0.00    +0.000 OA
ATOM     22  N   UNL     1      53.378   4.957  18.238  0.00  0.00    +0.000 N 
ATOM     23  H   UNL     1      53.369   0.288  18.660  0.00  0.00    +0.000 HD
ATOM     24  H   UNL     1      53.510   5.955  18.201  0.00  0.00    +0.000 HD
ENDBRANCH   8  18
ENDBRANCH   7  10
ENDBRANCH   1   7
BRANCH   4  25
ATOM     25  C   UNL     1      47.592   7.321  12.465  0.00  0.00    +0.000 C 
BRANCH  25  26
ATOM     26  N   UNL     1      48.918   7.798  12.162  0.00  0.00    +0.000 N 
ATOM     27  C   UNL     1      49.213   9.138  12.204  0.00  0.00    +0.000 C 
ATOM     28  O   UNL     1      48.376   9.979  12.525  0.00  0.00    +0.000 OA
ATOM     29  H   UNL     1      49.539   7.164  11.667  0.00  0.00    +0.000 HD
BRANCH  27  30
ATOM     30  C   UNL     1      50.602   9.516  11.913  0.00  0.00    +0.000 A 
ATOM     31  C   UNL     1      50.888  10.271  10.783  0.00  0.00    +0.000 A 
ATOM     32  S   UNL     1      52.537  10.675  10.629  0.00  0.00    +0.000 S 
ATOM     33  C   UNL     1      52.937   9.806  12.036  0.00  0.00    +0.000 A 
ATOM     34  N   UNL     1      54.225   9.726  12.466  0.00  0.00    +0.000 NA
ATOM     35  C   UNL     1      54.389   9.005  13.526  0.00  0.00    +0.000 A 
ATOM     36  N   UNL     1      53.380   8.362  14.196  0.00  0.00    +0.000 N 
ATOM     37  C   UNL     1      52.062   8.444  13.818  0.00  0.00    +0.000 A 
ATOM     38  O   UNL     1      51.177   7.896  14.467  0.00  0.00    +0.000 OA
ATOM     39  C   UNL     1      51.825   9.231  12.624  0.00  0.00    +0.000 A 
ATOM     40  H   UNL     1      53.573   7.820  15.025  0.00  0.00    +0.000 HD
ENDBRANCH  27  30
ENDBRANCH  25  26
ENDBRANCH   4  25
TORSDOF 6
ENDMDL
