MODEL 1
REMARK VINA RESULT:    -8.285      0.000      0.000
REMARK INTER + INTRA:         -12.231
REMARK INTER:                 -11.433
REMARK INTRA:                  -0.798
REMARK UNBOUND:                -0.798
REMARK  Name = 
REMARK  7 active torsions:
REMARK  status: ('A' for Active; 'I' for Inactive)
REMARK    1  A    between atoms: N_1  and  C_2
REMARK    2  A    between atoms: C_2  and  N_3
REMARK    3  A    between atoms: C_2  and  C_16
REMARK    4  A    between atoms: C_4  and  C_6
REMARK    5  A    between atoms: C_19  and  C_20
REMARK    6  A    between atoms: C_20  and  N_21
REMARK    7  A    between atoms: C_22  and  C_24
REMARK                            x       y       z     vdW  Elec       q    Type
REMARK                         _______ _______ _______ _____ _____    ______ ____
ROOT
ATOM      1  C   UNL     1      47.175   7.831  13.496  0.00  0.00    +0.000 C 
ENDROOT
BRANCH   1   2
ATOM      2  C   UNL     1      46.313   6.854  12.719  0.00  0.00    +0.000 A 
ATOM      3  C   UNL     1      45.300   7.337  11.875  0.00  0.00    +0.000 A 
ATOM      4  C   UNL     1      44.492   6.460  11.143  0.00  0.00    +0.000 A 
ATOM      5  C   UNL     1      44.669   5.073  11.243  0.00  0.00    +0.000 A 
ATOM      6  C   UNL     1      45.689   4.585  12.068  0.00  0.00    +0.000 A 
ATOM      7  C   UNL     1      46.494   5.463  12.803  0.00  0.00    +0.000 A 
BRANCH   5   8
ATOM      8  C   UNL     1      43.785   4.128  10.471  0.00  0.00    +0.000 C 
BRANCH   8   9
ATOM      9  N   UNL     1      44.556   3.194   9.687  0.00  0.00    +0.000 N 
ATOM     10  C   UNL     1      45.304   3.614   8.613  0.00  0.00    +0.000 C 
ATOM     11  O   UNL     1      45.328   4.785   8.244  0.00  0.00    +0.000 OA
ATOM     12  H   UNL     1      44.634   2.243  10.012  0.00  0.00    +0.000 HD
BRANCH  10  13
ATOM     13  C   UNL     1      46.066   2.579   7.945  0.00  0.00    +0.000 A 
ATOM     14  C   UNL     1      46.944   2.611   6.872  0.00  0.00    +0.000 A 
ATOM     15  C   UNL     1      47.414   1.294   6.639  0.00  0.00    +0.000 A 
ATOM     16  C   UNL     1      46.814   0.480   7.574  0.00  0.00    +0.000 A 
ATOM     17  N   UNL     1      46.007   1.260   8.355  0.00  0.00    +0.000 N 
ATOM     18  H   UNL     1      45.438   0.940   9.131  0.00  0.00    +0.000 HD
ENDBRANCH  10  13
ENDBRANCH   8   9
ENDBRANCH   5   8
ENDBRANCH   1   2
BRANCH   1  19
ATOM     19  N   UNL     1      47.652   7.263  14.718  0.00  0.00    +0.000 N 
ATOM     20  C   UNL     1      48.952   6.867  14.894  0.00  0.00    +0.000 C 
ATOM     21  O   UNL     1      49.803   7.011  14.020  0.00  0.00    +0.000 OA
ATOM     22  H   UNL     1      46.946   6.920  15.361  0.00  0.00    +0.000 HD
BRANCH  20  23
ATOM     23  C   UNL     1      49.305   6.352  16.223  0.00  0.00    +0.000 A 
ATOM     24  C   UNL     1      50.268   7.010  16.977  0.00  0.00    +0.000 A 
ATOM     25  S   UNL     1      50.519   6.324  18.518  0.00  0.00    +0.000 S 
ATOM     26  C   UNL     1      49.386   5.092  18.213  0.00  0.00    +0.000 A 
ATOM     27  N   UNL     1      49.133   4.130  19.140  0.00  0.00    +0.000 NA
ATOM     28  C   UNL     1      48.283   3.234  18.764  0.00  0.00    +0.000 A 
ATOM     29  N   UNL     1      47.655   3.220  17.545  0.00  0.00    +0.000 N 
ATOM     30  C   UNL     1      47.840   4.198  16.599  0.00  0.00    +0.000 A 
ATOM     31  O   UNL     1      47.201   4.206  15.551  0.00  0.00    +0.000 OA
ATOM     32  C   UNL     1      48.811   5.213  16.960  0.00  0.00    +0.000 A 
ATOM     33  H   UNL     1      46.986   2.499  17.318  0.00  0.00    +0.000 HD
ENDBRANCH  20  23
ENDBRANCH   1  19
BRANCH   1  34
ATOM     34  N   UNL     1      46.425   9.002  13.900  0.00  0.00    +0.000 NA
ATOM     35  H   UNL     1      46.855   9.798  13.431  0.00  0.00    +0.000 HD
ATOM     36  H   UNL     1      46.589   9.150  14.891  0.00  0.00    +0.000 HD
ENDBRANCH   1  34
TORSDOF 7
ENDMDL
MODEL 2
REMARK VINA RESULT:    -8.111      4.542      9.349
REMARK INTER + INTRA:         -11.992
REMARK INTER:                 -11.127
REMARK INTRA:                  -0.865
REMARK UNBOUND:                -0.798
REMARK  Name = 
REMARK  7 active torsions:
REMARK  status: ('A' for Active; 'I' for Inactive)
REMARK    1  A    between atoms: N_1  and  C_2
REMARK    2  A    between atoms: C_2  and  N_3
REMARK    3  A    between atoms: C_2  and  C_16
REMARK    4  A    between atoms: C_4  and  C_6
REMARK    5  A    between atoms: C_19  and  C_20
REMARK    6  A    between atoms: C_20  and  N_21
REMARK    7  A    between atoms: C_22  and  C_24
REMARK                            x       y       z     vdW  Elec       q    Type
REMARK                         _______ _______ _______ _____ _____    ______ ____
ROOT
ATOM      1  C   UNL     1      47.374   3.702  16.968  0.00  0.00    +0.000 C 
ENDROOT
BRANCH   1   2
ATOM      2  C   UNL     1      48.848   3.431  17.207  0.00  0.00    +0.000 A 
ATOM      3  C   UNL     1      49.357   2.136  17.021  0.00  0.00    +0.000 A 
ATOM      4  C   UNL     1      50.713   1.858  17.229  0.00  0.00    +0.000 A 
ATOM      5  C   UNL     1      51.595   2.867  17.638  0.00  0.00    +0.000 A 
ATOM      6  C   UNL     1      51.098   4.164  17.807  0.00  0.00    +0.000 A 
ATOM      7  C   UNL     1      49.742   4.441  17.603  0.00  0.00    +0.000 A 
BRANCH   5   8
ATOM      8  C   UNL     1      53.051   2.563  17.882  0.00  0.00    +0.000 C 
BRANCH   8   9
ATOM      9  N   UNL     1      53.234   1.260  18.473  0.00  0.00    +0.000 N 
ATOM     10  C   UNL     1      53.958   0.283  17.832  0.00  0.00    +0.000 C 
ATOM     11  O   UNL     1      54.450   0.451  16.720  0.00  0.00    +0.000 OA
ATOM     12  H   UNL     1      52.925   1.115  19.422  0.00  0.00    +0.000 HD
BRANCH  10  13
ATOM     13  C   UNL     1      54.104  -0.960  18.561  0.00  0.00    +0.000 A 
ATOM     14  C   UNL     1      55.216  -1.693  18.944  0.00  0.00    +0.000 A 
ATOM     15  C   UNL     1      54.775  -2.842  19.649  0.00  0.00    +0.000 A 
ATOM     16  C   UNL     1      53.399  -2.791  19.682  0.00  0.00    +0.000 A 
ATOM     17  N   UNL     1      53.005  -1.657  19.028  0.00  0.00    +0.000 N 
ATOM     18  H   UNL     1      52.048  -1.349  18.892  0.00  0.00    +0.000 HD
ENDBRANCH  10  13
ENDBRANCH   8   9
ENDBRANCH   5   8
ENDBRANCH   1   2
BRANCH   1  19
ATOM     19  N   UNL     1      47.172   4.657  15.923  0.00  0.00    +0.000 N 
ATOM     20  C   UNL     1      47.132   4.307  14.599  0.00  0.00    +0.000 C 
ATOM     21  O   UNL     1      47.231   3.141  14.226  0.00  0.00    +0.000 OA
ATOM     22  H   UNL     1      47.320   5.630  16.167  0.00  0.00    +0.000 HD
BRANCH  20  23
ATOM     23  C   UNL     1      46.862   5.390  13.644  0.00  0.00    +0.000 A 
ATOM     24  C   UNL     1      47.880   6.274  13.308  0.00  0.00    +0.000 A 
ATOM     25  S   UNL     1      47.424   7.433  12.143  0.00  0.00    +0.000 S 
ATOM     26  C   UNL     1      45.835   6.828  12.085  0.00  0.00    +0.000 A 
ATOM     27  N   UNL     1      44.899   7.399  11.281  0.00  0.00    +0.000 NA
ATOM     28  C   UNL     1      43.726   6.867  11.364  0.00  0.00    +0.000 A 
ATOM     29  N   UNL     1      43.407   5.806  12.172  0.00  0.00    +0.000 N 
ATOM     30  C   UNL     1      44.331   5.164  12.960  0.00  0.00    +0.000 A 
ATOM     31  O   UNL     1      44.037   4.165  13.607  0.00  0.00    +0.000 OA
ATOM     32  C   UNL     1      45.660   5.744  12.927  0.00  0.00    +0.000 A 
ATOM     33  H   UNL     1      42.473   5.424  12.177  0.00  0.00    +0.000 HD
ENDBRANCH  20  23
ENDBRANCH   1  19
BRANCH   1  34
ATOM     34  N   UNL     1      46.744   4.290  18.132  0.00  0.00    +0.000 NA
ATOM     35  H   UNL     1      46.816   5.301  18.021  0.00  0.00    +0.000 HD
ATOM     36  H   UNL     1      47.314   4.065  18.941  0.00  0.00    +0.000 HD
ENDBRANCH   1  34
TORSDOF 7
ENDMDL
MODEL 3
REMARK VINA RESULT:    -7.986      1.998      3.799
REMARK INTER + INTRA:         -11.819
REMARK INTER:                 -10.663
REMARK INTRA:                  -1.156
REMARK UNBOUND:                -0.798
REMARK  Name = 
REMARK  7 active torsions:
REMARK  status: ('A' for Active; 'I' for Inactive)
REMARK    1  A    between atoms: N_1  and  C_2
REMARK    2  A    between atoms: C_2  and  N_3
REMARK    3  A    between atoms: C_2  and  C_16
REMARK    4  A    between atoms: C_4  and  C_6
REMARK    5  A    between atoms: C_19  and  C_20
REMARK    6  A    between atoms: C_20  and  N_21
REMARK    7  A    between atoms: C_22  and  C_24
REMARK                            x       y       z     vdW  Elec       q    Type
REMARK                         _______ _______ _______ _____ _____    ______ ____
ROOT
ATOM      1  C   UNL     1      46.771   4.749  14.830  0.00  0.00    +0.000 C 
ENDROOT
BRANCH   1   2
ATOM      2  C   UNL     1      45.996   4.644  13.530  0.00  0.00    +0.000 A 
ATOM      3  C   UNL     1      45.808   3.389  12.930  0.00  0.00    +0.000 A 
ATOM      4  C   UNL     1      45.094   3.262  11.733  0.00  0.00    +0.000 A 
ATOM      5  C   UNL     1      44.555   4.389  11.098  0.00  0.00    +0.000 A 
ATOM      6  C   UNL     1      44.722   5.641  11.701  0.00  0.00    +0.000 A 
ATOM      7  C   UNL     1      45.440   5.769  12.895  0.00  0.00    +0.000 A 
BRANCH   5   8
ATOM      8  C   UNL     1      43.804   4.254   9.799  0.00  0.00    +0.000 C 
BRANCH   8   9
ATOM      9  N   UNL     1      44.559   3.516   8.818  0.00  0.00    +0.000 N 
ATOM     10  C   UNL     1      45.653   4.070   8.196  0.00  0.00    +0.000 C 
ATOM     11  O   UNL     1      46.019   5.222   8.413  0.00  0.00    +0.000 OA
ATOM     12  H   UNL     1      44.346   2.540   8.681  0.00  0.00    +0.000 HD
BRANCH  10  13
ATOM     13  C   UNL     1      46.347   3.202   7.269  0.00  0.00    +0.000 A 
ATOM     14  C   UNL     1      46.746   3.369   5.952  0.00  0.00    +0.000 A 
ATOM     15  C   UNL     1      47.399   2.184   5.528  0.00  0.00    +0.000 A 
ATOM     16  C   UNL     1      47.387   1.313   6.594  0.00  0.00    +0.000 A 
ATOM     17  N   UNL     1      46.755   1.932   7.636  0.00  0.00    +0.000 N 
ATOM     18  H   UNL     1      46.596   1.538   8.557  0.00  0.00    +0.000 HD
ENDBRANCH  10  13
ENDBRANCH   8   9
ENDBRANCH   5   8
ENDBRANCH   1   2
BRANCH   1  19
ATOM     19  N   UNL     1      47.755   5.785  14.779  0.00  0.00    +0.000 N 
ATOM     20  C   UNL     1      48.519   6.135  15.862  0.00  0.00    +0.000 C 
ATOM     21  O   UNL     1      48.430   5.553  16.941  0.00  0.00    +0.000 OA
ATOM     22  H   UNL     1      47.693   6.428  13.998  0.00  0.00    +0.000 HD
BRANCH  20  23
ATOM     23  C   UNL     1      49.526   7.180  15.642  0.00  0.00    +0.000 A 
ATOM     24  C   UNL     1      50.832   6.971  16.067  0.00  0.00    +0.000 A 
ATOM     25  S   UNL     1      51.891   8.251  15.682  0.00  0.00    +0.000 S 
ATOM     26  C   UNL     1      50.631   9.153  14.980  0.00  0.00    +0.000 A 
ATOM     27  N   UNL     1      50.862  10.390  14.464  0.00  0.00    +0.000 NA
ATOM     28  C   UNL     1      49.812  10.980  14.000  0.00  0.00    +0.000 A 
ATOM     29  N   UNL     1      48.551  10.440  13.996  0.00  0.00    +0.000 N 
ATOM     30  C   UNL     1      48.281   9.174  14.459  0.00  0.00    +0.000 A 
ATOM     31  O   UNL     1      47.161   8.684  14.366  0.00  0.00    +0.000 OA
ATOM     32  C   UNL     1      49.424   8.480  15.021  0.00  0.00    +0.000 A 
ATOM     33  H   UNL     1      47.774  10.947  13.601  0.00  0.00    +0.000 HD
ENDBRANCH  20  23
ENDBRANCH   1  19
BRANCH   1  34
ATOM     34  N   UNL     1      47.520   3.541  15.104  0.00  0.00    +0.000 NA
ATOM     35  H   UNL     1      47.510   3.417  16.117  0.00  0.00    +0.000 HD
ATOM     36  H   UNL     1      48.490   3.713  14.862  0.00  0.00    +0.000 HD
ENDBRANCH   1  34
TORSDOF 7
ENDMDL
MODEL 4
REMARK VINA RESULT:    -7.786      2.351      3.493
REMARK INTER + INTRA:         -11.544
REMARK INTER:                 -10.595
REMARK INTRA:                  -0.949
REMARK UNBOUND:                -0.798
REMARK  Name = 
REMARK  7 active torsions:
REMARK  status: ('A' for Active; 'I' for Inactive)
REMARK    1  A    between atoms: N_1  and  C_2
REMARK    2  A    between atoms: C_2  and  N_3
REMARK    3  A    between atoms: C_2  and  C_16
REMARK    4  A    between atoms: C_4  and  C_6
REMARK    5  A    between atoms: C_19  and  C_20
REMARK    6  A    between atoms: C_20  and  N_21
REMARK    7  A    between atoms: C_22  and  C_24
REMARK                            x       y       z     vdW  Elec       q    Type
REMARK                         _______ _______ _______ _____ _____    ______ ____
ROOT
ATOM      1  C   UNL     1      46.795   4.367  14.995  0.00  0.00    +0.000 C 
ENDROOT
BRANCH   1   2
ATOM      2  C   UNL     1      46.054   4.402  13.672  0.00  0.00    +0.000 A 
ATOM      3  C   UNL     1      45.812   3.206  12.977  0.00  0.00    +0.000 A 
ATOM      4  C   UNL     1      45.127   3.208  11.757  0.00  0.00    +0.000 A 
ATOM      5  C   UNL     1      44.673   4.407  11.193  0.00  0.00    +0.000 A 
ATOM      6  C   UNL     1      44.895   5.601  11.889  0.00  0.00    +0.000 A 
ATOM      7  C   UNL     1      45.584   5.600  13.107  0.00  0.00    +0.000 A 
BRANCH   5   8
ATOM      8  C   UNL     1      43.954   4.411   9.868  0.00  0.00    +0.000 C 
BRANCH   8   9
ATOM      9  N   UNL     1      44.673   3.664   8.866  0.00  0.00    +0.000 N 
ATOM     10  C   UNL     1      45.792   4.182   8.258  0.00  0.00    +0.000 C 
ATOM     11  O   UNL     1      46.214   5.308   8.506  0.00  0.00    +0.000 OA
ATOM     12  H   UNL     1      44.413   2.703   8.703  0.00  0.00    +0.000 HD
BRANCH  10  13
ATOM     13  C   UNL     1      46.444   3.306   7.307  0.00  0.00    +0.000 A 
ATOM     14  C   UNL     1      46.810   1.970   7.366  0.00  0.00    +0.000 A 
ATOM     15  C   UNL     1      47.420   1.619   6.135  0.00  0.00    +0.000 A 
ATOM     16  C   UNL     1      47.417   2.747   5.346  0.00  0.00    +0.000 A 
ATOM     17  N   UNL     1      46.828   3.755   6.057  0.00  0.00    +0.000 N 
ATOM     18  H   UNL     1      46.681   4.706   5.735  0.00  0.00    +0.000 HD
ENDBRANCH  10  13
ENDBRANCH   8   9
ENDBRANCH   5   8
ENDBRANCH   1   2
BRANCH   1  19
ATOM     19  N   UNL     1      47.585   5.542  15.193  0.00  0.00    +0.000 N 
ATOM     20  C   UNL     1      48.342   5.746  16.317  0.00  0.00    +0.000 C 
ATOM     21  O   UNL     1      48.419   4.910  17.214  0.00  0.00    +0.000 OA
ATOM     22  H   UNL     1      47.367   6.336  14.601  0.00  0.00    +0.000 HD
BRANCH  20  23
ATOM     23  C   UNL     1      49.142   6.976  16.353  0.00  0.00    +0.000 A 
ATOM     24  C   UNL     1      50.107   7.193  15.378  0.00  0.00    +0.000 A 
ATOM     25  S   UNL     1      50.904   8.693  15.523  0.00  0.00    +0.000 S 
ATOM     26  C   UNL     1      50.025   9.085  16.926  0.00  0.00    +0.000 A 
ATOM     27  N   UNL     1      50.244  10.255  17.584  0.00  0.00    +0.000 NA
ATOM     28  C   UNL     1      49.538  10.407  18.654  0.00  0.00    +0.000 A 
ATOM     29  N   UNL     1      48.623   9.498  19.120  0.00  0.00    +0.000 N 
ATOM     30  C   UNL     1      48.332   8.329  18.460  0.00  0.00    +0.000 A 
ATOM     31  O   UNL     1      47.448   7.575  18.855  0.00  0.00    +0.000 OA
ATOM     32  C   UNL     1      49.122   8.094  17.267  0.00  0.00    +0.000 A 
ATOM     33  H   UNL     1      48.090   9.686  19.955  0.00  0.00    +0.000 HD
ENDBRANCH  20  23
ENDBRANCH   1  19
BRANCH   1  34
ATOM     34  N   UNL     1      47.742   3.273  15.049  0.00  0.00    +0.000 NA
ATOM     35  H   UNL     1      48.260   3.380  15.921  0.00  0.00    +0.000 HD
ATOM     36  H   UNL     1      48.424   3.414  14.310  0.00  0.00    +0.000 HD
ENDBRANCH   1  34
TORSDOF 7
ENDMDL
MODEL 5
REMARK VINA RESULT:    -7.766      2.269      3.276
REMARK INTER + INTRA:         -11.515
REMARK INTER:                 -10.503
REMARK INTRA:                  -1.012
REMARK UNBOUND:                -0.798
REMARK  Name = 
REMARK  7 active torsions:
REMARK  status: ('A' for Active; 'I' for Inactive)
REMARK    1  A    between atoms: N_1  and  C_2
REMARK    2  A    between atoms: C_2  and  N_3
REMARK    3  A    between atoms: C_2  and  C_16
REMARK    4  A    between atoms: C_4  and  C_6
REMARK    5  A    between atoms: C_19  and  C_20
REMARK    6  A    between atoms: C_20  and  N_21
REMARK    7  A    between atoms: C_22  and  C_24
REMARK                            x       y       z     vdW  Elec       q    Type
REMARK                         _______ _______ _______ _____ _____    ______ ____
ROOT
ATOM      1  C   UNL     1      46.894   4.702  15.165  0.00  0.00    +0.000 C 
ENDROOT
BRANCH   1   2
ATOM      2  C   UNL     1      46.147   4.611  13.848  0.00  0.00    +0.000 A 
ATOM      3  C   UNL     1      45.624   5.774  13.262  0.00  0.00    +0.000 A 
ATOM      4  C   UNL     1      44.933   5.721  12.046  0.00  0.00    +0.000 A 
ATOM      5  C   UNL     1      44.739   4.500  11.386  0.00  0.00    +0.000 A 
ATOM      6  C   UNL     1      45.275   3.338  11.956  0.00  0.00    +0.000 A 
ATOM      7  C   UNL     1      45.960   3.391  13.174  0.00  0.00    +0.000 A 
BRANCH   5   8
ATOM      8  C   UNL     1      43.978   4.439  10.087  0.00  0.00    +0.000 C 
BRANCH   8   9
ATOM      9  N   UNL     1      44.650   3.618   9.111  0.00  0.00    +0.000 N 
ATOM     10  C   UNL     1      45.684   4.114   8.353  0.00  0.00    +0.000 C 
ATOM     11  O   UNL     1      46.064   5.278   8.440  0.00  0.00    +0.000 OA
ATOM     12  H   UNL     1      44.429   2.634   9.076  0.00  0.00    +0.000 HD
BRANCH  10  13
ATOM     13  C   UNL     1      46.300   3.168   7.447  0.00  0.00    +0.000 A 
ATOM     14  C   UNL     1      46.718   3.272   6.129  0.00  0.00    +0.000 A 
ATOM     15  C   UNL     1      47.263   2.024   5.732  0.00  0.00    +0.000 A 
ATOM     16  C   UNL     1      47.166   1.179   6.815  0.00  0.00    +0.000 A 
ATOM     17  N   UNL     1      46.589   1.874   7.840  0.00  0.00    +0.000 N 
ATOM     18  H   UNL     1      46.390   1.513   8.768  0.00  0.00    +0.000 HD
ENDBRANCH  10  13
ENDBRANCH   8   9
ENDBRANCH   5   8
ENDBRANCH   1   2
BRANCH   1  19
ATOM     19  N   UNL     1      47.948   5.667  15.112  0.00  0.00    +0.000 N 
ATOM     20  C   UNL     1      48.576   6.141  16.234  0.00  0.00    +0.000 C 
ATOM     21  O   UNL     1      48.297   5.737  17.360  0.00  0.00    +0.000 OA
ATOM     22  H   UNL     1      48.042   6.185  14.245  0.00  0.00    +0.000 HD
BRANCH  20  23
ATOM     23  C   UNL     1      49.677   7.088  16.017  0.00  0.00    +0.000 A 
ATOM     24  C   UNL     1      49.400   8.357  15.524  0.00  0.00    +0.000 A 
ATOM     25  S   UNL     1      50.776   9.355  15.388  0.00  0.00    +0.000 S 
ATOM     26  C   UNL     1      51.799   8.110  15.934  0.00  0.00    +0.000 A 
ATOM     27  N   UNL     1      53.142   8.301  16.032  0.00  0.00    +0.000 NA
ATOM     28  C   UNL     1      53.804   7.263  16.419  0.00  0.00    +0.000 A 
ATOM     29  N   UNL     1      53.241   6.051  16.729  0.00  0.00    +0.000 N 
ATOM     30  C   UNL     1      51.886   5.828  16.695  0.00  0.00    +0.000 A 
ATOM     31  O   UNL     1      51.404   4.760  17.058  0.00  0.00    +0.000 OA
ATOM     32  C   UNL     1      51.099   6.955  16.234  0.00  0.00    +0.000 A 
ATOM     33  H   UNL     1      53.814   5.282  17.044  0.00  0.00    +0.000 HD
ENDBRANCH  20  23
ENDBRANCH   1  19
BRANCH   1  34
ATOM     34  N   UNL     1      47.552   3.455  15.493  0.00  0.00    +0.000 NA
ATOM     35  H   UNL     1      46.865   2.886  15.988  0.00  0.00    +0.000 HD
ATOM     36  H   UNL     1      48.278   3.654  16.173  0.00  0.00    +0.000 HD
ENDBRANCH   1  34
TORSDOF 7
ENDMDL
MODEL 6
REMARK VINA RESULT:    -7.613      1.640      2.328
REMARK INTER + INTRA:         -11.304
REMARK INTER:                 -10.408
REMARK INTRA:                  -0.896
REMARK UNBOUND:                -0.798
REMARK  Name = 
REMARK  7 active torsions:
REMARK  status: ('A' for Active; 'I' for Inactive)
REMARK    1  A    between atoms: N_1  and  C_2
REMARK    2  A    between atoms: C_2  and  N_3
REMARK    3  A    between atoms: C_2  and  C_16
REMARK    4  A    between atoms: C_4  and  C_6
REMARK    5  A    between atoms: C_19  and  C_20
REMARK    6  A    between atoms: C_20  and  N_21
REMARK    7  A    between atoms: C_22  and  C_24
REMARK                            x       y       z     vdW  Elec       q    Type
REMARK                         _______ _______ _______ _____ _____    ______ ____
ROOT
ATOM      1  C   UNL     1      47.706   7.369  13.855  0.00  0.00    +0.000 C 
ENDROOT
BRANCH   1   2
ATOM      2  C   UNL     1      46.759   6.539  13.009  0.00  0.00    +0.000 A 
ATOM      3  C   UNL     1      46.540   5.190  13.329  0.00  0.00    +0.000 A 
ATOM      4  C   UNL     1      45.670   4.400  12.569  0.00  0.00    +0.000 A 
ATOM      5  C   UNL     1      45.000   4.937  11.462  0.00  0.00    +0.000 A 
ATOM      6  C   UNL     1      45.199   6.287  11.148  0.00  0.00    +0.000 A 
ATOM      7  C   UNL     1      46.073   7.075  11.905  0.00  0.00    +0.000 A 
BRANCH   5   8
ATOM      8  C   UNL     1      44.078   4.082  10.631  0.00  0.00    +0.000 C 
BRANCH   8   9
ATOM      9  N   UNL     1      44.809   3.169   9.788  0.00  0.00    +0.000 N 
ATOM     10  C   UNL     1      45.376   3.587   8.608  0.00  0.00    +0.000 C 
ATOM     11  O   UNL     1      45.261   4.737   8.194  0.00  0.00    +0.000 OA
ATOM     12  H   UNL     1      45.003   2.242  10.137  0.00  0.00    +0.000 HD
BRANCH  10  13
ATOM     13  C   UNL     1      46.122   2.579   7.885  0.00  0.00    +0.000 A 
ATOM     14  C   UNL     1      46.905   2.636   6.742  0.00  0.00    +0.000 A 
ATOM     15  C   UNL     1      47.408   1.336   6.479  0.00  0.00    +0.000 A 
ATOM     16  C   UNL     1      46.923   0.508   7.466  0.00  0.00    +0.000 A 
ATOM     17  N   UNL     1      46.153   1.262   8.307  0.00  0.00    +0.000 N 
ATOM     18  H   UNL     1      45.664   0.927   9.130  0.00  0.00    +0.000 HD
ENDBRANCH  10  13
ENDBRANCH   8   9
ENDBRANCH   5   8
ENDBRANCH   1   2
BRANCH   1  19
ATOM     19  N   UNL     1      48.166   6.648  15.001  0.00  0.00    +0.000 N 
ATOM     20  C   UNL     1      49.041   7.183  15.910  0.00  0.00    +0.000 C 
ATOM     21  O   UNL     1      49.459   8.334  15.816  0.00  0.00    +0.000 OA
ATOM     22  H   UNL     1      48.032   5.643  14.984  0.00  0.00    +0.000 HD
BRANCH  20  23
ATOM     23  C   UNL     1      49.380   6.341  17.064  0.00  0.00    +0.000 A 
ATOM     24  C   UNL     1      48.372   5.917  17.920  0.00  0.00    +0.000 A 
ATOM     25  S   UNL     1      48.919   4.898  19.173  0.00  0.00    +0.000 S 
ATOM     26  C   UNL     1      50.532   5.030  18.647  0.00  0.00    +0.000 A 
ATOM     27  N   UNL     1      51.538   4.401  19.314  0.00  0.00    +0.000 NA
ATOM     28  C   UNL     1      52.715   4.618  18.832  0.00  0.00    +0.000 A 
ATOM     29  N   UNL     1      52.978   5.399  17.736  0.00  0.00    +0.000 N 
ATOM     30  C   UNL     1      51.990   6.010  17.002  0.00  0.00    +0.000 A 
ATOM     31  O   UNL     1      52.247   6.633  15.977  0.00  0.00    +0.000 OA
ATOM     32  C   UNL     1      50.649   5.824  17.520  0.00  0.00    +0.000 A 
ATOM     33  H   UNL     1      53.922   5.514  17.399  0.00  0.00    +0.000 HD
ENDBRANCH  20  23
ENDBRANCH   1  19
BRANCH   1  34
ATOM     34  N   UNL     1      47.050   8.542  14.395  0.00  0.00    +0.000 NA
ATOM     35  H   UNL     1      46.319   8.797  13.731  0.00  0.00    +0.000 HD
ATOM     36  H   UNL     1      47.714   9.308  14.374  0.00  0.00    +0.000 HD
ENDBRANCH   1  34
TORSDOF 7
ENDMDL
MODEL 7
REMARK VINA RESULT:    -7.462      2.225      2.405
REMARK INTER + INTRA:         -11.096
REMARK INTER:                  -9.952
REMARK INTRA:                  -1.145
REMARK UNBOUND:                -0.798
REMARK  Name = 
REMARK  7 active torsions:
REMARK  status: ('A' for Active; 'I' for Inactive)
REMARK    1  A    between atoms: N_1  and  C_2
REMARK    2  A    between atoms: C_2  and  N_3
REMARK    3  A    between atoms: C_2  and  C_16
REMARK    4  A    between atoms: C_4  and  C_6
REMARK    5  A    between atoms: C_19  and  C_20
REMARK    6  A    between atoms: C_20  and  N_21
REMARK    7  A    between atoms: C_22  and  C_24
REMARK                            x       y       z     vdW  Elec       q    Type
REMARK                         _______ _______ _______ _____ _____    ______ ____
ROOT
ATOM      1  C   UNL     1      47.735   9.044  13.476  0.00  0.00    +0.000 C 
ENDROOT
BRANCH   1   2
ATOM      2  C   UNL     1      46.928   8.033  12.684  0.00  0.00    +0.000 A 
ATOM      3  C   UNL     1      45.531   8.001  12.814  0.00  0.00    +0.000 A 
ATOM      4  C   UNL     1      44.760   7.082  12.092  0.00  0.00    +0.000 A 
ATOM      5  C   UNL     1      45.368   6.163  11.226  0.00  0.00    +0.000 A 
ATOM      6  C   UNL     1      46.759   6.202  11.077  0.00  0.00    +0.000 A 
ATOM      7  C   UNL     1      47.530   7.117  11.802  0.00  0.00    +0.000 A 
BRANCH   5   8
ATOM      8  C   UNL     1      44.540   5.160  10.465  0.00  0.00    +0.000 C 
BRANCH   8   9
ATOM      9  N   UNL     1      45.315   4.483   9.455  0.00  0.00    +0.000 N 
ATOM     10  C   UNL     1      45.004   3.204   9.057  0.00  0.00    +0.000 C 
ATOM     11  O   UNL     1      44.084   2.564   9.559  0.00  0.00    +0.000 OA
ATOM     12  H   UNL     1      46.017   5.007   8.956  0.00  0.00    +0.000 HD
BRANCH  10  13
ATOM     13  C   UNL     1      45.834   2.663   8.001  0.00  0.00    +0.000 A 
ATOM     14  C   UNL     1      46.217   3.162   6.765  0.00  0.00    +0.000 A 
ATOM     15  C   UNL     1      47.049   2.203   6.134  0.00  0.00    +0.000 A 
ATOM     16  C   UNL     1      47.158   1.134   6.995  0.00  0.00    +0.000 A 
ATOM     17  N   UNL     1      46.427   1.419   8.114  0.00  0.00    +0.000 N 
ATOM     18  H   UNL     1      46.320   0.820   8.925  0.00  0.00    +0.000 HD
ENDBRANCH  10  13
ENDBRANCH   8   9
ENDBRANCH   5   8
ENDBRANCH   1   2
BRANCH   1  19
ATOM     19  N   UNL     1      47.605   8.841  14.885  0.00  0.00    +0.000 N 
ATOM     20  C   UNL     1      48.452   9.413  15.798  0.00  0.00    +0.000 C 
ATOM     21  O   UNL     1      49.360  10.170  15.463  0.00  0.00    +0.000 OA
ATOM     22  H   UNL     1      47.031   8.056  15.176  0.00  0.00    +0.000 HD
BRANCH  20  23
ATOM     23  C   UNL     1      48.159   9.156  17.213  0.00  0.00    +0.000 A 
ATOM     24  C   UNL     1      47.815  10.215  18.044  0.00  0.00    +0.000 A 
ATOM     25  S   UNL     1      47.445   9.743  19.640  0.00  0.00    +0.000 S 
ATOM     26  C   UNL     1      47.782   8.112  19.292  0.00  0.00    +0.000 A 
ATOM     27  N   UNL     1      47.681   7.157  20.256  0.00  0.00    +0.000 NA
ATOM     28  C   UNL     1      48.004   5.969  19.867  0.00  0.00    +0.000 A 
ATOM     29  N   UNL     1      48.409   5.648  18.597  0.00  0.00    +0.000 N 
ATOM     30  C   UNL     1      48.475   6.569  17.580  0.00  0.00    +0.000 A 
ATOM     31  O   UNL     1      48.758   6.237  16.433  0.00  0.00    +0.000 OA
ATOM     32  C   UNL     1      48.152   7.927  17.972  0.00  0.00    +0.000 A 
ATOM     33  H   UNL     1      48.630   4.694  18.352  0.00  0.00    +0.000 HD
ENDBRANCH  20  23
ENDBRANCH   1  19
BRANCH   1  34
ATOM     34  N   UNL     1      47.266  10.395  13.253  0.00  0.00    +0.000 NA
ATOM     35  H   UNL     1      46.247  10.348  13.228  0.00  0.00    +0.000 HD
ATOM     36  H   UNL     1      47.547  10.672  12.318  0.00  0.00    +0.000 HD
ENDBRANCH   1  34
TORSDOF 7
ENDMDL
MODEL 8
REMARK VINA RESULT:    -7.138      3.841      8.849
REMARK INTER + INTRA:         -10.649
REMARK INTER:                  -9.766
REMARK INTRA:                  -0.883
REMARK UNBOUND:                -0.798
REMARK  Name = 
REMARK  7 active torsions:
REMARK  status: ('A' for Active; 'I' for Inactive)
REMARK    1  A    between atoms: N_1  and  C_2
REMARK    2  A    between atoms: C_2  and  N_3
REMARK    3  A    between atoms: C_2  and  C_16
REMARK    4  A    between atoms: C_4  and  C_6
REMARK    5  A    between atoms: C_19  and  C_20
REMARK    6  A    between atoms: C_20  and  N_21
REMARK    7  A    between atoms: C_22  and  C_24
REMARK                            x       y       z     vdW  Elec       q    Type
REMARK                         _______ _______ _______ _____ _____    ______ ____
ROOT
ATOM      1  C   UNL     1      47.332   3.432  16.517  0.00  0.00    +0.000 C 
ENDROOT
BRANCH   1   2
ATOM      2  C   UNL     1      48.729   3.820  16.963  0.00  0.00    +0.000 A 
ATOM      3  C   UNL     1      49.094   5.175  17.007  0.00  0.00    +0.000 A 
ATOM      4  C   UNL     1      50.374   5.563  17.418  0.00  0.00    +0.000 A 
ATOM      5  C   UNL     1      51.328   4.606  17.787  0.00  0.00    +0.000 A 
ATOM      6  C   UNL     1      50.965   3.254  17.763  0.00  0.00    +0.000 A 
ATOM      7  C   UNL     1      49.686   2.866  17.348  0.00  0.00    +0.000 A 
BRANCH   5   8
ATOM      8  C   UNL     1      52.713   5.022  18.210  0.00  0.00    +0.000 C 
BRANCH   8   9
ATOM      9  N   UNL     1      53.321   5.911  17.251  0.00  0.00    +0.000 N 
ATOM     10  C   UNL     1      54.426   5.530  16.527  0.00  0.00    +0.000 C 
ATOM     11  O   UNL     1      54.970   4.441  16.681  0.00  0.00    +0.000 OA
ATOM     12  H   UNL     1      52.850   6.776  17.030  0.00  0.00    +0.000 HD
BRANCH  10  13
ATOM     13  C   UNL     1      54.903   6.501  15.565  0.00  0.00    +0.000 A 
ATOM     14  C   UNL     1      55.481   7.753  15.709  0.00  0.00    +0.000 A 
ATOM     15  C   UNL     1      55.761   8.269  14.418  0.00  0.00    +0.000 A 
ATOM     16  C   UNL     1      55.348   7.322  13.507  0.00  0.00    +0.000 A 
ATOM     17  N   UNL     1      54.835   6.264  14.204  0.00  0.00    +0.000 N 
ATOM     18  H   UNL     1      54.454   5.414  13.803  0.00  0.00    +0.000 HD
ENDBRANCH  10  13
ENDBRANCH   8   9
ENDBRANCH   5   8
ENDBRANCH   1   2
BRANCH   1  19
ATOM     19  N   UNL     1      46.774   4.392  15.617  0.00  0.00    +0.000 N 
ATOM     20  C   UNL     1      46.829   4.250  14.255  0.00  0.00    +0.000 C 
ATOM     21  O   UNL     1      47.331   3.265  13.720  0.00  0.00    +0.000 OA
ATOM     22  H   UNL     1      46.568   5.307  16.004  0.00  0.00    +0.000 HD
BRANCH  20  23
ATOM     23  C   UNL     1      46.165   5.292  13.461  0.00  0.00    +0.000 A 
ATOM     24  C   UNL     1      46.803   6.509  13.261  0.00  0.00    +0.000 A 
ATOM     25  S   UNL     1      45.929   7.585  12.268  0.00  0.00    +0.000 S 
ATOM     26  C   UNL     1      44.643   6.483  12.112  0.00  0.00    +0.000 A 
ATOM     27  N   UNL     1      43.535   6.799  11.390  0.00  0.00    +0.000 NA
ATOM     28  C   UNL     1      42.620   5.888  11.389  0.00  0.00    +0.000 A 
ATOM     29  N   UNL     1      42.718   4.684  12.036  0.00  0.00    +0.000 N 
ATOM     30  C   UNL     1      43.839   4.300  12.733  0.00  0.00    +0.000 A 
ATOM     31  O   UNL     1      43.932   3.183  13.231  0.00  0.00    +0.000 OA
ATOM     32  C   UNL     1      44.885   5.302  12.792  0.00  0.00    +0.000 A 
ATOM     33  H   UNL     1      41.972   4.006  11.981  0.00  0.00    +0.000 HD
ENDBRANCH  20  23
ENDBRANCH   1  19
BRANCH   1  34
ATOM     34  N   UNL     1      46.408   3.391  17.632  0.00  0.00    +0.000 NA
ATOM     35  H   UNL     1      46.183   2.408  17.786  0.00  0.00    +0.000 HD
ATOM     36  H   UNL     1      45.540   3.823  17.333  0.00  0.00    +0.000 HD
ENDBRANCH   1  34
TORSDOF 7
ENDMDL
MODEL 9
REMARK VINA RESULT:    -7.096      3.122      4.816
REMARK INTER + INTRA:         -10.590
REMARK INTER:                  -9.363
REMARK INTRA:                  -1.227
REMARK UNBOUND:                -0.798
REMARK  Name = 
REMARK  7 active torsions:
REMARK  status: ('A' for Active; 'I' for Inactive)
REMARK    1  A    between atoms: N_1  and  C_2
REMARK    2  A    between atoms: C_2  and  N_3
REMARK    3  A    between atoms: C_2  and  C_16
REMARK    4  A    between atoms: C_4  and  C_6
REMARK    5  A    between atoms: C_19  and  C_20
REMARK    6  A    between atoms: C_20  and  N_21
REMARK    7  A    between atoms: C_22  and  C_24
REMARK                            x       y       z     vdW  Elec       q    Type
REMARK                         _______ _______ _______ _____ _____    ______ ____
ROOT
ATOM      1  C   UNL     1      48.126   6.572  14.642  0.00  0.00    +0.000 C 
ENDROOT
BRANCH   1   2
ATOM      2  C   UNL     1      47.168   5.999  13.615  0.00  0.00    +0.000 A 
ATOM      3  C   UNL     1      46.824   6.756  12.484  0.00  0.00    +0.000 A 
ATOM      4  C   UNL     1      45.947   6.252  11.518  0.00  0.00    +0.000 A 
ATOM      5  C   UNL     1      45.380   4.978  11.661  0.00  0.00    +0.000 A 
ATOM      6  C   UNL     1      45.733   4.210  12.776  0.00  0.00    +0.000 A 
ATOM      7  C   UNL     1      46.607   4.716  13.745  0.00  0.00    +0.000 A 
BRANCH   5   8
ATOM      8  C   UNL     1      44.419   4.443  10.631  0.00  0.00    +0.000 C 
BRANCH   8   9
ATOM      9  N   UNL     1      45.066   3.538   9.713  0.00  0.00    +0.000 N 
ATOM     10  C   UNL     1      45.755   4.005   8.619  0.00  0.00    +0.000 C 
ATOM     11  O   UNL     1      45.826   5.200   8.347  0.00  0.00    +0.000 OA
ATOM     12  H   UNL     1      45.109   2.559   9.953  0.00  0.00    +0.000 HD
BRANCH  10  13
ATOM     13  C   UNL     1      46.397   2.991   7.810  0.00  0.00    +0.000 A 
ATOM     14  C   UNL     1      46.449   1.609   7.912  0.00  0.00    +0.000 A 
ATOM     15  C   UNL     1      47.223   1.110   6.834  0.00  0.00    +0.000 A 
ATOM     16  C   UNL     1      47.632   2.196   6.093  0.00  0.00    +0.000 A 
ATOM     17  N   UNL     1      47.130   3.321   6.685  0.00  0.00    +0.000 N 
ATOM     18  H   UNL     1      47.262   4.274   6.364  0.00  0.00    +0.000 HD
ENDBRANCH  10  13
ENDBRANCH   8   9
ENDBRANCH   5   8
ENDBRANCH   1   2
BRANCH   1  19
ATOM     19  N   UNL     1      49.280   7.150  14.027  0.00  0.00    +0.000 N 
ATOM     20  C   UNL     1      50.175   7.926  14.716  0.00  0.00    +0.000 C 
ATOM     21  O   UNL     1      50.062   8.143  15.920  0.00  0.00    +0.000 OA
ATOM     22  H   UNL     1      49.280   7.188  13.014  0.00  0.00    +0.000 HD
BRANCH  20  23
ATOM     23  C   UNL     1      51.341   8.405  13.963  0.00  0.00    +0.000 A 
ATOM     24  C   UNL     1      52.617   8.186  14.465  0.00  0.00    +0.000 A 
ATOM     25  S   UNL     1      53.862   8.746  13.444  0.00  0.00    +0.000 S 
ATOM     26  C   UNL     1      52.739   9.350  12.317  0.00  0.00    +0.000 A 
ATOM     27  N   UNL     1      53.153   9.988  11.190  0.00  0.00    +0.000 NA
ATOM     28  C   UNL     1      52.198  10.430  10.443  0.00  0.00    +0.000 A 
ATOM     29  N   UNL     1      50.862  10.282  10.717  0.00  0.00    +0.000 N 
ATOM     30  C   UNL     1      50.398   9.599  11.815  0.00  0.00    +0.000 A 
ATOM     31  O   UNL     1      49.198   9.409  11.991  0.00  0.00    +0.000 OA
ATOM     32  C   UNL     1      51.433   9.109  12.705  0.00  0.00    +0.000 A 
ATOM     33  H   UNL     1      50.163  10.636  10.082  0.00  0.00    +0.000 HD
ENDBRANCH  20  23
ENDBRANCH   1  19
BRANCH   1  34
ATOM     34  N   UNL     1      48.649   5.543  15.516  0.00  0.00    +0.000 NA
ATOM     35  H   UNL     1      49.333   5.997  16.121  0.00  0.00    +0.000 HD
ATOM     36  H   UNL     1      49.181   4.891  14.948  0.00  0.00    +0.000 HD
ENDBRANCH   1  34
TORSDOF 7
ENDMDL
