MODEL 1
REMARK VINA RESULT:    -7.895      0.000      0.000
REMARK INTER + INTRA:         -12.226
REMARK INTER:                 -11.126
REMARK INTRA:                  -1.099
REMARK UNBOUND:                -1.099
REMARK  Name = 
REMARK  8 active torsions:
REMARK  status: ('A' for Active; 'I' for Inactive)
REMARK    1  A    between atoms: C_1  and  O_2
REMARK    2  A    between atoms: O_2  and  C_3
REMARK    3  A    between atoms: C_7  and  C_8
REMARK    4  A    between atoms: C_8  and  O_9
REMARK    5  A    between atoms: O_9  and  C_10
REMARK    6  A    between atoms: C_13  and  C_14
REMARK    7  A    between atoms: C_14  and  N_15
REMARK    8  A    between atoms: C_16  and  C_18
REMARK                            x       y       z     vdW  Elec       q    Type
REMARK                         _______ _______ _______ _____ _____    ______ ____
ROOT
ATOM      1  C   UNL     1      45.209   3.998  12.765  0.00  0.00    +0.000 A 
ATOM      2  C   UNL     1      44.874   5.347  12.742  0.00  0.00    +0.000 A 
ATOM      3  C   UNL     1      45.801   6.293  13.178  0.00  0.00    +0.000 A 
ATOM      4  C   UNL     1      47.030   5.852  13.663  0.00  0.00    +0.000 A 
ATOM      5  N   UNL     1      47.367   4.540  13.718  0.00  0.00    +0.000 NA
ATOM      6  C   UNL     1      46.451   3.649  13.277  0.00  0.00    +0.000 A 
ENDROOT
BRANCH   1   7
ATOM      7  O   UNL     1      44.269   3.135  12.282  0.00  0.00    +0.000 OA
BRANCH   7   8
ATOM      8  C   UNL     1      43.597   3.592  11.104  0.00  0.00    +0.000 C 
BRANCH   8  13
ATOM      9  C   UNL     1      45.639   1.897   8.564  0.00  0.00    +0.000 A 
ATOM     10  C   UNL     1      46.092   2.905   7.731  0.00  0.00    +0.000 A 
ATOM     11  C   UNL     1      45.706   4.212   8.006  0.00  0.00    +0.000 A 
ATOM     12  C   UNL     1      44.883   4.462   9.098  0.00  0.00    +0.000 A 
ATOM     13  C   UNL     1      44.452   3.388   9.876  0.00  0.00    +0.000 A 
ATOM     14  N   UNL     1      44.838   2.112   9.628  0.00  0.00    +0.000 NA
BRANCH   9  16
ATOM     15  C   UNL     1      47.098   0.588   7.301  0.00  0.00    +0.000 C 
ATOM     16  O   UNL     1      46.053   0.616   8.269  0.00  0.00    +0.000 OA
ENDBRANCH   9  16
ENDBRANCH   8  13
ENDBRANCH   7   8
ENDBRANCH   1   7
BRANCH   4  17
ATOM     17  C   UNL     1      48.073   6.839  14.120  0.00  0.00    +0.000 C 
BRANCH  17  18
ATOM     18  N   UNL     1      48.291   6.772  15.547  0.00  0.00    +0.000 N 
ATOM     19  C   UNL     1      49.544   6.741  16.096  0.00  0.00    +0.000 C 
ATOM     20  O   UNL     1      50.559   6.765  15.404  0.00  0.00    +0.000 OA
ATOM     21  H   UNL     1      47.484   6.505  16.104  0.00  0.00    +0.000 HD
BRANCH  19  22
ATOM     22  C   UNL     1      49.616   6.761  17.563  0.00  0.00    +0.000 A 
ATOM     23  C   UNL     1      50.137   7.877  18.205  0.00  0.00    +0.000 A 
ATOM     24  S   UNL     1      50.099   7.770  19.905  0.00  0.00    +0.000 S 
ATOM     25  C   UNL     1      49.430   6.206  19.846  0.00  0.00    +0.000 A 
ATOM     26  N   UNL     1      49.165   5.518  20.989  0.00  0.00    +0.000 NA
ATOM     27  C   UNL     1      48.693   4.331  20.798  0.00  0.00    +0.000 A 
ATOM     28  N   UNL     1      48.455   3.774  19.569  0.00  0.00    +0.000 N 
ATOM     29  C   UNL     1      48.660   4.451  18.390  0.00  0.00    +0.000 A 
ATOM     30  O   UNL     1      48.363   3.953  17.310  0.00  0.00    +0.000 OA
ATOM     31  C   UNL     1      49.219   5.780  18.546  0.00  0.00    +0.000 A 
ATOM     32  H   UNL     1      48.069   2.845  19.487  0.00  0.00    +0.000 HD
ENDBRANCH  19  22
ENDBRANCH  17  18
ENDBRANCH   4  17
TORSDOF 7
ENDMDL
MODEL 2
REMARK VINA RESULT:    -7.757      1.463      1.771
REMARK INTER + INTRA:         -12.030
REMARK INTER:                 -11.131
REMARK INTRA:                  -0.899
REMARK UNBOUND:                -1.099
REMARK  Name = 
REMARK  8 active torsions:
REMARK  status: ('A' for Active; 'I' for Inactive)
REMARK    1  A    between atoms: C_1  and  O_2
REMARK    2  A    between atoms: O_2  and  C_3
REMARK    3  A    between atoms: C_7  and  C_8
REMARK    4  A    between atoms: C_8  and  O_9
REMARK    5  A    between atoms: O_9  and  C_10
REMARK    6  A    between atoms: C_13  and  C_14
REMARK    7  A    between atoms: C_14  and  N_15
REMARK    8  A    between atoms: C_16  and  C_18
REMARK                            x       y       z     vdW  Elec       q    Type
REMARK                         _______ _______ _______ _____ _____    ______ ____
ROOT
ATOM      1  C   UNL     1      44.967   5.161  11.943  0.00  0.00    +0.000 A 
ATOM      2  C   UNL     1      45.553   4.488  13.009  0.00  0.00    +0.000 A 
ATOM      3  C   UNL     1      46.644   5.055  13.663  0.00  0.00    +0.000 A 
ATOM      4  C   UNL     1      47.145   6.270  13.202  0.00  0.00    +0.000 A 
ATOM      5  N   UNL     1      46.605   6.931  12.148  0.00  0.00    +0.000 NA
ATOM      6  C   UNL     1      45.540   6.360  11.542  0.00  0.00    +0.000 A 
ENDROOT
BRANCH   1   7
ATOM      7  O   UNL     1      43.876   4.567  11.380  0.00  0.00    +0.000 OA
BRANCH   7   8
ATOM      8  C   UNL     1      43.756   4.767   9.968  0.00  0.00    +0.000 C 
BRANCH   8  13
ATOM      9  C   UNL     1      46.047   3.485   7.399  0.00  0.00    +0.000 A 
ATOM     10  C   UNL     1      46.192   2.138   7.682  0.00  0.00    +0.000 A 
ATOM     11  C   UNL     1      45.511   1.616   8.776  0.00  0.00    +0.000 A 
ATOM     12  C   UNL     1      44.715   2.458   9.545  0.00  0.00    +0.000 A 
ATOM     13  C   UNL     1      44.638   3.807   9.206  0.00  0.00    +0.000 A 
ATOM     14  N   UNL     1      45.284   4.322   8.130  0.00  0.00    +0.000 NA
BRANCH   9  16
ATOM     15  C   UNL     1      47.101   2.929   5.394  0.00  0.00    +0.000 C 
ATOM     16  O   UNL     1      46.726   3.963   6.299  0.00  0.00    +0.000 OA
ENDBRANCH   9  16
ENDBRANCH   8  13
ENDBRANCH   7   8
ENDBRANCH   1   7
BRANCH   4  17
ATOM     17  C   UNL     1      48.308   6.934  13.895  0.00  0.00    +0.000 C 
BRANCH  17  18
ATOM     18  N   UNL     1      48.112   7.012  15.324  0.00  0.00    +0.000 N 
ATOM     19  C   UNL     1      49.085   6.657  16.218  0.00  0.00    +0.000 C 
ATOM     20  O   UNL     1      50.184   6.247  15.853  0.00  0.00    +0.000 OA
ATOM     21  H   UNL     1      47.148   7.108  15.632  0.00  0.00    +0.000 HD
BRANCH  19  22
ATOM     22  C   UNL     1      48.779   6.870  17.638  0.00  0.00    +0.000 A 
ATOM     23  C   UNL     1      48.527   8.157  18.096  0.00  0.00    +0.000 A 
ATOM     24  S   UNL     1      48.132   8.230  19.752  0.00  0.00    +0.000 S 
ATOM     25  C   UNL     1      48.332   6.550  19.929  0.00  0.00    +0.000 A 
ATOM     26  N   UNL     1      48.160   5.951  21.139  0.00  0.00    +0.000 NA
ATOM     27  C   UNL     1      48.377   4.678  21.139  0.00  0.00    +0.000 A 
ATOM     28  N   UNL     1      48.743   3.949  20.038  0.00  0.00    +0.000 N 
ATOM     29  C   UNL     1      48.879   4.503  18.787  0.00  0.00    +0.000 A 
ATOM     30  O   UNL     1      49.130   3.810  17.807  0.00  0.00    +0.000 OA
ATOM     31  C   UNL     1      48.675   5.937  18.736  0.00  0.00    +0.000 A 
ATOM     32  H   UNL     1      48.884   2.951  20.100  0.00  0.00    +0.000 HD
ENDBRANCH  19  22
ENDBRANCH  17  18
ENDBRANCH   4  17
TORSDOF 7
ENDMDL
MODEL 3
REMARK VINA RESULT:    -7.619      2.054      2.530
REMARK INTER + INTRA:         -11.837
REMARK INTER:                 -10.829
REMARK INTRA:                  -1.008
REMARK UNBOUND:                -1.099
REMARK  Name = 
REMARK  8 active torsions:
REMARK  status: ('A' for Active; 'I' for Inactive)
REMARK    1  A    between atoms: C_1  and  O_2
REMARK    2  A    between atoms: O_2  and  C_3
REMARK    3  A    between atoms: C_7  and  C_8
REMARK    4  A    between atoms: C_8  and  O_9
REMARK    5  A    between atoms: O_9  and  C_10
REMARK    6  A    between atoms: C_13  and  C_14
REMARK    7  A    between atoms: C_14  and  N_15
REMARK    8  A    between atoms: C_16  and  C_18
REMARK                            x       y       z     vdW  Elec       q    Type
REMARK                         _______ _______ _______ _____ _____    ______ ____
ROOT
ATOM      1  C   UNL     1      45.302   5.419  11.867  0.00  0.00    +0.000 A 
ATOM      2  C   UNL     1      46.457   6.105  12.221  0.00  0.00    +0.000 A 
ATOM      3  C   UNL     1      47.129   5.762  13.393  0.00  0.00    +0.000 A 
ATOM      4  C   UNL     1      46.598   4.759  14.200  0.00  0.00    +0.000 A 
ATOM      5  N   UNL     1      45.457   4.094  13.886  0.00  0.00    +0.000 NA
ATOM      6  C   UNL     1      44.836   4.443  12.737  0.00  0.00    +0.000 A 
ENDROOT
BRANCH   1   7
ATOM      7  O   UNL     1      44.724   5.781  10.685  0.00  0.00    +0.000 OA
BRANCH   7   8
ATOM      8  C   UNL     1      43.910   4.765  10.090  0.00  0.00    +0.000 C 
BRANCH   8  13
ATOM      9  C   UNL     1      46.067   3.509   7.397  0.00  0.00    +0.000 A 
ATOM     10  C   UNL     1      46.204   2.154   7.643  0.00  0.00    +0.000 A 
ATOM     11  C   UNL     1      45.563   1.617   8.755  0.00  0.00    +0.000 A 
ATOM     12  C   UNL     1      44.814   2.452   9.575  0.00  0.00    +0.000 A 
ATOM     13  C   UNL     1      44.743   3.811   9.270  0.00  0.00    +0.000 A 
ATOM     14  N   UNL     1      45.349   4.340   8.178  0.00  0.00    +0.000 NA
BRANCH   9  16
ATOM     15  C   UNL     1      47.090   2.975   5.370  0.00  0.00    +0.000 C 
ATOM     16  O   UNL     1      46.706   4.003   6.279  0.00  0.00    +0.000 OA
ENDBRANCH   9  16
ENDBRANCH   8  13
ENDBRANCH   7   8
ENDBRANCH   1   7
BRANCH   4  17
ATOM     17  C   UNL     1      47.303   4.334  15.463  0.00  0.00    +0.000 C 
BRANCH  17  18
ATOM     18  N   UNL     1      47.739   5.469  16.244  0.00  0.00    +0.000 N 
ATOM     19  C   UNL     1      48.981   5.532  16.816  0.00  0.00    +0.000 C 
ATOM     20  O   UNL     1      49.797   4.621  16.699  0.00  0.00    +0.000 OA
ATOM     21  H   UNL     1      47.005   6.102  16.551  0.00  0.00    +0.000 HD
BRANCH  19  22
ATOM     22  C   UNL     1      49.320   6.781  17.508  0.00  0.00    +0.000 A 
ATOM     23  C   UNL     1      50.358   7.568  17.026  0.00  0.00    +0.000 A 
ATOM     24  S   UNL     1      50.590   9.011  17.903  0.00  0.00    +0.000 S 
ATOM     25  C   UNL     1      49.342   8.613  18.990  0.00  0.00    +0.000 A 
ATOM     26  N   UNL     1      49.032   9.438  20.027  0.00  0.00    +0.000 NA
ATOM     27  C   UNL     1      48.091   8.999  20.794  0.00  0.00    +0.000 A 
ATOM     28  N   UNL     1      47.428   7.813  20.614  0.00  0.00    +0.000 N 
ATOM     29  C   UNL     1      47.673   6.974  19.553  0.00  0.00    +0.000 A 
ATOM     30  O   UNL     1      47.007   5.959  19.377  0.00  0.00    +0.000 OA
ATOM     31  C   UNL     1      48.743   7.406  18.676  0.00  0.00    +0.000 A 
ATOM     32  H   UNL     1      46.688   7.533  21.242  0.00  0.00    +0.000 HD
ENDBRANCH  19  22
ENDBRANCH  17  18
ENDBRANCH   4  17
TORSDOF 7
ENDMDL
MODEL 4
REMARK VINA RESULT:    -7.529      1.796      2.189
REMARK INTER + INTRA:         -11.709
REMARK INTER:                 -10.960
REMARK INTRA:                  -0.749
REMARK UNBOUND:                -1.099
REMARK  Name = 
REMARK  8 active torsions:
REMARK  status: ('A' for Active; 'I' for Inactive)
REMARK    1  A    between atoms: C_1  and  O_2
REMARK    2  A    between atoms: O_2  and  C_3
REMARK    3  A    between atoms: C_7  and  C_8
REMARK    4  A    between atoms: C_8  and  O_9
REMARK    5  A    between atoms: O_9  and  C_10
REMARK    6  A    between atoms: C_13  and  C_14
REMARK    7  A    between atoms: C_14  and  N_15
REMARK    8  A    between atoms: C_16  and  C_18
REMARK                            x       y       z     vdW  Elec       q    Type
REMARK                         _______ _______ _______ _____ _____    ______ ____
ROOT
ATOM      1  C   UNL     1      44.834   4.818  11.144  0.00  0.00    +0.000 A 
ATOM      2  C   UNL     1      45.362   6.044  10.757  0.00  0.00    +0.000 A 
ATOM      3  C   UNL     1      46.294   6.679  11.575  0.00  0.00    +0.000 A 
ATOM      4  C   UNL     1      46.644   6.081  12.783  0.00  0.00    +0.000 A 
ATOM      5  N   UNL     1      46.121   4.898  13.191  0.00  0.00    +0.000 NA
ATOM      6  C   UNL     1      45.228   4.301  12.370  0.00  0.00    +0.000 A 
ENDROOT
BRANCH   1   7
ATOM      7  O   UNL     1      43.961   4.235  10.272  0.00  0.00    +0.000 OA
BRANCH   7   8
ATOM      8  C   UNL     1      44.255   2.868   9.966  0.00  0.00    +0.000 C 
BRANCH   8  13
ATOM      9  C   UNL     1      46.732   1.467   7.645  0.00  0.00    +0.000 A 
ATOM     10  C   UNL     1      47.019   2.490   6.759  0.00  0.00    +0.000 A 
ATOM     11  C   UNL     1      46.364   3.706   6.920  0.00  0.00    +0.000 A 
ATOM     12  C   UNL     1      45.449   3.851   7.956  0.00  0.00    +0.000 A 
ATOM     13  C   UNL     1      45.200   2.765   8.793  0.00  0.00    +0.000 A 
ATOM     14  N   UNL     1      45.847   1.581   8.656  0.00  0.00    +0.000 NA
BRANCH   9  16
ATOM     15  C   UNL     1      46.536  -0.838   7.345  0.00  0.00    +0.000 C 
ATOM     16  O   UNL     1      47.411   0.280   7.462  0.00  0.00    +0.000 OA
ENDBRANCH   9  16
ENDBRANCH   8  13
ENDBRANCH   7   8
ENDBRANCH   1   7
BRANCH   4  17
ATOM     17  C   UNL     1      47.667   6.718  13.688  0.00  0.00    +0.000 C 
BRANCH  17  18
ATOM     18  N   UNL     1      47.665   6.125  15.006  0.00  0.00    +0.000 N 
ATOM     19  C   UNL     1      48.780   6.099  15.799  0.00  0.00    +0.000 C 
ATOM     20  O   UNL     1      49.851   6.576  15.433  0.00  0.00    +0.000 OA
ATOM     21  H   UNL     1      46.876   5.520  15.216  0.00  0.00    +0.000 HD
BRANCH  19  22
ATOM     22  C   UNL     1      48.610   5.543  17.148  0.00  0.00    +0.000 A 
ATOM     23  C   UNL     1      48.799   4.183  17.354  0.00  0.00    +0.000 A 
ATOM     24  S   UNL     1      48.624   3.705  18.980  0.00  0.00    +0.000 S 
ATOM     25  C   UNL     1      48.240   5.291  19.461  0.00  0.00    +0.000 A 
ATOM     26  N   UNL     1      47.950   5.575  20.760  0.00  0.00    +0.000 NA
ATOM     27  C   UNL     1      47.642   6.809  20.979  0.00  0.00    +0.000 A 
ATOM     28  N   UNL     1      47.607   7.787  20.020  0.00  0.00    +0.000 N 
ATOM     29  C   UNL     1      47.942   7.557  18.707  0.00  0.00    +0.000 A 
ATOM     30  O   UNL     1      47.977   8.470  17.889  0.00  0.00    +0.000 OA
ATOM     31  C   UNL     1      48.267   6.178  18.399  0.00  0.00    +0.000 A 
ATOM     32  H   UNL     1      47.374   8.740  20.260  0.00  0.00    +0.000 HD
ENDBRANCH  19  22
ENDBRANCH  17  18
ENDBRANCH   4  17
TORSDOF 7
ENDMDL
MODEL 5
REMARK VINA RESULT:    -7.150      1.769      3.075
REMARK INTER + INTRA:         -11.176
REMARK INTER:                 -10.157
REMARK INTRA:                  -1.019
REMARK UNBOUND:                -1.099
REMARK  Name = 
REMARK  8 active torsions:
REMARK  status: ('A' for Active; 'I' for Inactive)
REMARK    1  A    between atoms: C_1  and  O_2
REMARK    2  A    between atoms: O_2  and  C_3
REMARK    3  A    between atoms: C_7  and  C_8
REMARK    4  A    between atoms: C_8  and  O_9
REMARK    5  A    between atoms: O_9  and  C_10
REMARK    6  A    between atoms: C_13  and  C_14
REMARK    7  A    between atoms: C_14  and  N_15
REMARK    8  A    between atoms: C_16  and  C_18
REMARK                            x       y       z     vdW  Elec       q    Type
REMARK                         _______ _______ _______ _____ _____    ______ ____
ROOT
ATOM      1  C   UNL     1      45.368   5.185  11.701  0.00  0.00    +0.000 A 
ATOM      2  C   UNL     1      46.171   6.149  12.298  0.00  0.00    +0.000 A 
ATOM      3  C   UNL     1      46.791   5.871  13.514  0.00  0.00    +0.000 A 
ATOM      4  C   UNL     1      46.556   4.639  14.120  0.00  0.00    +0.000 A 
ATOM      5  N   UNL     1      45.755   3.693  13.567  0.00  0.00    +0.000 NA
ATOM      6  C   UNL     1      45.178   3.990  12.382  0.00  0.00    +0.000 A 
ENDROOT
BRANCH   1   7
ATOM      7  O   UNL     1      44.830   5.512  10.491  0.00  0.00    +0.000 OA
BRANCH   7   8
ATOM      8  C   UNL     1      44.158   4.434   9.832  0.00  0.00    +0.000 C 
BRANCH   8  13
ATOM      9  C   UNL     1      46.015   1.680   8.264  0.00  0.00    +0.000 A 
ATOM     10  C   UNL     1      46.824   2.281   7.316  0.00  0.00    +0.000 A 
ATOM     11  C   UNL     1      46.758   3.663   7.172  0.00  0.00    +0.000 A 
ATOM     12  C   UNL     1      45.887   4.388   7.977  0.00  0.00    +0.000 A 
ATOM     13  C   UNL     1      45.090   3.705   8.894  0.00  0.00    +0.000 A 
ATOM     14  N   UNL     1      45.160   2.360   9.055  0.00  0.00    +0.000 NA
BRANCH   9  16
ATOM     15  C   UNL     1      46.782  -0.290   7.279  0.00  0.00    +0.000 C 
ATOM     16  O   UNL     1      46.117   0.311   8.387  0.00  0.00    +0.000 OA
ENDBRANCH   9  16
ENDBRANCH   8  13
ENDBRANCH   7   8
ENDBRANCH   1   7
BRANCH   4  17
ATOM     17  C   UNL     1      47.225   4.282  15.422  0.00  0.00    +0.000 C 
BRANCH  17  18
ATOM     18  N   UNL     1      47.914   5.412  16.002  0.00  0.00    +0.000 N 
ATOM     19  C   UNL     1      48.858   5.271  16.983  0.00  0.00    +0.000 C 
ATOM     20  O   UNL     1      49.170   4.171  17.431  0.00  0.00    +0.000 OA
ATOM     21  H   UNL     1      47.498   6.322  15.823  0.00  0.00    +0.000 HD
BRANCH  19  22
ATOM     22  C   UNL     1      49.540   6.497  17.416  0.00  0.00    +0.000 A 
ATOM     23  C   UNL     1      49.660   6.766  18.773  0.00  0.00    +0.000 A 
ATOM     24  S   UNL     1      50.526   8.194  19.115  0.00  0.00    +0.000 S 
ATOM     25  C   UNL     1      50.730   8.531  17.459  0.00  0.00    +0.000 A 
ATOM     26  N   UNL     1      51.383   9.652  17.051  0.00  0.00    +0.000 NA
ATOM     27  C   UNL     1      51.434   9.802  15.770  0.00  0.00    +0.000 A 
ATOM     28  N   UNL     1      50.898   8.929  14.860  0.00  0.00    +0.000 N 
ATOM     29  C   UNL     1      50.274   7.759  15.225  0.00  0.00    +0.000 A 
ATOM     30  O   UNL     1      49.875   6.961  14.385  0.00  0.00    +0.000 OA
ATOM     31  C   UNL     1      50.163   7.556  16.656  0.00  0.00    +0.000 A 
ATOM     32  H   UNL     1      50.985   9.095  13.868  0.00  0.00    +0.000 HD
ENDBRANCH  19  22
ENDBRANCH  17  18
ENDBRANCH   4  17
TORSDOF 7
ENDMDL
MODEL 6
REMARK VINA RESULT:    -7.042      3.597      8.594
REMARK INTER + INTRA:         -11.023
REMARK INTER:                 -10.354
REMARK INTRA:                  -0.669
REMARK UNBOUND:                -1.099
REMARK  Name = 
REMARK  8 active torsions:
REMARK  status: ('A' for Active; 'I' for Inactive)
REMARK    1  A    between atoms: C_1  and  O_2
REMARK    2  A    between atoms: O_2  and  C_3
REMARK    3  A    between atoms: C_7  and  C_8
REMARK    4  A    between atoms: C_8  and  O_9
REMARK    5  A    between atoms: O_9  and  C_10
REMARK    6  A    between atoms: C_13  and  C_14
REMARK    7  A    between atoms: C_14  and  N_15
REMARK    8  A    between atoms: C_16  and  C_18
REMARK                            x       y       z     vdW  Elec       q    Type
REMARK                         _______ _______ _______ _____ _____    ______ ____
ROOT
ATOM      1  C   UNL     1      49.882   6.273  16.754  0.00  0.00    +0.000 A 
ATOM      2  C   UNL     1      50.741   7.042  15.977  0.00  0.00    +0.000 A 
ATOM      3  C   UNL     1      50.325   7.479  14.721  0.00  0.00    +0.000 A 
ATOM      4  C   UNL     1      49.067   7.098  14.261  0.00  0.00    +0.000 A 
ATOM      5  N   UNL     1      48.224   6.326  14.992  0.00  0.00    +0.000 NA
ATOM      6  C   UNL     1      48.652   5.929  16.211  0.00  0.00    +0.000 A 
ENDROOT
BRANCH   1   7
ATOM      7  O   UNL     1      50.340   5.920  17.989  0.00  0.00    +0.000 OA
BRANCH   7   8
ATOM      8  C   UNL     1      51.701   5.477  18.011  0.00  0.00    +0.000 C 
BRANCH   8  13
ATOM      9  C   UNL     1      50.773   2.073  16.990  0.00  0.00    +0.000 A 
ATOM     10  C   UNL     1      51.789   1.263  17.463  0.00  0.00    +0.000 A 
ATOM     11  C   UNL     1      52.843   1.857  18.149  0.00  0.00    +0.000 A 
ATOM     12  C   UNL     1      52.841   3.235  18.333  0.00  0.00    +0.000 A 
ATOM     13  C   UNL     1      51.790   3.983  17.807  0.00  0.00    +0.000 A 
ATOM     14  N   UNL     1      50.749   3.411  17.153  0.00  0.00    +0.000 NA
BRANCH   9  16
ATOM     15  C   UNL     1      48.546   2.226  16.313  0.00  0.00    +0.000 C 
ATOM     16  O   UNL     1      49.739   1.447  16.327  0.00  0.00    +0.000 OA
ENDBRANCH   9  16
ENDBRANCH   8  13
ENDBRANCH   7   8
ENDBRANCH   1   7
BRANCH   4  17
ATOM     17  C   UNL     1      48.564   7.568  12.920  0.00  0.00    +0.000 C 
BRANCH  17  18
ATOM     18  N   UNL     1      47.739   6.573  12.275  0.00  0.00    +0.000 N 
ATOM     19  C   UNL     1      46.519   6.873  11.732  0.00  0.00    +0.000 C 
ATOM     20  O   UNL     1      46.053   8.008  11.767  0.00  0.00    +0.000 OA
ATOM     21  H   UNL     1      47.992   5.605  12.455  0.00  0.00    +0.000 HD
BRANCH  19  22
ATOM     22  C   UNL     1      45.829   5.783  11.030  0.00  0.00    +0.000 A 
ATOM     23  C   UNL     1      45.954   5.672   9.652  0.00  0.00    +0.000 A 
ATOM     24  S   UNL     1      45.143   4.324   8.996  0.00  0.00    +0.000 S 
ATOM     25  C   UNL     1      44.553   3.867  10.525  0.00  0.00    +0.000 A 
ATOM     26  N   UNL     1      43.750   2.778  10.665  0.00  0.00    +0.000 NA
ATOM     27  C   UNL     1      43.346   2.566  11.873  0.00  0.00    +0.000 A 
ATOM     28  N   UNL     1      43.678   3.339  12.954  0.00  0.00    +0.000 N 
ATOM     29  C   UNL     1      44.527   4.418  12.868  0.00  0.00    +0.000 A 
ATOM     30  O   UNL     1      44.867   5.042  13.867  0.00  0.00    +0.000 OA
ATOM     31  C   UNL     1      44.987   4.719  11.526  0.00  0.00    +0.000 A 
ATOM     32  H   UNL     1      43.341   3.111  13.878  0.00  0.00    +0.000 HD
ENDBRANCH  19  22
ENDBRANCH  17  18
ENDBRANCH   4  17
TORSDOF 7
ENDMDL
MODEL 7
REMARK VINA RESULT:    -6.723      3.166      9.032
REMARK INTER + INTRA:         -10.574
REMARK INTER:                  -9.619
REMARK INTRA:                  -0.955
REMARK UNBOUND:                -1.099
REMARK  Name = 
REMARK  8 active torsions:
REMARK  status: ('A' for Active; 'I' for Inactive)
REMARK    1  A    between atoms: C_1  and  O_2
REMARK    2  A    between atoms: O_2  and  C_3
REMARK    3  A    between atoms: C_7  and  C_8
REMARK    4  A    between atoms: C_8  and  O_9
REMARK    5  A    between atoms: O_9  and  C_10
REMARK    6  A    between atoms: C_13  and  C_14
REMARK    7  A    between atoms: C_14  and  N_15
REMARK    8  A    between atoms: C_16  and  C_18
REMARK                            x       y       z     vdW  Elec       q    Type
REMARK                         _______ _______ _______ _____ _____    ______ ____
ROOT
ATOM      1  C   UNL     1      50.440   7.172  15.671  0.00  0.00    +0.000 A 
ATOM      2  C   UNL     1      50.897   7.839  14.540  0.00  0.00    +0.000 A 
ATOM      3  C   UNL     1      50.038   8.026  13.459  0.00  0.00    +0.000 A 
ATOM      4  C   UNL     1      48.750   7.501  13.528  0.00  0.00    +0.000 A 
ATOM      5  N   UNL     1      48.293   6.825  14.611  0.00  0.00    +0.000 NA
ATOM      6  C   UNL     1      49.146   6.671  15.648  0.00  0.00    +0.000 A 
ENDROOT
BRANCH   1   7
ATOM      7  O   UNL     1      51.322   7.067  16.706  0.00  0.00    +0.000 OA
BRANCH   7   8
ATOM      8  C   UNL     1      50.835   6.315  17.823  0.00  0.00    +0.000 C 
BRANCH   8  13
ATOM      9  C   UNL     1      50.946   2.698  17.194  0.00  0.00    +0.000 A 
ATOM     10  C   UNL     1      52.134   2.268  17.759  0.00  0.00    +0.000 A 
ATOM     11  C   UNL     1      52.951   3.209  18.375  0.00  0.00    +0.000 A 
ATOM     12  C   UNL     1      52.553   4.541  18.401  0.00  0.00    +0.000 A 
ATOM     13  C   UNL     1      51.351   4.896  17.790  0.00  0.00    +0.000 A 
ATOM     14  N   UNL     1      50.538   3.983  17.203  0.00  0.00    +0.000 NA
BRANCH   9  16
ATOM     15  C   UNL     1      48.789   2.126  16.518  0.00  0.00    +0.000 C 
ATOM     16  O   UNL     1      50.156   1.735  16.604  0.00  0.00    +0.000 OA
ENDBRANCH   9  16
ENDBRANCH   8  13
ENDBRANCH   7   8
ENDBRANCH   1   7
BRANCH   4  17
ATOM     17  C   UNL     1      47.777   7.701  12.393  0.00  0.00    +0.000 C 
BRANCH  17  18
ATOM     18  N   UNL     1      47.032   6.497  12.104  0.00  0.00    +0.000 N 
ATOM     19  C   UNL     1      45.684   6.400  12.318  0.00  0.00    +0.000 C 
ATOM     20  O   UNL     1      45.029   7.334  12.774  0.00  0.00    +0.000 OA
ATOM     21  H   UNL     1      47.587   5.658  11.965  0.00  0.00    +0.000 HD
BRANCH  19  22
ATOM     22  C   UNL     1      45.043   5.149  11.896  0.00  0.00    +0.000 A 
ATOM     23  C   UNL     1      44.324   4.405  12.822  0.00  0.00    +0.000 A 
ATOM     24  S   UNL     1      43.593   3.012  12.165  0.00  0.00    +0.000 S 
ATOM     25  C   UNL     1      44.252   3.326  10.628  0.00  0.00    +0.000 A 
ATOM     26  N   UNL     1      44.024   2.481   9.587  0.00  0.00    +0.000 NA
ATOM     27  C   UNL     1      44.613   2.819   8.488  0.00  0.00    +0.000 A 
ATOM     28  N   UNL     1      45.401   3.930   8.335  0.00  0.00    +0.000 N 
ATOM     29  C   UNL     1      45.617   4.837   9.345  0.00  0.00    +0.000 A 
ATOM     30  O   UNL     1      46.262   5.862   9.153  0.00  0.00    +0.000 OA
ATOM     31  C   UNL     1      45.002   4.489  10.611  0.00  0.00    +0.000 A 
ATOM     32  H   UNL     1      45.821   4.148   7.443  0.00  0.00    +0.000 HD
ENDBRANCH  19  22
ENDBRANCH  17  18
ENDBRANCH   4  17
TORSDOF 7
ENDMDL
MODEL 8
REMARK VINA RESULT:    -6.692      3.039      8.748
REMARK INTER + INTRA:         -10.530
REMARK INTER:                  -9.663
REMARK INTRA:                  -0.867
REMARK UNBOUND:                -1.099
REMARK  Name = 
REMARK  8 active torsions:
REMARK  status: ('A' for Active; 'I' for Inactive)
REMARK    1  A    between atoms: C_1  and  O_2
REMARK    2  A    between atoms: O_2  and  C_3
REMARK    3  A    between atoms: C_7  and  C_8
REMARK    4  A    between atoms: C_8  and  O_9
REMARK    5  A    between atoms: O_9  and  C_10
REMARK    6  A    between atoms: C_13  and  C_14
REMARK    7  A    between atoms: C_14  and  N_15
REMARK    8  A    between atoms: C_16  and  C_18
REMARK                            x       y       z     vdW  Elec       q    Type
REMARK                         _______ _______ _______ _____ _____    ______ ____
ROOT
ATOM      1  C   UNL     1      49.497   8.148  15.546  0.00  0.00    +0.000 A 
ATOM      2  C   UNL     1      50.112   7.499  14.483  0.00  0.00    +0.000 A 
ATOM      3  C   UNL     1      49.449   7.399  13.262  0.00  0.00    +0.000 A 
ATOM      4  C   UNL     1      48.164   7.923  13.152  0.00  0.00    +0.000 A 
ATOM      5  N   UNL     1      47.534   8.538  14.185  0.00  0.00    +0.000 NA
ATOM      6  C   UNL     1      48.209   8.629  15.352  0.00  0.00    +0.000 A 
ENDROOT
BRANCH   1   7
ATOM      7  O   UNL     1      50.224   8.246  16.696  0.00  0.00    +0.000 OA
BRANCH   7   8
ATOM      8  C   UNL     1      50.598   6.988  17.268  0.00  0.00    +0.000 C 
BRANCH   8  13
ATOM      9  C   UNL     1      48.105   4.356  16.678  0.00  0.00    +0.000 A 
ATOM     10  C   UNL     1      47.177   4.501  17.694  0.00  0.00    +0.000 A 
ATOM     11  C   UNL     1      47.376   5.509  18.631  0.00  0.00    +0.000 A 
ATOM     12  C   UNL     1      48.493   6.330  18.518  0.00  0.00    +0.000 A 
ATOM     13  C   UNL     1      49.392   6.105  17.477  0.00  0.00    +0.000 A 
ATOM     14  N   UNL     1      49.197   5.137  16.548  0.00  0.00    +0.000 NA
BRANCH   9  16
ATOM     15  C   UNL     1      47.182   3.825  14.603  0.00  0.00    +0.000 C 
ATOM     16  O   UNL     1      47.868   3.355  15.760  0.00  0.00    +0.000 OA
ENDBRANCH   9  16
ENDBRANCH   8  13
ENDBRANCH   7   8
ENDBRANCH   1   7
BRANCH   4  17
ATOM     17  C   UNL     1      47.418   7.862  11.844  0.00  0.00    +0.000 C 
BRANCH  17  18
ATOM     18  N   UNL     1      46.743   6.596  11.666  0.00  0.00    +0.000 N 
ATOM     19  C   UNL     1      45.379   6.486  11.672  0.00  0.00    +0.000 C 
ATOM     20  O   UNL     1      44.648   7.460  11.832  0.00  0.00    +0.000 OA
ATOM     21  H   UNL     1      47.321   5.768  11.780  0.00  0.00    +0.000 HD
BRANCH  19  22
ATOM     22  C   UNL     1      44.829   5.154  11.392  0.00  0.00    +0.000 A 
ATOM     23  C   UNL     1      44.073   4.511  12.363  0.00  0.00    +0.000 A 
ATOM     24  S   UNL     1      43.458   3.001  11.866  0.00  0.00    +0.000 S 
ATOM     25  C   UNL     1      44.222   3.128  10.351  0.00  0.00    +0.000 A 
ATOM     26  N   UNL     1      44.115   2.132   9.430  0.00  0.00    +0.000 NA
ATOM     27  C   UNL     1      44.773   2.343   8.339  0.00  0.00    +0.000 A 
ATOM     28  N   UNL     1      45.521   3.462   8.082  0.00  0.00    +0.000 N 
ATOM     29  C   UNL     1      45.616   4.515   8.962  0.00  0.00    +0.000 A 
ATOM     30  O   UNL     1      46.228   5.536   8.669  0.00  0.00    +0.000 OA
ATOM     31  C   UNL     1      44.919   4.317  10.218  0.00  0.00    +0.000 A 
ATOM     32  H   UNL     1      46.000   3.574   7.201  0.00  0.00    +0.000 HD
ENDBRANCH  19  22
ENDBRANCH  17  18
ENDBRANCH   4  17
TORSDOF 7
ENDMDL
