MODEL 1
REMARK VINA RESULT:    -7.954      0.000      0.000
REMARK INTER + INTRA:         -11.767
REMARK INTER:                 -10.744
REMARK INTRA:                  -1.024
REMARK UNBOUND:                -1.024
REMARK  Name = 
REMARK  7 active torsions:
REMARK  status: ('A' for Active; 'I' for Inactive)
REMARK    1  A    between atoms: C_1  and  O_2
REMARK    2  A    between atoms: O_2  and  C_3
REMARK    3  A    between atoms: C_8  and  C_9
REMARK    4  A    between atoms: C_9  and  C_10
REMARK    5  A    between atoms: C_13  and  C_14
REMARK    6  A    between atoms: C_14  and  N_15
REMARK    7  A    between atoms: C_16  and  C_18
REMARK                            x       y       z     vdW  Elec       q    Type
REMARK                         _______ _______ _______ _____ _____    ______ ____
ROOT
ATOM      1  C   UNL     1      47.565   8.542  13.827  0.00  0.00    +0.000 C 
ENDROOT
BRANCH   1   5
ATOM      2  C   UNL     1      45.027   6.440  11.115  0.00  0.00    +0.000 A 
ATOM      3  C   UNL     1      46.318   5.959  11.325  0.00  0.00    +0.000 A 
ATOM      4  C   UNL     1      47.175   6.657  12.179  0.00  0.00    +0.000 A 
ATOM      5  C   UNL     1      46.732   7.823  12.806  0.00  0.00    +0.000 A 
ATOM      6  C   UNL     1      45.464   8.277  12.465  0.00  0.00    +0.000 A 
ATOM      7  N   UNL     1      44.606   7.615  11.651  0.00  0.00    +0.000 NA
BRANCH   2   8
ATOM      8  C   UNL     1      44.003   5.596  10.382  0.00  0.00    +0.000 C 
BRANCH   8  14
ATOM      9  C   UNL     1      44.159   3.060  10.077  0.00  0.00    +0.000 A 
ATOM     10  C   UNL     1      44.695   1.958   9.398  0.00  0.00    +0.000 A 
ATOM     11  C   UNL     1      45.596   2.137   8.346  0.00  0.00    +0.000 A 
ATOM     12  C   UNL     1      45.964   3.418   7.955  0.00  0.00    +0.000 A 
ATOM     13  C   UNL     1      45.443   4.523   8.627  0.00  0.00    +0.000 A 
ATOM     14  C   UNL     1      44.539   4.360   9.693  0.00  0.00    +0.000 A 
BRANCH   9  16
ATOM     15  C   UNL     1      43.740   2.837  12.409  0.00  0.00    +0.000 C 
ATOM     16  O   UNL     1      43.233   2.968  11.085  0.00  0.00    +0.000 OA
ENDBRANCH   9  16
ENDBRANCH   8  14
ENDBRANCH   2   8
ENDBRANCH   1   5
BRANCH   1  17
ATOM     17  N   UNL     1      47.846   7.735  14.985  0.00  0.00    +0.000 N 
ATOM     18  C   UNL     1      49.082   7.156  15.150  0.00  0.00    +0.000 C 
ATOM     19  O   UNL     1      50.009   7.370  14.372  0.00  0.00    +0.000 OA
ATOM     20  H   UNL     1      47.052   7.368  15.500  0.00  0.00    +0.000 HD
BRANCH  18  21
ATOM     21  C   UNL     1      49.259   6.311  16.337  0.00  0.00    +0.000 A 
ATOM     22  C   UNL     1      50.246   6.621  17.265  0.00  0.00    +0.000 A 
ATOM     23  S   UNL     1      50.277   5.571  18.608  0.00  0.00    +0.000 S 
ATOM     24  C   UNL     1      49.013   4.629  17.972  0.00  0.00    +0.000 A 
ATOM     25  N   UNL     1      48.556   3.531  18.634  0.00  0.00    +0.000 NA
ATOM     26  C   UNL     1      47.617   2.890  18.019  0.00  0.00    +0.000 A 
ATOM     27  N   UNL     1      47.092   3.250  16.805  0.00  0.00    +0.000 N 
ATOM     28  C   UNL     1      47.499   4.368  16.117  0.00  0.00    +0.000 A 
ATOM     29  O   UNL     1      46.979   4.688  15.055  0.00  0.00    +0.000 OA
ATOM     30  C   UNL     1      48.560   5.118  16.760  0.00  0.00    +0.000 A 
ATOM     31  H   UNL     1      46.353   2.708  16.380  0.00  0.00    +0.000 HD
ENDBRANCH  18  21
ENDBRANCH   1  17
TORSDOF 6
ENDMDL
MODEL 2
REMARK VINA RESULT:    -7.295      1.527      1.872
REMARK INTER + INTRA:         -10.878
REMARK INTER:                 -10.284
REMARK INTRA:                  -0.594
REMARK UNBOUND:                -1.024
REMARK  Name = 
REMARK  7 active torsions:
REMARK  status: ('A' for Active; 'I' for Inactive)
REMARK    1  A    between atoms: C_1  and  O_2
REMARK    2  A    between atoms: O_2  and  C_3
REMARK    3  A    between atoms: C_8  and  C_9
REMARK    4  A    between atoms: C_9  and  C_10
REMARK    5  A    between atoms: C_13  and  C_14
REMARK    6  A    between atoms: C_14  and  N_15
REMARK    7  A    between atoms: C_16  and  C_18
REMARK                            x       y       z     vdW  Elec       q    Type
REMARK                         _______ _______ _______ _____ _____    ______ ____
ROOT
ATOM      1  C   UNL     1      48.318   7.939  13.779  0.00  0.00    +0.000 C 
ENDROOT
BRANCH   1   5
ATOM      2  C   UNL     1      45.038   6.197  11.677  0.00  0.00    +0.000 A 
ATOM      3  C   UNL     1      45.014   7.567  11.928  0.00  0.00    +0.000 A 
ATOM      4  C   UNL     1      46.059   8.147  12.649  0.00  0.00    +0.000 A 
ATOM      5  C   UNL     1      47.110   7.351  13.110  0.00  0.00    +0.000 A 
ATOM      6  C   UNL     1      47.004   5.983  12.893  0.00  0.00    +0.000 A 
ATOM      7  N   UNL     1      46.009   5.394  12.185  0.00  0.00    +0.000 NA
BRANCH   2   8
ATOM      8  C   UNL     1      44.047   5.576  10.713  0.00  0.00    +0.000 C 
BRANCH   8  14
ATOM      9  C   UNL     1      44.143   3.103  10.064  0.00  0.00    +0.000 A 
ATOM     10  C   UNL     1      44.671   2.088   9.255  0.00  0.00    +0.000 A 
ATOM     11  C   UNL     1      45.612   2.381   8.265  0.00  0.00    +0.000 A 
ATOM     12  C   UNL     1      46.027   3.692   8.066  0.00  0.00    +0.000 A 
ATOM     13  C   UNL     1      45.514   4.709   8.869  0.00  0.00    +0.000 A 
ATOM     14  C   UNL     1      44.571   4.430   9.874  0.00  0.00    +0.000 A 
BRANCH   9  16
ATOM     15  C   UNL     1      43.640   2.557  12.325  0.00  0.00    +0.000 C 
ATOM     16  O   UNL     1      43.182   2.902  11.022  0.00  0.00    +0.000 OA
ENDBRANCH   9  16
ENDBRANCH   8  14
ENDBRANCH   2   8
ENDBRANCH   1   5
BRANCH   1  17
ATOM     17  N   UNL     1      48.233   7.899  15.216  0.00  0.00    +0.000 N 
ATOM     18  C   UNL     1      49.003   7.019  15.938  0.00  0.00    +0.000 C 
ATOM     19  O   UNL     1      49.845   6.301  15.402  0.00  0.00    +0.000 OA
ATOM     20  H   UNL     1      47.406   8.305  15.644  0.00  0.00    +0.000 HD
BRANCH  18  21
ATOM     21  C   UNL     1      48.812   7.019  17.394  0.00  0.00    +0.000 A 
ATOM     22  C   UNL     1      48.594   8.216  18.062  0.00  0.00    +0.000 A 
ATOM     23  S   UNL     1      48.337   8.029  19.737  0.00  0.00    +0.000 S 
ATOM     24  C   UNL     1      48.566   6.346  19.641  0.00  0.00    +0.000 A 
ATOM     25  N   UNL     1      48.500   5.565  20.753  0.00  0.00    +0.000 NA
ATOM     26  C   UNL     1      48.728   4.312  20.538  0.00  0.00    +0.000 A 
ATOM     27  N   UNL     1      49.012   3.768  19.313  0.00  0.00    +0.000 N 
ATOM     28  C   UNL     1      49.056   4.513  18.158  0.00  0.00    +0.000 A 
ATOM     29  O   UNL     1      49.269   3.991  17.070  0.00  0.00    +0.000 OA
ATOM     30  C   UNL     1      48.818   5.931  18.345  0.00  0.00    +0.000 A 
ATOM     31  H   UNL     1      49.174   2.777  19.211  0.00  0.00    +0.000 HD
ENDBRANCH  18  21
ENDBRANCH   1  17
TORSDOF 6
ENDMDL
MODEL 3
REMARK VINA RESULT:    -7.060      0.972      1.969
REMARK INTER + INTRA:         -10.561
REMARK INTER:                  -9.097
REMARK INTRA:                  -1.463
REMARK UNBOUND:                -1.024
REMARK  Name = 
REMARK  7 active torsions:
REMARK  status: ('A' for Active; 'I' for Inactive)
REMARK    1  A    between atoms: C_1  and  O_2
REMARK    2  A    between atoms: O_2  and  C_3
REMARK    3  A    between atoms: C_8  and  C_9
REMARK    4  A    between atoms: C_9  and  C_10
REMARK    5  A    between atoms: C_13  and  C_14
REMARK    6  A    between atoms: C_14  and  N_15
REMARK    7  A    between atoms: C_16  and  C_18
REMARK                            x       y       z     vdW  Elec       q    Type
REMARK                         _______ _______ _______ _____ _____    ______ ____
ROOT
ATOM      1  C   UNL     1      48.193   8.803  14.475  0.00  0.00    +0.000 C 
ENDROOT
BRANCH   1   5
ATOM      2  C   UNL     1      45.435   7.316  11.577  0.00  0.00    +0.000 A 
ATOM      3  C   UNL     1      46.695   6.727  11.658  0.00  0.00    +0.000 A 
ATOM      4  C   UNL     1      47.624   7.228  12.573  0.00  0.00    +0.000 A 
ATOM      5  C   UNL     1      47.282   8.307  13.390  0.00  0.00    +0.000 A 
ATOM      6  C   UNL     1      46.038   8.888  13.176  0.00  0.00    +0.000 A 
ATOM      7  N   UNL     1      45.112   8.416  12.305  0.00  0.00    +0.000 NA
BRANCH   2   8
ATOM      8  C   UNL     1      44.334   6.663  10.765  0.00  0.00    +0.000 C 
BRANCH   8  14
ATOM      9  C   UNL     1      44.306   4.185  10.130  0.00  0.00    +0.000 A 
ATOM     10  C   UNL     1      44.033   2.855  10.475  0.00  0.00    +0.000 A 
ATOM     11  C   UNL     1      43.529   2.534  11.737  0.00  0.00    +0.000 A 
ATOM     12  C   UNL     1      43.302   3.536  12.672  0.00  0.00    +0.000 A 
ATOM     13  C   UNL     1      43.564   4.864  12.338  0.00  0.00    +0.000 A 
ATOM     14  C   UNL     1      44.065   5.205  11.069  0.00  0.00    +0.000 A 
BRANCH   9  16
ATOM     15  C   UNL     1      45.099   3.547   7.978  0.00  0.00    +0.000 C 
ATOM     16  O   UNL     1      44.847   4.574   8.931  0.00  0.00    +0.000 OA
ENDBRANCH   9  16
ENDBRANCH   8  14
ENDBRANCH   2   8
ENDBRANCH   1   5
BRANCH   1  17
ATOM     17  N   UNL     1      48.365   7.848  15.538  0.00  0.00    +0.000 N 
ATOM     18  C   UNL     1      49.503   7.081  15.611  0.00  0.00    +0.000 C 
ATOM     19  O   UNL     1      50.443   7.237  14.834  0.00  0.00    +0.000 OA
ATOM     20  H   UNL     1      47.531   7.550  16.035  0.00  0.00    +0.000 HD
BRANCH  18  21
ATOM     21  C   UNL     1      49.567   6.101  16.702  0.00  0.00    +0.000 A 
ATOM     22  C   UNL     1      50.560   6.207  17.668  0.00  0.00    +0.000 A 
ATOM     23  S   UNL     1      50.455   5.023  18.891  0.00  0.00    +0.000 S 
ATOM     24  C   UNL     1      49.115   4.290  18.143  0.00  0.00    +0.000 A 
ATOM     25  N   UNL     1      48.533   3.182  18.678  0.00  0.00    +0.000 NA
ATOM     26  C   UNL     1      47.548   2.711  17.988  0.00  0.00    +0.000 A 
ATOM     27  N   UNL     1      47.088   3.250  16.815  0.00  0.00    +0.000 N 
ATOM     28  C   UNL     1      47.622   4.386  16.256  0.00  0.00    +0.000 A 
ATOM     29  O   UNL     1      47.161   4.870  15.228  0.00  0.00    +0.000 OA
ATOM     30  C   UNL     1      48.741   4.950  16.986  0.00  0.00    +0.000 A 
ATOM     31  H   UNL     1      46.307   2.837  16.326  0.00  0.00    +0.000 HD
ENDBRANCH  18  21
ENDBRANCH   1  17
TORSDOF 6
ENDMDL
MODEL 4
REMARK VINA RESULT:    -6.906      3.096      7.399
REMARK INTER + INTRA:         -10.351
REMARK INTER:                  -9.230
REMARK INTRA:                  -1.121
REMARK UNBOUND:                -1.024
REMARK  Name = 
REMARK  7 active torsions:
REMARK  status: ('A' for Active; 'I' for Inactive)
REMARK    1  A    between atoms: C_1  and  O_2
REMARK    2  A    between atoms: O_2  and  C_3
REMARK    3  A    between atoms: C_8  and  C_9
REMARK    4  A    between atoms: C_9  and  C_10
REMARK    5  A    between atoms: C_13  and  C_14
REMARK    6  A    between atoms: C_14  and  N_15
REMARK    7  A    between atoms: C_16  and  C_18
REMARK                            x       y       z     vdW  Elec       q    Type
REMARK                         _______ _______ _______ _____ _____    ______ ____
ROOT
ATOM      1  C   UNL     1      48.023   8.685  14.185  0.00  0.00    +0.000 C 
ENDROOT
BRANCH   1   5
ATOM      2  C   UNL     1      49.702   6.534  17.466  0.00  0.00    +0.000 A 
ATOM      3  C   UNL     1      48.848   7.600  17.739  0.00  0.00    +0.000 A 
ATOM      4  C   UNL     1      48.321   8.340  16.678  0.00  0.00    +0.000 A 
ATOM      5  C   UNL     1      48.656   8.006  15.364  0.00  0.00    +0.000 A 
ATOM      6  C   UNL     1      49.586   6.989  15.192  0.00  0.00    +0.000 A 
ATOM      7  N   UNL     1      50.104   6.245  16.201  0.00  0.00    +0.000 NA
BRANCH   2   8
ATOM      8  C   UNL     1      50.110   5.576  18.568  0.00  0.00    +0.000 C 
BRANCH   8  14
ATOM      9  C   UNL     1      49.546   3.221  17.743  0.00  0.00    +0.000 A 
ATOM     10  C   UNL     1      49.974   1.948  17.342  0.00  0.00    +0.000 A 
ATOM     11  C   UNL     1      51.333   1.631  17.310  0.00  0.00    +0.000 A 
ATOM     12  C   UNL     1      52.280   2.582  17.670  0.00  0.00    +0.000 A 
ATOM     13  C   UNL     1      51.865   3.849  18.077  0.00  0.00    +0.000 A 
ATOM     14  C   UNL     1      50.500   4.184  18.121  0.00  0.00    +0.000 A 
BRANCH   9  16
ATOM     15  C   UNL     1      47.555   3.626  16.502  0.00  0.00    +0.000 C 
ATOM     16  O   UNL     1      48.234   3.624  17.753  0.00  0.00    +0.000 OA
ENDBRANCH   9  16
ENDBRANCH   8  14
ENDBRANCH   2   8
ENDBRANCH   1   5
BRANCH   1  17
ATOM     17  N   UNL     1      46.823   8.025  13.740  0.00  0.00    +0.000 N 
ATOM     18  C   UNL     1      46.842   7.210  12.634  0.00  0.00    +0.000 C 
ATOM     19  O   UNL     1      47.885   6.947  12.038  0.00  0.00    +0.000 OA
ATOM     20  H   UNL     1      45.938   8.400  14.068  0.00  0.00    +0.000 HD
BRANCH  18  21
ATOM     21  C   UNL     1      45.561   6.619  12.229  0.00  0.00    +0.000 A 
ATOM     22  C   UNL     1      44.559   7.429  11.712  0.00  0.00    +0.000 A 
ATOM     23  S   UNL     1      43.161   6.574  11.241  0.00  0.00    +0.000 S 
ATOM     24  C   UNL     1      43.819   5.097  11.766  0.00  0.00    +0.000 A 
ATOM     25  N   UNL     1      43.111   3.939  11.668  0.00  0.00    +0.000 NA
ATOM     26  C   UNL     1      43.719   2.901  12.137  0.00  0.00    +0.000 A 
ATOM     27  N   UNL     1      44.973   2.913  12.691  0.00  0.00    +0.000 N 
ATOM     28  C   UNL     1      45.737   4.052  12.780  0.00  0.00    +0.000 A 
ATOM     29  O   UNL     1      46.873   4.023  13.240  0.00  0.00    +0.000 OA
ATOM     30  C   UNL     1      45.096   5.251  12.277  0.00  0.00    +0.000 A 
ATOM     31  H   UNL     1      45.396   2.063  13.033  0.00  0.00    +0.000 HD
ENDBRANCH  18  21
ENDBRANCH   1  17
TORSDOF 6
ENDMDL
MODEL 5
REMARK VINA RESULT:    -6.859      3.112      8.063
REMARK INTER + INTRA:         -10.289
REMARK INTER:                  -9.117
REMARK INTRA:                  -1.172
REMARK UNBOUND:                -1.024
REMARK  Name = 
REMARK  7 active torsions:
REMARK  status: ('A' for Active; 'I' for Inactive)
REMARK    1  A    between atoms: C_1  and  O_2
REMARK    2  A    between atoms: O_2  and  C_3
REMARK    3  A    between atoms: C_8  and  C_9
REMARK    4  A    between atoms: C_9  and  C_10
REMARK    5  A    between atoms: C_13  and  C_14
REMARK    6  A    between atoms: C_14  and  N_15
REMARK    7  A    between atoms: C_16  and  C_18
REMARK                            x       y       z     vdW  Elec       q    Type
REMARK                         _______ _______ _______ _____ _____    ______ ____
ROOT
ATOM      1  C   UNL     1      47.209   7.975  11.866  0.00  0.00    +0.000 C 
ENDROOT
BRANCH   1   5
ATOM      2  C   UNL     1      49.385   7.777  15.531  0.00  0.00    +0.000 A 
ATOM      3  C   UNL     1      48.361   8.714  15.417  0.00  0.00    +0.000 A 
ATOM      4  C   UNL     1      47.665   8.820  14.211  0.00  0.00    +0.000 A 
ATOM      5  C   UNL     1      48.003   7.992  13.139  0.00  0.00    +0.000 A 
ATOM      6  C   UNL     1      49.097   7.153  13.314  0.00  0.00    +0.000 A 
ATOM      7  N   UNL     1      49.782   7.019  14.475  0.00  0.00    +0.000 NA
BRANCH   2   8
ATOM      8  C   UNL     1      50.006   7.479  16.881  0.00  0.00    +0.000 C 
BRANCH   8  14
ATOM      9  C   UNL     1      48.349   5.857  17.962  0.00  0.00    +0.000 A 
ATOM     10  C   UNL     1      47.467   5.553  19.008  0.00  0.00    +0.000 A 
ATOM     11  C   UNL     1      47.274   6.448  20.062  0.00  0.00    +0.000 A 
ATOM     12  C   UNL     1      47.966   7.653  20.088  0.00  0.00    +0.000 A 
ATOM     13  C   UNL     1      48.841   7.970  19.050  0.00  0.00    +0.000 A 
ATOM     14  C   UNL     1      49.042   7.082  17.978  0.00  0.00    +0.000 A 
BRANCH   9  16
ATOM     15  C   UNL     1      47.545   4.239  16.413  0.00  0.00    +0.000 C 
ATOM     16  O   UNL     1      48.628   5.011  16.920  0.00  0.00    +0.000 OA
ENDBRANCH   9  16
ENDBRANCH   8  14
ENDBRANCH   2   8
ENDBRANCH   1   5
BRANCH   1  17
ATOM     17  N   UNL     1      46.615   6.692  11.596  0.00  0.00    +0.000 N 
ATOM     18  C   UNL     1      45.250   6.535  11.613  0.00  0.00    +0.000 C 
ATOM     19  O   UNL     1      44.489   7.488  11.771  0.00  0.00    +0.000 OA
ATOM     20  H   UNL     1      47.211   5.875  11.691  0.00  0.00    +0.000 HD
BRANCH  18  21
ATOM     21  C   UNL     1      44.739   5.180  11.374  0.00  0.00    +0.000 A 
ATOM     22  C   UNL     1      44.012   4.531  12.363  0.00  0.00    +0.000 A 
ATOM     23  S   UNL     1      43.447   2.991  11.900  0.00  0.00    +0.000 S 
ATOM     24  C   UNL     1      44.205   3.108  10.382  0.00  0.00    +0.000 A 
ATOM     25  N   UNL     1      44.131   2.090   9.481  0.00  0.00    +0.000 NA
ATOM     26  C   UNL     1      44.781   2.301   8.385  0.00  0.00    +0.000 A 
ATOM     27  N   UNL     1      45.494   3.437   8.106  0.00  0.00    +0.000 N 
ATOM     28  C   UNL     1      45.569   4.503   8.971  0.00  0.00    +0.000 A 
ATOM     29  O   UNL     1      46.177   5.524   8.674  0.00  0.00    +0.000 OA
ATOM     30  C   UNL     1      44.864   4.314  10.223  0.00  0.00    +0.000 A 
ATOM     31  H   UNL     1      45.976   3.543   7.224  0.00  0.00    +0.000 HD
ENDBRANCH  18  21
ENDBRANCH   1  17
TORSDOF 6
ENDMDL
MODEL 6
REMARK VINA RESULT:    -6.794      2.273      2.809
REMARK INTER + INTRA:         -10.201
REMARK INTER:                  -9.064
REMARK INTRA:                  -1.137
REMARK UNBOUND:                -1.024
REMARK  Name = 
REMARK  7 active torsions:
REMARK  status: ('A' for Active; 'I' for Inactive)
REMARK    1  A    between atoms: C_1  and  O_2
REMARK    2  A    between atoms: O_2  and  C_3
REMARK    3  A    between atoms: C_8  and  C_9
REMARK    4  A    between atoms: C_9  and  C_10
REMARK    5  A    between atoms: C_13  and  C_14
REMARK    6  A    between atoms: C_14  and  N_15
REMARK    7  A    between atoms: C_16  and  C_18
REMARK                            x       y       z     vdW  Elec       q    Type
REMARK                         _______ _______ _______ _____ _____    ______ ____
ROOT
ATOM      1  C   UNL     1      48.877   6.582  14.272  0.00  0.00    +0.000 C 
ENDROOT
BRANCH   1   5
ATOM      2  C   UNL     1      45.538   6.144  11.651  0.00  0.00    +0.000 A 
ATOM      3  C   UNL     1      46.453   7.163  11.396  0.00  0.00    +0.000 A 
ATOM      4  C   UNL     1      47.529   7.346  12.267  0.00  0.00    +0.000 A 
ATOM      5  C   UNL     1      47.675   6.512  13.376  0.00  0.00    +0.000 A 
ATOM      6  C   UNL     1      46.666   5.584  13.602  0.00  0.00    +0.000 A 
ATOM      7  N   UNL     1      45.617   5.375  12.769  0.00  0.00    +0.000 NA
BRANCH   2   8
ATOM      8  C   UNL     1      44.494   5.773  10.616  0.00  0.00    +0.000 C 
BRANCH   8  14
ATOM      9  C   UNL     1      44.223   3.312   9.972  0.00  0.00    +0.000 A 
ATOM     10  C   UNL     1      44.567   2.237   9.141  0.00  0.00    +0.000 A 
ATOM     11  C   UNL     1      45.487   2.405   8.103  0.00  0.00    +0.000 A 
ATOM     12  C   UNL     1      46.065   3.648   7.879  0.00  0.00    +0.000 A 
ATOM     13  C   UNL     1      45.736   4.722   8.703  0.00  0.00    +0.000 A 
ATOM     14  C   UNL     1      44.816   4.570   9.757  0.00  0.00    +0.000 A 
BRANCH   9  16
ATOM     15  C   UNL     1      43.441   2.173  11.911  0.00  0.00    +0.000 C 
ATOM     16  O   UNL     1      43.294   3.240  10.979  0.00  0.00    +0.000 OA
ENDBRANCH   9  16
ENDBRANCH   8  14
ENDBRANCH   2   8
ENDBRANCH   1   5
BRANCH   1  17
ATOM     17  N   UNL     1      48.534   6.533  15.669  0.00  0.00    +0.000 N 
ATOM     18  C   UNL     1      49.496   6.276  16.617  0.00  0.00    +0.000 C 
ATOM     19  O   UNL     1      50.685   6.165  16.322  0.00  0.00    +0.000 OA
ATOM     20  H   UNL     1      47.556   6.395  15.903  0.00  0.00    +0.000 HD
BRANCH  18  21
ATOM     21  C   UNL     1      49.043   6.198  18.011  0.00  0.00    +0.000 A 
ATOM     22  C   UNL     1      49.237   5.030  18.736  0.00  0.00    +0.000 A 
ATOM     23  S   UNL     1      48.704   5.130  20.353  0.00  0.00    +0.000 S 
ATOM     24  C   UNL     1      48.139   6.718  20.127  0.00  0.00    +0.000 A 
ATOM     25  N   UNL     1      47.534   7.398  21.139  0.00  0.00    +0.000 NA
ATOM     26  C   UNL     1      47.124   8.579  20.817  0.00  0.00    +0.000 A 
ATOM     27  N   UNL     1      47.267   9.145  19.577  0.00  0.00    +0.000 N 
ATOM     28  C   UNL     1      47.900   8.509  18.535  0.00  0.00    +0.000 A 
ATOM     29  O   UNL     1      48.051   9.059  17.450  0.00  0.00    +0.000 OA
ATOM     30  C   UNL     1      48.370   7.172  18.841  0.00  0.00    +0.000 A 
ATOM     31  H   UNL     1      46.930  10.079  19.391  0.00  0.00    +0.000 HD
ENDBRANCH  18  21
ENDBRANCH   1  17
TORSDOF 6
ENDMDL
MODEL 7
REMARK VINA RESULT:    -6.793      3.452      8.824
REMARK INTER + INTRA:         -10.199
REMARK INTER:                  -9.005
REMARK INTRA:                  -1.194
REMARK UNBOUND:                -1.024
REMARK  Name = 
REMARK  7 active torsions:
REMARK  status: ('A' for Active; 'I' for Inactive)
REMARK    1  A    between atoms: C_1  and  O_2
REMARK    2  A    between atoms: O_2  and  C_3
REMARK    3  A    between atoms: C_8  and  C_9
REMARK    4  A    between atoms: C_9  and  C_10
REMARK    5  A    between atoms: C_13  and  C_14
REMARK    6  A    between atoms: C_14  and  N_15
REMARK    7  A    between atoms: C_16  and  C_18
REMARK                            x       y       z     vdW  Elec       q    Type
REMARK                         _______ _______ _______ _____ _____    ______ ____
ROOT
ATOM      1  C   UNL     1      47.284   3.292  17.022  0.00  0.00    +0.000 C 
ENDROOT
BRANCH   1   5
ATOM      2  C   UNL     1      51.224   4.024  18.488  0.00  0.00    +0.000 A 
ATOM      3  C   UNL     1      51.029   2.959  17.612  0.00  0.00    +0.000 A 
ATOM      4  C   UNL     1      49.740   2.680  17.153  0.00  0.00    +0.000 A 
ATOM      5  C   UNL     1      48.667   3.467  17.578  0.00  0.00    +0.000 A 
ATOM      6  C   UNL     1      48.942   4.447  18.523  0.00  0.00    +0.000 A 
ATOM      7  N   UNL     1      50.184   4.749  18.975  0.00  0.00    +0.000 NA
BRANCH   2   8
ATOM      8  C   UNL     1      52.626   4.494  18.825  0.00  0.00    +0.000 C 
BRANCH   8  14
ATOM      9  C   UNL     1      54.646   4.243  17.275  0.00  0.00    +0.000 A 
ATOM     10  C   UNL     1      55.390   4.701  16.180  0.00  0.00    +0.000 A 
ATOM     11  C   UNL     1      54.981   5.826  15.461  0.00  0.00    +0.000 A 
ATOM     12  C   UNL     1      53.820   6.499  15.821  0.00  0.00    +0.000 A 
ATOM     13  C   UNL     1      53.075   6.057  16.913  0.00  0.00    +0.000 A 
ATOM     14  C   UNL     1      53.476   4.929  17.652  0.00  0.00    +0.000 A 
BRANCH   9  16
ATOM     15  C   UNL     1      54.833   1.871  17.328  0.00  0.00    +0.000 C 
ATOM     16  O   UNL     1      54.954   3.120  18.000  0.00  0.00    +0.000 OA
ENDBRANCH   9  16
ENDBRANCH   8  14
ENDBRANCH   2   8
ENDBRANCH   1   5
BRANCH   1  17
ATOM     17  N   UNL     1      46.938   4.307  16.062  0.00  0.00    +0.000 N 
ATOM     18  C   UNL     1      47.088   4.077  14.716  0.00  0.00    +0.000 C 
ATOM     19  O   UNL     1      47.438   2.983  14.278  0.00  0.00    +0.000 OA
ATOM     20  H   UNL     1      46.871   5.263  16.400  0.00  0.00    +0.000 HD
BRANCH  18  21
ATOM     21  C   UNL     1      46.754   5.189  13.816  0.00  0.00    +0.000 A 
ATOM     22  C   UNL     1      47.653   6.234  13.646  0.00  0.00    +0.000 A 
ATOM     23  S   UNL     1      47.133   7.410  12.526  0.00  0.00    +0.000 S 
ATOM     24  C   UNL     1      45.661   6.597  12.271  0.00  0.00    +0.000 A 
ATOM     25  N   UNL     1      44.722   7.095  11.422  0.00  0.00    +0.000 NA
ATOM     26  C   UNL     1      43.641   6.393  11.351  0.00  0.00    +0.000 A 
ATOM     27  N   UNL     1      43.413   5.236  12.049  0.00  0.00    +0.000 N 
ATOM     28  C   UNL     1      44.344   4.679  12.893  0.00  0.00    +0.000 A 
ATOM     29  O   UNL     1      44.129   3.619  13.470  0.00  0.00    +0.000 OA
ATOM     30  C   UNL     1      45.575   5.434  13.017  0.00  0.00    +0.000 A 
ATOM     31  H   UNL     1      42.546   4.730  11.944  0.00  0.00    +0.000 HD
ENDBRANCH  18  21
ENDBRANCH   1  17
TORSDOF 6
ENDMDL
MODEL 8
REMARK VINA RESULT:    -6.672      3.079      8.119
REMARK INTER + INTRA:         -10.037
REMARK INTER:                  -8.858
REMARK INTRA:                  -1.179
REMARK UNBOUND:                -1.024
REMARK  Name = 
REMARK  7 active torsions:
REMARK  status: ('A' for Active; 'I' for Inactive)
REMARK    1  A    between atoms: C_1  and  O_2
REMARK    2  A    between atoms: O_2  and  C_3
REMARK    3  A    between atoms: C_8  and  C_9
REMARK    4  A    between atoms: C_9  and  C_10
REMARK    5  A    between atoms: C_13  and  C_14
REMARK    6  A    between atoms: C_14  and  N_15
REMARK    7  A    between atoms: C_16  and  C_18
REMARK                            x       y       z     vdW  Elec       q    Type
REMARK                         _______ _______ _______ _____ _____    ______ ____
ROOT
ATOM      1  C   UNL     1      47.321   7.923  11.787  0.00  0.00    +0.000 C 
ENDROOT
BRANCH   1   5
ATOM      2  C   UNL     1      49.352   7.649  15.530  0.00  0.00    +0.000 A 
ATOM      3  C   UNL     1      48.322   8.579  15.400  0.00  0.00    +0.000 A 
ATOM      4  C   UNL     1      47.674   8.709  14.170  0.00  0.00    +0.000 A 
ATOM      5  C   UNL     1      48.064   7.913  13.091  0.00  0.00    +0.000 A 
ATOM      6  C   UNL     1      49.159   7.082  13.287  0.00  0.00    +0.000 A 
ATOM      7  N   UNL     1      49.799   6.924  14.471  0.00  0.00    +0.000 NA
BRANCH   2   8
ATOM      8  C   UNL     1      49.922   7.322  16.896  0.00  0.00    +0.000 C 
BRANCH   8  14
ATOM      9  C   UNL     1      51.402   5.268  17.265  0.00  0.00    +0.000 A 
ATOM     10  C   UNL     1      51.518   3.899  17.540  0.00  0.00    +0.000 A 
ATOM     11  C   UNL     1      50.381   3.113  17.744  0.00  0.00    +0.000 A 
ATOM     12  C   UNL     1      49.118   3.687  17.685  0.00  0.00    +0.000 A 
ATOM     13  C   UNL     1      48.989   5.047  17.405  0.00  0.00    +0.000 A 
ATOM     14  C   UNL     1      50.123   5.851  17.192  0.00  0.00    +0.000 A 
BRANCH   9  16
ATOM     15  C   UNL     1      53.331   6.281  18.224  0.00  0.00    +0.000 C 
ATOM     16  O   UNL     1      52.469   6.114  17.103  0.00  0.00    +0.000 OA
ENDBRANCH   9  16
ENDBRANCH   8  14
ENDBRANCH   2   8
ENDBRANCH   1   5
BRANCH   1  17
ATOM     17  N   UNL     1      46.692   6.661  11.495  0.00  0.00    +0.000 N 
ATOM     18  C   UNL     1      45.349   6.480  11.718  0.00  0.00    +0.000 C 
ATOM     19  O   UNL     1      44.623   7.400  12.090  0.00  0.00    +0.000 OA
ATOM     20  H   UNL     1      47.297   5.849  11.412  0.00  0.00    +0.000 HD
BRANCH  18  21
ATOM     21  C   UNL     1      44.808   5.145  11.436  0.00  0.00    +0.000 A 
ATOM     22  C   UNL     1      44.084   4.472  12.412  0.00  0.00    +0.000 A 
ATOM     23  S   UNL     1      43.482   2.962  11.899  0.00  0.00    +0.000 S 
ATOM     24  C   UNL     1      44.215   3.125  10.373  0.00  0.00    +0.000 A 
ATOM     25  N   UNL     1      44.106   2.145   9.435  0.00  0.00    +0.000 NA
ATOM     26  C   UNL     1      44.740   2.387   8.336  0.00  0.00    +0.000 A 
ATOM     27  N   UNL     1      45.471   3.520   8.088  0.00  0.00    +0.000 N 
ATOM     28  C   UNL     1      45.581   4.548   8.993  0.00  0.00    +0.000 A 
ATOM     29  O   UNL     1      46.205   5.569   8.725  0.00  0.00    +0.000 OA
ATOM     30  C   UNL     1      44.895   4.323  10.250  0.00  0.00    +0.000 A 
ATOM     31  H   UNL     1      45.939   3.651   7.203  0.00  0.00    +0.000 HD
ENDBRANCH  18  21
ENDBRANCH   1  17
TORSDOF 6
ENDMDL
MODEL 9
REMARK VINA RESULT:    -6.637      3.223      7.999
REMARK INTER + INTRA:          -9.989
REMARK INTER:                  -8.814
REMARK INTRA:                  -1.174
REMARK UNBOUND:                -1.024
REMARK  Name = 
REMARK  7 active torsions:
REMARK  status: ('A' for Active; 'I' for Inactive)
REMARK    1  A    between atoms: C_1  and  O_2
REMARK    2  A    between atoms: O_2  and  C_3
REMARK    3  A    between atoms: C_8  and  C_9
REMARK    4  A    between atoms: C_9  and  C_10
REMARK    5  A    between atoms: C_13  and  C_14
REMARK    6  A    between atoms: C_14  and  N_15
REMARK    7  A    between atoms: C_16  and  C_18
REMARK                            x       y       z     vdW  Elec       q    Type
REMARK                         _______ _______ _______ _____ _____    ______ ____
ROOT
ATOM      1  C   UNL     1      48.327   7.896  12.305  0.00  0.00    +0.000 C 
ENDROOT
BRANCH   1   5
ATOM      2  C   UNL     1      50.051   6.641  16.001  0.00  0.00    +0.000 A 
ATOM      3  C   UNL     1      48.714   6.336  15.755  0.00  0.00    +0.000 A 
ATOM      4  C   UNL     1      48.123   6.774  14.568  0.00  0.00    +0.000 A 
ATOM      5  C   UNL     1      48.873   7.509  13.649  0.00  0.00    +0.000 A 
ATOM      6  C   UNL     1      50.169   7.844  14.020  0.00  0.00    +0.000 A 
ATOM      7  N   UNL     1      50.774   7.423  15.158  0.00  0.00    +0.000 NA
BRANCH   2   8
ATOM      8  C   UNL     1      50.784   5.996  17.162  0.00  0.00    +0.000 C 
BRANCH   8  14
ATOM      9  C   UNL     1      49.489   4.472  18.758  0.00  0.00    +0.000 A 
ATOM     10  C   UNL     1      48.729   4.315  19.924  0.00  0.00    +0.000 A 
ATOM     11  C   UNL     1      48.441   5.411  20.741  0.00  0.00    +0.000 A 
ATOM     12  C   UNL     1      48.916   6.673  20.406  0.00  0.00    +0.000 A 
ATOM     13  C   UNL     1      49.667   6.843  19.244  0.00  0.00    +0.000 A 
ATOM     14  C   UNL     1      49.961   5.751  18.407  0.00  0.00    +0.000 A 
BRANCH   9  16
ATOM     15  C   UNL     1      48.821   2.839  17.161  0.00  0.00    +0.000 C 
ATOM     16  O   UNL     1      49.856   3.440  17.932  0.00  0.00    +0.000 OA
ENDBRANCH   9  16
ENDBRANCH   8  14
ENDBRANCH   2   8
ENDBRANCH   1   5
BRANCH   1  17
ATOM     17  N   UNL     1      47.627   6.818  11.657  0.00  0.00    +0.000 N 
ATOM     18  C   UNL     1      46.273   6.894  11.439  0.00  0.00    +0.000 C 
ATOM     19  O   UNL     1      45.628   7.906  11.707  0.00  0.00    +0.000 OA
ATOM     20  H   UNL     1      48.084   5.911  11.641  0.00  0.00    +0.000 HD
BRANCH  18  21
ATOM     21  C   UNL     1      45.639   5.725  10.815  0.00  0.00    +0.000 A 
ATOM     22  C   UNL     1      45.755   5.526   9.446  0.00  0.00    +0.000 A 
ATOM     23  S   UNL     1      45.010   4.094   8.897  0.00  0.00    +0.000 S 
ATOM     24  C   UNL     1      44.453   3.718  10.459  0.00  0.00    +0.000 A 
ATOM     25  N   UNL     1      43.708   2.602  10.689  0.00  0.00    +0.000 NA
ATOM     26  C   UNL     1      43.325   2.460  11.914  0.00  0.00    +0.000 A 
ATOM     27  N   UNL     1      43.623   3.329  12.931  0.00  0.00    +0.000 N 
ATOM     28  C   UNL     1      44.399   4.449  12.753  0.00  0.00    +0.000 A 
ATOM     29  O   UNL     1      44.684   5.184  13.692  0.00  0.00    +0.000 OA
ATOM     30  C   UNL     1      44.847   4.662  11.391  0.00  0.00    +0.000 A 
ATOM     31  H   UNL     1      43.297   3.156  13.872  0.00  0.00    +0.000 HD
ENDBRANCH  18  21
ENDBRANCH   1  17
TORSDOF 6
ENDMDL
