MODEL 1
REMARK VINA RESULT:    -8.340      0.000      0.000
REMARK INTER + INTRA:         -12.679
REMARK INTER:                 -11.752
REMARK INTRA:                  -0.927
REMARK UNBOUND:                -0.927
REMARK  Name = 
REMARK  8 active torsions:
REMARK  status: ('A' for Active; 'I' for Inactive)
REMARK    1  A    between atoms: C_1  and  C_2
REMARK    2  A    between atoms: C_2  and  N_3
REMARK    3  A    between atoms: C_2  and  C_25
REMARK    4  A    between atoms: N_3  and  C_4
REMARK    5  A    between atoms: C_4  and  C_5
REMARK    6  A    between atoms: C_8  and  C_9
REMARK    7  A    between atoms: C_9  and  N_10
REMARK    8  A    between atoms: C_11  and  C_13
REMARK                            x       y       z     vdW  Elec       q    Type
REMARK                         _______ _______ _______ _____ _____    ______ ____
ROOT
ATOM      1  C   UNL     1      45.424   4.424  12.319  0.00  0.00    +0.000 A 
ATOM      2  C   UNL     1      45.849   5.597  11.704  0.00  0.00    +0.000 A 
ATOM      3  C   UNL     1      46.845   6.359  12.317  0.00  0.00    +0.000 A 
ATOM      4  C   UNL     1      47.402   5.930  13.525  0.00  0.00    +0.000 A 
ATOM      5  C   UNL     1      46.912   4.750  14.065  0.00  0.00    +0.000 A 
ATOM      6  N   UNL     1      45.956   3.989  13.490  0.00  0.00    +0.000 NA
ENDROOT
BRANCH   1   7
ATOM      7  C   UNL     1      44.357   3.556  11.676  0.00  0.00    +0.000 C 
BRANCH   7   8
ATOM      8  N   UNL     1      44.922   2.587  10.730  0.00  0.00    +0.000 NA
ATOM      9  H   UNL     1      44.646   1.647  11.016  0.00  0.00    +0.000 HD
BRANCH   8  11
ATOM     10  C   UNL     1      44.051   4.244   9.066  0.00  0.00    +0.000 C 
ATOM     11  C   UNL     1      44.497   2.800   9.337  0.00  0.00    +0.000 C 
BRANCH  11  12
ATOM     12  C   UNL     1      45.621   2.431   8.365  0.00  0.00    +0.000 A 
ATOM     13  C   UNL     1      46.161   3.390   7.506  0.00  0.00    +0.000 A 
ATOM     14  C   UNL     1      47.156   3.013   6.607  0.00  0.00    +0.000 A 
ATOM     15  C   UNL     1      47.593   1.697   6.593  0.00  0.00    +0.000 A 
ATOM     16  C   UNL     1      47.018   0.807   7.485  0.00  0.00    +0.000 A 
ATOM     17  N   UNL     1      46.047   1.141   8.367  0.00  0.00    +0.000 NA
ENDBRANCH  11  12
ENDBRANCH   8  11
ENDBRANCH   7   8
ENDBRANCH   1   7
BRANCH   4  18
ATOM     18  C   UNL     1      48.446   6.723  14.251  0.00  0.00    +0.000 C 
BRANCH  18  19
ATOM     19  N   UNL     1      48.256   6.643  15.678  0.00  0.00    +0.000 N 
ATOM     20  C   UNL     1      48.791   7.588  16.517  0.00  0.00    +0.000 C 
ATOM     21  O   UNL     1      49.404   8.563  16.091  0.00  0.00    +0.000 OA
ATOM     22  H   UNL     1      47.975   5.746  16.061  0.00  0.00    +0.000 HD
BRANCH  20  23
ATOM     23  C   UNL     1      48.536   7.407  17.952  0.00  0.00    +0.000 A 
ATOM     24  C   UNL     1      48.111   8.486  18.716  0.00  0.00    +0.000 A 
ATOM     25  S   UNL     1      47.829   8.097  20.352  0.00  0.00    +0.000 S 
ATOM     26  C   UNL     1      48.313   6.483  20.109  0.00  0.00    +0.000 A 
ATOM     27  N   UNL     1      48.340   5.596  21.139  0.00  0.00    +0.000 NA
ATOM     28  C   UNL     1      48.757   4.416  20.820  0.00  0.00    +0.000 A 
ATOM     29  N   UNL     1      49.145   4.040  19.558  0.00  0.00    +0.000 N 
ATOM     30  C   UNL     1      49.104   4.896  18.480  0.00  0.00    +0.000 A 
ATOM     31  O   UNL     1      49.410   4.517  17.354  0.00  0.00    +0.000 OA
ATOM     32  C   UNL     1      48.662   6.241  18.792  0.00  0.00    +0.000 A 
ATOM     33  H   UNL     1      49.449   3.101  19.370  0.00  0.00    +0.000 HD
ENDBRANCH  20  23
ENDBRANCH  18  19
ENDBRANCH   4  18
TORSDOF 7
ENDMDL
MODEL 2
REMARK VINA RESULT:    -8.095      1.399      2.280
REMARK INTER + INTRA:         -12.334
REMARK INTER:                 -11.556
REMARK INTRA:                  -0.778
REMARK UNBOUND:                -0.927
REMARK  Name = 
REMARK  8 active torsions:
REMARK  status: ('A' for Active; 'I' for Inactive)
REMARK    1  A    between atoms: C_1  and  C_2
REMARK    2  A    between atoms: C_2  and  N_3
REMARK    3  A    between atoms: C_2  and  C_25
REMARK    4  A    between atoms: N_3  and  C_4
REMARK    5  A    between atoms: C_4  and  C_5
REMARK    6  A    between atoms: C_8  and  C_9
REMARK    7  A    between atoms: C_9  and  N_10
REMARK    8  A    between atoms: C_11  and  C_13
REMARK                            x       y       z     vdW  Elec       q    Type
REMARK                         _______ _______ _______ _____ _____    ______ ____
ROOT
ATOM      1  C   UNL     1      45.448   4.316  12.332  0.00  0.00    +0.000 A 
ATOM      2  C   UNL     1      45.810   5.522  11.738  0.00  0.00    +0.000 A 
ATOM      3  C   UNL     1      46.780   6.313  12.355  0.00  0.00    +0.000 A 
ATOM      4  C   UNL     1      47.375   5.883  13.543  0.00  0.00    +0.000 A 
ATOM      5  C   UNL     1      46.947   4.669  14.063  0.00  0.00    +0.000 A 
ATOM      6  N   UNL     1      46.018   3.879  13.484  0.00  0.00    +0.000 NA
ENDROOT
BRANCH   1   7
ATOM      7  C   UNL     1      44.411   3.415  11.684  0.00  0.00    +0.000 C 
BRANCH   7   8
ATOM      8  N   UNL     1      44.979   2.595  10.608  0.00  0.00    +0.000 NA
ATOM      9  H   UNL     1      44.761   1.615  10.790  0.00  0.00    +0.000 HD
BRANCH   8  11
ATOM     10  C   UNL     1      44.059   4.420   9.160  0.00  0.00    +0.000 C 
ATOM     11  C   UNL     1      44.484   2.949   9.268  0.00  0.00    +0.000 C 
BRANCH  11  12
ATOM     12  C   UNL     1      45.542   2.652   8.203  0.00  0.00    +0.000 A 
ATOM     13  C   UNL     1      46.165   1.403   8.148  0.00  0.00    +0.000 A 
ATOM     14  C   UNL     1      47.150   1.177   7.191  0.00  0.00    +0.000 A 
ATOM     15  C   UNL     1      47.483   2.194   6.308  0.00  0.00    +0.000 A 
ATOM     16  C   UNL     1      46.811   3.400   6.416  0.00  0.00    +0.000 A 
ATOM     17  N   UNL     1      45.853   3.652   7.338  0.00  0.00    +0.000 NA
ENDBRANCH  11  12
ENDBRANCH   8  11
ENDBRANCH   7   8
ENDBRANCH   1   7
BRANCH   4  18
ATOM     18  C   UNL     1      48.393   6.705  14.273  0.00  0.00    +0.000 C 
BRANCH  18  19
ATOM     19  N   UNL     1      48.154   6.682  15.695  0.00  0.00    +0.000 N 
ATOM     20  C   UNL     1      49.116   6.241  16.567  0.00  0.00    +0.000 C 
ATOM     21  O   UNL     1      50.232   5.898  16.185  0.00  0.00    +0.000 OA
ATOM     22  H   UNL     1      47.188   6.724  16.005  0.00  0.00    +0.000 HD
BRANCH  20  23
ATOM     23  C   UNL     1      48.765   6.260  17.993  0.00  0.00    +0.000 A 
ATOM     24  C   UNL     1      48.949   5.119  18.762  0.00  0.00    +0.000 A 
ATOM     25  S   UNL     1      48.526   5.323  20.401  0.00  0.00    +0.000 S 
ATOM     26  C   UNL     1      48.032   6.929  20.131  0.00  0.00    +0.000 A 
ATOM     27  N   UNL     1      47.520   7.684  21.139  0.00  0.00    +0.000 NA
ATOM     28  C   UNL     1      47.158   8.873  20.787  0.00  0.00    +0.000 A 
ATOM     29  N   UNL     1      47.268   9.379  19.515  0.00  0.00    +0.000 N 
ATOM     30  C   UNL     1      47.809   8.661  18.473  0.00  0.00    +0.000 A 
ATOM     31  O   UNL     1      47.940   9.157  17.359  0.00  0.00    +0.000 OA
ATOM     32  C   UNL     1      48.212   7.311  18.814  0.00  0.00    +0.000 A 
ATOM     33  H   UNL     1      46.979  10.319  19.307  0.00  0.00    +0.000 HD
ENDBRANCH  20  23
ENDBRANCH  18  19
ENDBRANCH   4  18
TORSDOF 7
ENDMDL
MODEL 3
REMARK VINA RESULT:    -7.983      1.886      2.346
REMARK INTER + INTRA:         -12.176
REMARK INTER:                 -11.451
REMARK INTRA:                  -0.725
REMARK UNBOUND:                -0.927
REMARK  Name = 
REMARK  8 active torsions:
REMARK  status: ('A' for Active; 'I' for Inactive)
REMARK    1  A    between atoms: C_1  and  C_2
REMARK    2  A    between atoms: C_2  and  N_3
REMARK    3  A    between atoms: C_2  and  C_25
REMARK    4  A    between atoms: N_3  and  C_4
REMARK    5  A    between atoms: C_4  and  C_5
REMARK    6  A    between atoms: C_8  and  C_9
REMARK    7  A    between atoms: C_9  and  N_10
REMARK    8  A    between atoms: C_11  and  C_13
REMARK                            x       y       z     vdW  Elec       q    Type
REMARK                         _______ _______ _______ _____ _____    ______ ____
ROOT
ATOM      1  C   UNL     1      44.648   5.790  11.245  0.00  0.00    +0.000 A 
ATOM      2  C   UNL     1      45.714   5.179  11.897  0.00  0.00    +0.000 A 
ATOM      3  C   UNL     1      46.593   5.967  12.641  0.00  0.00    +0.000 A 
ATOM      4  C   UNL     1      46.385   7.346  12.728  0.00  0.00    +0.000 A 
ATOM      5  C   UNL     1      45.297   7.867  12.041  0.00  0.00    +0.000 A 
ATOM      6  N   UNL     1      44.426   7.128  11.321  0.00  0.00    +0.000 NA
ENDROOT
BRANCH   1   7
ATOM      7  C   UNL     1      43.657   4.967  10.442  0.00  0.00    +0.000 C 
BRANCH   7   8
ATOM      8  N   UNL     1      44.246   4.431   9.209  0.00  0.00    +0.000 NA
ATOM      9  H   UNL     1      44.851   5.142   8.797  0.00  0.00    +0.000 HD
BRANCH   8  11
ATOM     10  C   UNL     1      44.162   1.995   9.784  0.00  0.00    +0.000 C 
ATOM     11  C   UNL     1      45.032   3.204   9.413  0.00  0.00    +0.000 C 
BRANCH  11  12
ATOM     12  C   UNL     1      45.850   2.870   8.163  0.00  0.00    +0.000 A 
ATOM     13  C   UNL     1      46.408   1.601   7.996  0.00  0.00    +0.000 A 
ATOM     14  C   UNL     1      47.178   1.340   6.866  0.00  0.00    +0.000 A 
ATOM     15  C   UNL     1      47.364   2.343   5.926  0.00  0.00    +0.000 A 
ATOM     16  C   UNL     1      46.766   3.572   6.155  0.00  0.00    +0.000 A 
ATOM     17  N   UNL     1      46.017   3.858   7.245  0.00  0.00    +0.000 NA
ENDBRANCH  11  12
ENDBRANCH   8  11
ENDBRANCH   7   8
ENDBRANCH   1   7
BRANCH   4  18
ATOM     18  C   UNL     1      47.314   8.251  13.478  0.00  0.00    +0.000 C 
BRANCH  18  19
ATOM     19  N   UNL     1      47.652   7.694  14.765  0.00  0.00    +0.000 N 
ATOM     20  C   UNL     1      48.861   7.082  14.975  0.00  0.00    +0.000 C 
ATOM     21  O   UNL     1      49.723   7.027  14.101  0.00  0.00    +0.000 OA
ATOM     22  H   UNL     1      46.888   7.512  15.408  0.00  0.00    +0.000 HD
BRANCH  20  23
ATOM     23  C   UNL     1      49.099   6.550  16.322  0.00  0.00    +0.000 A 
ATOM     24  C   UNL     1      49.823   7.300  17.240  0.00  0.00    +0.000 A 
ATOM     25  S   UNL     1      49.976   6.552  18.765  0.00  0.00    +0.000 S 
ATOM     26  C   UNL     1      49.124   5.176  18.239  0.00  0.00    +0.000 A 
ATOM     27  N   UNL     1      48.925   4.116  19.065  0.00  0.00    +0.000 NA
ATOM     28  C   UNL     1      48.291   3.128  18.526  0.00  0.00    +0.000 A 
ATOM     29  N   UNL     1      47.831   3.107  17.233  0.00  0.00    +0.000 N 
ATOM     30  C   UNL     1      47.983   4.171  16.372  0.00  0.00    +0.000 A 
ATOM     31  O   UNL     1      47.517   4.143  15.237  0.00  0.00    +0.000 OA
ATOM     32  C   UNL     1      48.708   5.298  16.925  0.00  0.00    +0.000 A 
ATOM     33  H   UNL     1      47.332   2.311  16.875  0.00  0.00    +0.000 HD
ENDBRANCH  20  23
ENDBRANCH  18  19
ENDBRANCH   4  18
TORSDOF 7
ENDMDL
MODEL 4
REMARK VINA RESULT:    -7.825      2.657      3.509
REMARK INTER + INTRA:         -11.954
REMARK INTER:                 -11.133
REMARK INTRA:                  -0.821
REMARK UNBOUND:                -0.927
REMARK  Name = 
REMARK  8 active torsions:
REMARK  status: ('A' for Active; 'I' for Inactive)
REMARK    1  A    between atoms: C_1  and  C_2
REMARK    2  A    between atoms: C_2  and  N_3
REMARK    3  A    between atoms: C_2  and  C_25
REMARK    4  A    between atoms: N_3  and  C_4
REMARK    5  A    between atoms: C_4  and  C_5
REMARK    6  A    between atoms: C_8  and  C_9
REMARK    7  A    between atoms: C_9  and  N_10
REMARK    8  A    between atoms: C_11  and  C_13
REMARK                            x       y       z     vdW  Elec       q    Type
REMARK                         _______ _______ _______ _____ _____    ______ ____
ROOT
ATOM      1  C   UNL     1      46.251   4.308  13.420  0.00  0.00    +0.000 A 
ATOM      2  C   UNL     1      46.816   5.466  12.894  0.00  0.00    +0.000 A 
ATOM      3  C   UNL     1      47.661   6.232  13.699  0.00  0.00    +0.000 A 
ATOM      4  C   UNL     1      47.933   5.822  15.006  0.00  0.00    +0.000 A 
ATOM      5  C   UNL     1      47.321   4.656  15.446  0.00  0.00    +0.000 A 
ATOM      6  N   UNL     1      46.507   3.892  14.687  0.00  0.00    +0.000 NA
ENDROOT
BRANCH   1   7
ATOM      7  C   UNL     1      45.342   3.436  12.572  0.00  0.00    +0.000 C 
BRANCH   7   8
ATOM      8  N   UNL     1      43.931   3.821  12.691  0.00  0.00    +0.000 NA
ATOM      9  H   UNL     1      43.848   4.559  13.389  0.00  0.00    +0.000 HD
BRANCH   8  11
ATOM     10  C   UNL     1      43.179   5.820  11.383  0.00  0.00    +0.000 C 
ATOM     11  C   UNL     1      43.338   4.294  11.430  0.00  0.00    +0.000 C 
BRANCH  11  12
ATOM     12  C   UNL     1      44.174   3.839  10.232  0.00  0.00    +0.000 A 
ATOM     13  C   UNL     1      44.950   4.754   9.518  0.00  0.00    +0.000 A 
ATOM     14  C   UNL     1      45.671   4.315   8.410  0.00  0.00    +0.000 A 
ATOM     15  C   UNL     1      45.608   2.977   8.047  0.00  0.00    +0.000 A 
ATOM     16  C   UNL     1      44.827   2.128   8.814  0.00  0.00    +0.000 A 
ATOM     17  N   UNL     1      44.112   2.524   9.892  0.00  0.00    +0.000 NA
ENDBRANCH  11  12
ENDBRANCH   8  11
ENDBRANCH   7   8
ENDBRANCH   1   7
BRANCH   4  18
ATOM     18  C   UNL     1      48.800   6.620  15.931  0.00  0.00    +0.000 C 
BRANCH  18  19
ATOM     19  N   UNL     1      49.886   5.820  16.442  0.00  0.00    +0.000 N 
ATOM     20  C   UNL     1      49.947   5.473  17.768  0.00  0.00    +0.000 C 
ATOM     21  O   UNL     1      49.061   5.779  18.561  0.00  0.00    +0.000 OA
ATOM     22  H   UNL     1      50.729   5.766  15.878  0.00  0.00    +0.000 HD
BRANCH  20  23
ATOM     23  C   UNL     1      51.098   4.658  18.178  0.00  0.00    +0.000 A 
ATOM     24  C   UNL     1      52.126   5.239  18.909  0.00  0.00    +0.000 A 
ATOM     25  S   UNL     1      53.364   4.146  19.333  0.00  0.00    +0.000 S 
ATOM     26  C   UNL     1      52.596   2.869  18.512  0.00  0.00    +0.000 A 
ATOM     27  N   UNL     1      53.158   1.633  18.454  0.00  0.00    +0.000 NA
ATOM     28  C   UNL     1      52.483   0.768  17.773  0.00  0.00    +0.000 A 
ATOM     29  N   UNL     1      51.289   1.027  17.147  0.00  0.00    +0.000 N 
ATOM     30  C   UNL     1      50.669   2.254  17.206  0.00  0.00    +0.000 A 
ATOM     31  O   UNL     1      49.577   2.441  16.678  0.00  0.00    +0.000 OA
ATOM     32  C   UNL     1      51.399   3.266  17.943  0.00  0.00    +0.000 A 
ATOM     33  H   UNL     1      50.805   0.306  16.641  0.00  0.00    +0.000 HD
ENDBRANCH  20  23
ENDBRANCH  18  19
ENDBRANCH   4  18
TORSDOF 7
ENDMDL
MODEL 5
REMARK VINA RESULT:    -7.220      3.521      9.038
REMARK INTER + INTRA:         -11.101
REMARK INTER:                  -9.861
REMARK INTRA:                  -1.240
REMARK UNBOUND:                -0.927
REMARK  Name = 
REMARK  8 active torsions:
REMARK  status: ('A' for Active; 'I' for Inactive)
REMARK    1  A    between atoms: C_1  and  C_2
REMARK    2  A    between atoms: C_2  and  N_3
REMARK    3  A    between atoms: C_2  and  C_25
REMARK    4  A    between atoms: N_3  and  C_4
REMARK    5  A    between atoms: C_4  and  C_5
REMARK    6  A    between atoms: C_8  and  C_9
REMARK    7  A    between atoms: C_9  and  N_10
REMARK    8  A    between atoms: C_11  and  C_13
REMARK                            x       y       z     vdW  Elec       q    Type
REMARK                         _______ _______ _______ _____ _____    ______ ____
ROOT
ATOM      1  C   UNL     1      49.800   7.775  15.379  0.00  0.00    +0.000 A 
ATOM      2  C   UNL     1      49.208   9.012  15.140  0.00  0.00    +0.000 A 
ATOM      3  C   UNL     1      48.222   9.110  14.157  0.00  0.00    +0.000 A 
ATOM      4  C   UNL     1      47.840   7.973  13.441  0.00  0.00    +0.000 A 
ATOM      5  C   UNL     1      48.488   6.784  13.746  0.00  0.00    +0.000 A 
ATOM      6  N   UNL     1      49.438   6.658  14.696  0.00  0.00    +0.000 NA
ENDROOT
BRANCH   1   7
ATOM      7  C   UNL     1      50.863   7.620  16.452  0.00  0.00    +0.000 C 
BRANCH   7   8
ATOM      8  N   UNL     1      51.256   6.221  16.649  0.00  0.00    +0.000 NA
ATOM      9  H   UNL     1      52.275   6.164  16.669  0.00  0.00    +0.000 HD
BRANCH   8  11
ATOM     10  C   UNL     1      50.260   6.676  18.901  0.00  0.00    +0.000 C 
ATOM     11  C   UNL     1      50.726   5.624  17.886  0.00  0.00    +0.000 C 
BRANCH  11  12
ATOM     12  C   UNL     1      49.566   4.675  17.576  0.00  0.00    +0.000 A 
ATOM     13  C   UNL     1      48.245   5.068  17.804  0.00  0.00    +0.000 A 
ATOM     14  C   UNL     1      47.215   4.168  17.547  0.00  0.00    +0.000 A 
ATOM     15  C   UNL     1      47.522   2.906  17.062  0.00  0.00    +0.000 A 
ATOM     16  C   UNL     1      48.855   2.595  16.848  0.00  0.00    +0.000 A 
ATOM     17  N   UNL     1      49.879   3.444  17.092  0.00  0.00    +0.000 NA
ENDBRANCH  11  12
ENDBRANCH   8  11
ENDBRANCH   7   8
ENDBRANCH   1   7
BRANCH   4  18
ATOM     18  C   UNL     1      46.816   8.022  12.348  0.00  0.00    +0.000 C 
BRANCH  18  19
ATOM     19  N   UNL     1      46.305   6.704  12.058  0.00  0.00    +0.000 N 
ATOM     20  C   UNL     1      45.026   6.528  11.594  0.00  0.00    +0.000 C 
ATOM     21  O   UNL     1      44.285   7.477  11.355  0.00  0.00    +0.000 OA
ATOM     22  H   UNL     1      46.795   5.915  12.468  0.00  0.00    +0.000 HD
BRANCH  20  23
ATOM     23  C   UNL     1      44.611   5.144  11.333  0.00  0.00    +0.000 A 
ATOM     24  C   UNL     1      43.858   4.462  12.280  0.00  0.00    +0.000 A 
ATOM     25  S   UNL     1      43.431   2.881  11.805  0.00  0.00    +0.000 S 
ATOM     26  C   UNL     1      44.279   3.033  10.338  0.00  0.00    +0.000 A 
ATOM     27  N   UNL     1      44.345   2.001   9.456  0.00  0.00    +0.000 NA
ATOM     28  C   UNL     1      45.047   2.243   8.398  0.00  0.00    +0.000 A 
ATOM     29  N   UNL     1      45.685   3.430   8.140  0.00  0.00    +0.000 N 
ATOM     30  C   UNL     1      45.619   4.511   8.990  0.00  0.00    +0.000 A 
ATOM     31  O   UNL     1      46.160   5.576   8.709  0.00  0.00    +0.000 OA
ATOM     32  C   UNL     1      44.859   4.281  10.203  0.00  0.00    +0.000 A 
ATOM     33  H   UNL     1      46.207   3.561   7.291  0.00  0.00    +0.000 HD
ENDBRANCH  20  23
ENDBRANCH  18  19
ENDBRANCH   4  18
TORSDOF 7
ENDMDL
MODEL 6
REMARK VINA RESULT:    -7.114      4.771      9.695
REMARK INTER + INTRA:         -10.952
REMARK INTER:                 -10.010
REMARK INTRA:                  -0.942
REMARK UNBOUND:                -0.927
REMARK  Name = 
REMARK  8 active torsions:
REMARK  status: ('A' for Active; 'I' for Inactive)
REMARK    1  A    between atoms: C_1  and  C_2
REMARK    2  A    between atoms: C_2  and  N_3
REMARK    3  A    between atoms: C_2  and  C_25
REMARK    4  A    between atoms: N_3  and  C_4
REMARK    5  A    between atoms: C_4  and  C_5
REMARK    6  A    between atoms: C_8  and  C_9
REMARK    7  A    between atoms: C_9  and  N_10
REMARK    8  A    between atoms: C_11  and  C_13
REMARK                            x       y       z     vdW  Elec       q    Type
REMARK                         _______ _______ _______ _____ _____    ______ ____
ROOT
ATOM      1  C   UNL     1      51.267   3.639  17.834  0.00  0.00    +0.000 A 
ATOM      2  C   UNL     1      50.783   2.405  17.408  0.00  0.00    +0.000 A 
ATOM      3  C   UNL     1      49.436   2.291  17.062  0.00  0.00    +0.000 A 
ATOM      4  C   UNL     1      48.602   3.410  17.137  0.00  0.00    +0.000 A 
ATOM      5  C   UNL     1      49.172   4.596  17.577  0.00  0.00    +0.000 A 
ATOM      6  N   UNL     1      50.473   4.738  17.910  0.00  0.00    +0.000 NA
ENDROOT
BRANCH   1   7
ATOM      7  C   UNL     1      52.730   3.812  18.201  0.00  0.00    +0.000 C 
BRANCH   7   8
ATOM      8  N   UNL     1      53.145   2.907  19.279  0.00  0.00    +0.000 NA
ATOM      9  H   UNL     1      52.540   2.086  19.273  0.00  0.00    +0.000 HD
BRANCH   8  11
ATOM     10  C   UNL     1      55.249   2.394  20.537  0.00  0.00    +0.000 C 
ATOM     11  C   UNL     1      54.544   2.464  19.175  0.00  0.00    +0.000 C 
BRANCH  11  12
ATOM     12  C   UNL     1      54.630   1.096  18.495  0.00  0.00    +0.000 A 
ATOM     13  C   UNL     1      54.733   0.997  17.106  0.00  0.00    +0.000 A 
ATOM     14  C   UNL     1      54.771  -0.263  16.514  0.00  0.00    +0.000 A 
ATOM     15  C   UNL     1      54.717  -1.391  17.320  0.00  0.00    +0.000 A 
ATOM     16  C   UNL     1      54.629  -1.212  18.690  0.00  0.00    +0.000 A 
ATOM     17  N   UNL     1      54.585  -0.003  19.295  0.00  0.00    +0.000 NA
ENDBRANCH  11  12
ENDBRANCH   8  11
ENDBRANCH   7   8
ENDBRANCH   1   7
BRANCH   4  18
ATOM     18  C   UNL     1      47.140   3.342  16.816  0.00  0.00    +0.000 C 
BRANCH  18  19
ATOM     19  N   UNL     1      46.774   4.352  15.855  0.00  0.00    +0.000 N 
ATOM     20  C   UNL     1      46.877   4.117  14.507  0.00  0.00    +0.000 C 
ATOM     21  O   UNL     1      47.232   3.029  14.063  0.00  0.00    +0.000 OA
ATOM     22  H   UNL     1      46.716   5.310  16.186  0.00  0.00    +0.000 HD
BRANCH  20  23
ATOM     23  C   UNL     1      46.477   5.216  13.620  0.00  0.00    +0.000 A 
ATOM     24  C   UNL     1      47.361   6.259  13.376  0.00  0.00    +0.000 A 
ATOM     25  S   UNL     1      46.754   7.432  12.297  0.00  0.00    +0.000 S 
ATOM     26  C   UNL     1      45.269   6.614  12.155  0.00  0.00    +0.000 A 
ATOM     27  N   UNL     1      44.263   7.113  11.389  0.00  0.00    +0.000 NA
ATOM     28  C   UNL     1      43.181   6.407  11.397  0.00  0.00    +0.000 A 
ATOM     29  N   UNL     1      43.016   5.239  12.100  0.00  0.00    +0.000 N 
ATOM     30  C   UNL     1      44.018   4.682  12.863  0.00  0.00    +0.000 A 
ATOM     31  O   UNL     1      43.857   3.612  13.440  0.00  0.00    +0.000 OA
ATOM     32  C   UNL     1      45.246   5.450  12.903  0.00  0.00    +0.000 A 
ATOM     33  H   UNL     1      42.152   4.728  12.056  0.00  0.00    +0.000 HD
ENDBRANCH  20  23
ENDBRANCH  18  19
ENDBRANCH   4  18
TORSDOF 7
ENDMDL
MODEL 7
REMARK VINA RESULT:    -6.535      2.512      3.052
REMARK INTER + INTRA:         -10.135
REMARK INTER:                  -9.001
REMARK INTRA:                  -1.135
REMARK UNBOUND:                -0.927
REMARK  Name = 
REMARK  8 active torsions:
REMARK  status: ('A' for Active; 'I' for Inactive)
REMARK    1  A    between atoms: C_1  and  C_2
REMARK    2  A    between atoms: C_2  and  N_3
REMARK    3  A    between atoms: C_2  and  C_25
REMARK    4  A    between atoms: N_3  and  C_4
REMARK    5  A    between atoms: C_4  and  C_5
REMARK    6  A    between atoms: C_8  and  C_9
REMARK    7  A    between atoms: C_9  and  N_10
REMARK    8  A    between atoms: C_11  and  C_13
REMARK                            x       y       z     vdW  Elec       q    Type
REMARK                         _______ _______ _______ _____ _____    ______ ____
ROOT
ATOM      1  C   UNL     1      46.085   7.580  12.164  0.00  0.00    +0.000 A 
ATOM      2  C   UNL     1      47.168   6.866  11.661  0.00  0.00    +0.000 A 
ATOM      3  C   UNL     1      48.458   7.242  12.037  0.00  0.00    +0.000 A 
ATOM      4  C   UNL     1      48.641   8.315  12.914  0.00  0.00    +0.000 A 
ATOM      5  C   UNL     1      47.501   8.970  13.359  0.00  0.00    +0.000 A 
ATOM      6  N   UNL     1      46.242   8.623  13.019  0.00  0.00    +0.000 NA
ENDROOT
BRANCH   1   7
ATOM      7  C   UNL     1      44.664   7.192  11.795  0.00  0.00    +0.000 C 
BRANCH   7   8
ATOM      8  N   UNL     1      44.609   6.345  10.598  0.00  0.00    +0.000 NA
ATOM      9  H   UNL     1      45.455   6.497  10.048  0.00  0.00    +0.000 HD
BRANCH   8  11
ATOM     10  C   UNL     1      43.044   4.477  11.177  0.00  0.00    +0.000 C 
ATOM     11  C   UNL     1      44.489   4.908  10.893  0.00  0.00    +0.000 C 
BRANCH  11  12
ATOM     12  C   UNL     1      45.047   4.070   9.740  0.00  0.00    +0.000 A 
ATOM     13  C   UNL     1      44.947   2.677   9.760  0.00  0.00    +0.000 A 
ATOM     14  C   UNL     1      45.497   1.941   8.715  0.00  0.00    +0.000 A 
ATOM     15  C   UNL     1      46.123   2.609   7.672  0.00  0.00    +0.000 A 
ATOM     16  C   UNL     1      46.170   3.992   7.716  0.00  0.00    +0.000 A 
ATOM     17  N   UNL     1      45.650   4.735   8.720  0.00  0.00    +0.000 NA
ENDBRANCH  11  12
ENDBRANCH   8  11
ENDBRANCH   7   8
ENDBRANCH   1   7
BRANCH   4  18
ATOM     18  C   UNL     1      50.001   8.791  13.324  0.00  0.00    +0.000 C 
BRANCH  18  19
ATOM     19  N   UNL     1      50.486   8.053  14.463  0.00  0.00    +0.000 N 
ATOM     20  C   UNL     1      50.488   8.607  15.718  0.00  0.00    +0.000 C 
ATOM     21  O   UNL     1      50.032   9.726  15.934  0.00  0.00    +0.000 OA
ATOM     22  H   UNL     1      51.078   7.248  14.278  0.00  0.00    +0.000 HD
BRANCH  20  23
ATOM     23  C   UNL     1      51.006   7.765  16.804  0.00  0.00    +0.000 A 
ATOM     24  C   UNL     1      52.069   8.216  17.576  0.00  0.00    +0.000 A 
ATOM     25  S   UNL     1      52.522   7.134  18.813  0.00  0.00    +0.000 S 
ATOM     26  C   UNL     1      51.347   6.001  18.330  0.00  0.00    +0.000 A 
ATOM     27  N   UNL     1      51.220   4.807  18.967  0.00  0.00    +0.000 NA
ATOM     28  C   UNL     1      50.311   4.032  18.476  0.00  0.00    +0.000 A 
ATOM     29  N   UNL     1      49.509   4.347  17.407  0.00  0.00    +0.000 N 
ATOM     30  C   UNL     1      49.582   5.557  16.754  0.00  0.00    +0.000 A 
ATOM     31  O   UNL     1      48.819   5.830  15.833  0.00  0.00    +0.000 OA
ATOM     32  C   UNL     1      50.604   6.454  17.254  0.00  0.00    +0.000 A 
ATOM     33  H   UNL     1      48.809   3.705  17.080  0.00  0.00    +0.000 HD
ENDBRANCH  20  23
ENDBRANCH  18  19
ENDBRANCH   4  18
TORSDOF 7
ENDMDL
MODEL 8
REMARK VINA RESULT:    -6.483      3.827      8.688
REMARK INTER + INTRA:         -10.062
REMARK INTER:                  -8.768
REMARK INTRA:                  -1.294
REMARK UNBOUND:                -0.927
REMARK  Name = 
REMARK  8 active torsions:
REMARK  status: ('A' for Active; 'I' for Inactive)
REMARK    1  A    between atoms: C_1  and  C_2
REMARK    2  A    between atoms: C_2  and  N_3
REMARK    3  A    between atoms: C_2  and  C_25
REMARK    4  A    between atoms: N_3  and  C_4
REMARK    5  A    between atoms: C_4  and  C_5
REMARK    6  A    between atoms: C_8  and  C_9
REMARK    7  A    between atoms: C_9  and  N_10
REMARK    8  A    between atoms: C_11  and  C_13
REMARK                            x       y       z     vdW  Elec       q    Type
REMARK                         _______ _______ _______ _____ _____    ______ ____
ROOT
ATOM      1  C   UNL     1      50.215   7.768  15.357  0.00  0.00    +0.000 A 
ATOM      2  C   UNL     1      50.743   7.808  14.070  0.00  0.00    +0.000 A 
ATOM      3  C   UNL     1      49.891   8.077  12.998  0.00  0.00    +0.000 A 
ATOM      4  C   UNL     1      48.534   8.310  13.232  0.00  0.00    +0.000 A 
ATOM      5  C   UNL     1      48.097   8.246  14.548  0.00  0.00    +0.000 A 
ATOM      6  N   UNL     1      48.899   7.996  15.605  0.00  0.00    +0.000 NA
ENDROOT
BRANCH   1   7
ATOM      7  C   UNL     1      51.110   7.498  16.554  0.00  0.00    +0.000 C 
BRANCH   7   8
ATOM      8  N   UNL     1      51.386   6.068  16.732  0.00  0.00    +0.000 NA
ATOM      9  H   UNL     1      52.396   5.928  16.763  0.00  0.00    +0.000 HD
BRANCH   8  11
ATOM     10  C   UNL     1      50.317   6.571  18.941  0.00  0.00    +0.000 C 
ATOM     11  C   UNL     1      50.793   5.497  17.952  0.00  0.00    +0.000 C 
BRANCH  11  12
ATOM     12  C   UNL     1      49.620   4.577  17.605  0.00  0.00    +0.000 A 
ATOM     13  C   UNL     1      48.304   4.992  17.820  0.00  0.00    +0.000 A 
ATOM     14  C   UNL     1      47.260   4.117  17.529  0.00  0.00    +0.000 A 
ATOM     15  C   UNL     1      47.551   2.858  17.024  0.00  0.00    +0.000 A 
ATOM     16  C   UNL     1      48.881   2.525  16.826  0.00  0.00    +0.000 A 
ATOM     17  N   UNL     1      49.917   3.350  17.103  0.00  0.00    +0.000 NA
ENDBRANCH  11  12
ENDBRANCH   8  11
ENDBRANCH   7   8
ENDBRANCH   1   7
BRANCH   4  18
ATOM     18  C   UNL     1      47.562   8.566  12.121  0.00  0.00    +0.000 C 
BRANCH  18  19
ATOM     19  N   UNL     1      47.085   7.328  11.555  0.00  0.00    +0.000 N 
ATOM     20  C   UNL     1      45.745   7.111  11.357  0.00  0.00    +0.000 C 
ATOM     21  O   UNL     1      44.904   7.972  11.600  0.00  0.00    +0.000 OA
ATOM     22  H   UNL     1      47.716   6.533  11.576  0.00  0.00    +0.000 HD
BRANCH  20  23
ATOM     23  C   UNL     1      45.372   5.815  10.776  0.00  0.00    +0.000 A 
ATOM     24  C   UNL     1      45.714   5.526   9.462  0.00  0.00    +0.000 A 
ATOM     25  S   UNL     1      45.238   3.969   8.957  0.00  0.00    +0.000 S 
ATOM     26  C   UNL     1      44.511   3.643  10.461  0.00  0.00    +0.000 A 
ATOM     27  N   UNL     1      43.874   2.465  10.692  0.00  0.00    +0.000 NA
ATOM     28  C   UNL     1      43.341   2.364  11.865  0.00  0.00    +0.000 A 
ATOM     29  N   UNL     1      43.394   3.336  12.833  0.00  0.00    +0.000 N 
ATOM     30  C   UNL     1      44.055   4.530  12.653  0.00  0.00    +0.000 A 
ATOM     31  O   UNL     1      44.127   5.360  13.554  0.00  0.00    +0.000 OA
ATOM     32  C   UNL     1      44.652   4.700  11.343  0.00  0.00    +0.000 A 
ATOM     33  H   UNL     1      42.969   3.193  13.732  0.00  0.00    +0.000 HD
ENDBRANCH  20  23
ENDBRANCH  18  19
ENDBRANCH   4  18
TORSDOF 7
ENDMDL
MODEL 9
REMARK VINA RESULT:    -6.472      3.583      8.382
REMARK INTER + INTRA:         -10.048
REMARK INTER:                  -8.144
REMARK INTRA:                  -1.904
REMARK UNBOUND:                -0.927
REMARK  Name = 
REMARK  8 active torsions:
REMARK  status: ('A' for Active; 'I' for Inactive)
REMARK    1  A    between atoms: C_1  and  C_2
REMARK    2  A    between atoms: C_2  and  N_3
REMARK    3  A    between atoms: C_2  and  C_25
REMARK    4  A    between atoms: N_3  and  C_4
REMARK    5  A    between atoms: C_4  and  C_5
REMARK    6  A    between atoms: C_8  and  C_9
REMARK    7  A    between atoms: C_9  and  N_10
REMARK    8  A    between atoms: C_11  and  C_13
REMARK                            x       y       z     vdW  Elec       q    Type
REMARK                         _______ _______ _______ _____ _____    ______ ____
ROOT
ATOM      1  C   UNL     1      49.858   7.884  16.918  0.00  0.00    +0.000 A 
ATOM      2  C   UNL     1      50.240   7.007  15.907  0.00  0.00    +0.000 A 
ATOM      3  C   UNL     1      49.857   7.282  14.593  0.00  0.00    +0.000 A 
ATOM      4  C   UNL     1      49.111   8.429  14.314  0.00  0.00    +0.000 A 
ATOM      5  C   UNL     1      48.772   9.242  15.387  0.00  0.00    +0.000 A 
ATOM      6  N   UNL     1      49.136   9.006  16.665  0.00  0.00    +0.000 NA
ENDROOT
BRANCH   1   7
ATOM      7  C   UNL     1      50.270   7.632  18.357  0.00  0.00    +0.000 C 
BRANCH   7   8
ATOM      8  N   UNL     1      49.128   7.290  19.213  0.00  0.00    +0.000 NA
ATOM      9  H   UNL     1      48.268   7.405  18.677  0.00  0.00    +0.000 HD
BRANCH   8  11
ATOM     10  C   UNL     1      48.283   5.726  20.977  0.00  0.00    +0.000 C 
ATOM     11  C   UNL     1      49.175   5.918  19.743  0.00  0.00    +0.000 C 
BRANCH  11  12
ATOM     12  C   UNL     1      48.769   4.907  18.667  0.00  0.00    +0.000 A 
ATOM     13  C   UNL     1      49.675   3.943  18.219  0.00  0.00    +0.000 A 
ATOM     14  C   UNL     1      49.288   3.062  17.213  0.00  0.00    +0.000 A 
ATOM     15  C   UNL     1      48.008   3.156  16.686  0.00  0.00    +0.000 A 
ATOM     16  C   UNL     1      47.162   4.129  17.191  0.00  0.00    +0.000 A 
ATOM     17  N   UNL     1      47.510   5.003  18.165  0.00  0.00    +0.000 NA
ENDBRANCH  11  12
ENDBRANCH   8  11
ENDBRANCH   7   8
ENDBRANCH   1   7
BRANCH   4  18
ATOM     18  C   UNL     1      48.637   8.759  12.931  0.00  0.00    +0.000 C 
BRANCH  18  19
ATOM     19  N   UNL     1      47.668   7.795  12.472  0.00  0.00    +0.000 N 
ATOM     20  C   UNL     1      46.341   7.915  12.796  0.00  0.00    +0.000 C 
ATOM     21  O   UNL     1      45.913   8.869  13.441  0.00  0.00    +0.000 OA
ATOM     22  H   UNL     1      48.020   6.895  12.158  0.00  0.00    +0.000 HD
BRANCH  20  23
ATOM     23  C   UNL     1      45.443   6.877  12.276  0.00  0.00    +0.000 A 
ATOM     24  C   UNL     1      44.334   7.239  11.523  0.00  0.00    +0.000 A 
ATOM     25  S   UNL     1      43.420   5.911  10.968  0.00  0.00    +0.000 S 
ATOM     26  C   UNL     1      44.446   4.805  11.756  0.00  0.00    +0.000 A 
ATOM     27  N   UNL     1      44.202   3.468  11.711  0.00  0.00    +0.000 NA
ATOM     28  C   UNL     1      45.041   2.747  12.378  0.00  0.00    +0.000 A 
ATOM     29  N   UNL     1      46.109   3.244  13.083  0.00  0.00    +0.000 N 
ATOM     30  C   UNL     1      46.411   4.587  13.130  0.00  0.00    +0.000 A 
ATOM     31  O   UNL     1      47.400   4.997  13.728  0.00  0.00    +0.000 OA
ATOM     32  C   UNL     1      45.484   5.440  12.413  0.00  0.00    +0.000 A 
ATOM     33  H   UNL     1      46.735   2.629  13.574  0.00  0.00    +0.000 HD
ENDBRANCH  20  23
ENDBRANCH  18  19
ENDBRANCH   4  18
TORSDOF 7
ENDMDL
