MODEL 1
REMARK VINA RESULT:    -6.785      0.000      0.000
REMARK INTER + INTRA:         -10.163
REMARK INTER:                  -9.165
REMARK INTRA:                  -0.998
REMARK UNBOUND:                -0.998
REMARK  Name = 
REMARK  10 active torsions:
REMARK  status: ('A' for Active; 'I' for Inactive)
REMARK    1  A    between atoms: C_1  and  C_2
REMARK    2  A    between atoms: C_2  and  C_3
REMARK    3  A    between atoms: C_2  and  N_4
REMARK    4  A    between atoms: C_5  and  C_7
REMARK    5  A    between atoms: C_10  and  O_11
REMARK    6  A    between atoms: O_11  and  C_12
REMARK    7  A    between atoms: C_12  and  C_13
REMARK    8  A    between atoms: C_13  and  C_14
REMARK    9  A    between atoms: C_13  and  C_15
REMARK   10  A    between atoms: C_13  and  C_16
REMARK                            x       y       z     vdW  Elec       q    Type
REMARK                         _______ _______ _______ _____ _____    ______ ____
ROOT
ATOM      1  C   UNL     1      48.816   7.208  12.549  0.00  0.00    +0.000 A 
ATOM      2  C   UNL     1      47.792   7.598  11.692  0.00  0.00    +0.000 A 
ATOM      3  C   UNL     1      46.550   6.965  11.787  0.00  0.00    +0.000 A 
ATOM      4  C   UNL     1      46.366   5.963  12.733  0.00  0.00    +0.000 A 
ATOM      5  C   UNL     1      47.448   5.653  13.558  0.00  0.00    +0.000 A 
ATOM      6  N   UNL     1      48.672   6.241  13.498  0.00  0.00    +0.000 NA
ENDROOT
BRANCH   1   8
ATOM      7  N   UNL     1      50.904   7.520  11.315  0.00  0.00    +0.000 N 
ATOM      8  C   UNL     1      50.162   7.857  12.433  0.00  0.00    +0.000 C 
ATOM      9  O   UNL     1      50.558   8.637  13.297  0.00  0.00    +0.000 OA
ATOM     10  H   UNL     1      50.437   6.943  10.620  0.00  0.00    +0.000 HD
BRANCH   7  12
ATOM     11  C   UNL     1      53.086   7.097  10.281  0.00  0.00    +0.000 C 
ATOM     12  C   UNL     1      52.220   8.082  11.058  0.00  0.00    +0.000 C 
ATOM     13  C   UNL     1      52.127   9.408  10.306  0.00  0.00    +0.000 C 
ENDBRANCH   7  12
ENDBRANCH   1   8
BRANCH   4  14
ATOM     14  O   UNL     1      45.224   5.241  12.929  0.00  0.00    +0.000 OA
BRANCH  14  15
ATOM     15  C   UNL     1      45.209   3.886  12.452  0.00  0.00    +0.000 C 
BRANCH  15  16
ATOM     16  C   UNL     1      44.138   3.712  11.335  0.00  0.00    +0.000 C 
ATOM     17  C   UNL     1      43.257   2.476  11.637  0.00  0.00    +0.000 C 
ATOM     18  C   UNL     1      43.202   4.945  11.368  0.00  0.00    +0.000 C 
BRANCH  16  19
ATOM     19  C   UNL     1      44.812   3.496   9.963  0.00  0.00    +0.000 A 
ATOM     20  C   UNL     1      45.276   4.599   9.219  0.00  0.00    +0.000 A 
ATOM     21  C   UNL     1      46.001   4.428   8.035  0.00  0.00    +0.000 A 
ATOM     22  C   UNL     1      46.273   3.149   7.562  0.00  0.00    +0.000 A 
ATOM     23  C   UNL     1      45.792   2.045   8.256  0.00  0.00    +0.000 A 
ATOM     24  C   UNL     1      45.062   2.216   9.437  0.00  0.00    +0.000 A 
ENDBRANCH  16  19
ENDBRANCH  15  16
ENDBRANCH  14  15
ENDBRANCH   4  14
TORSDOF 6
ENDMDL
MODEL 2
REMARK VINA RESULT:    -6.412      2.920      4.288
REMARK INTER + INTRA:          -9.659
REMARK INTER:                  -8.989
REMARK INTRA:                  -0.670
REMARK UNBOUND:                -0.998
REMARK  Name = 
REMARK  10 active torsions:
REMARK  status: ('A' for Active; 'I' for Inactive)
REMARK    1  A    between atoms: C_1  and  C_2
REMARK    2  A    between atoms: C_2  and  C_3
REMARK    3  A    between atoms: C_2  and  N_4
REMARK    4  A    between atoms: C_5  and  C_7
REMARK    5  A    between atoms: C_10  and  O_11
REMARK    6  A    between atoms: O_11  and  C_12
REMARK    7  A    between atoms: C_12  and  C_13
REMARK    8  A    between atoms: C_13  and  C_14
REMARK    9  A    between atoms: C_13  and  C_15
REMARK   10  A    between atoms: C_13  and  C_16
REMARK                            x       y       z     vdW  Elec       q    Type
REMARK                         _______ _______ _______ _____ _____    ______ ____
ROOT
ATOM      1  C   UNL     1      48.307   5.851  15.443  0.00  0.00    +0.000 A 
ATOM      2  C   UNL     1      48.343   6.825  14.450  0.00  0.00    +0.000 A 
ATOM      3  C   UNL     1      47.548   6.662  13.313  0.00  0.00    +0.000 A 
ATOM      4  C   UNL     1      46.742   5.535  13.199  0.00  0.00    +0.000 A 
ATOM      5  C   UNL     1      46.762   4.622  14.255  0.00  0.00    +0.000 A 
ATOM      6  N   UNL     1      47.521   4.741  15.376  0.00  0.00    +0.000 NA
ENDROOT
BRANCH   1   8
ATOM      7  N   UNL     1      48.563   6.482  17.792  0.00  0.00    +0.000 N 
ATOM      8  C   UNL     1      49.181   5.999  16.652  0.00  0.00    +0.000 C 
ATOM      9  O   UNL     1      50.373   5.701  16.603  0.00  0.00    +0.000 OA
ATOM     10  H   UNL     1      47.555   6.600  17.744  0.00  0.00    +0.000 HD
BRANCH   7  12
ATOM     11  C   UNL     1      49.209   8.115  19.503  0.00  0.00    +0.000 C 
ATOM     12  C   UNL     1      49.279   6.662  19.045  0.00  0.00    +0.000 C 
ATOM     13  C   UNL     1      48.740   5.740  20.137  0.00  0.00    +0.000 C 
ENDBRANCH   7  12
ENDBRANCH   1   8
BRANCH   4  14
ATOM     14  O   UNL     1      45.932   5.227  12.144  0.00  0.00    +0.000 OA
BRANCH  14  15
ATOM     15  C   UNL     1      45.366   3.907  12.110  0.00  0.00    +0.000 C 
BRANCH  15  16
ATOM     16  C   UNL     1      44.327   3.788  10.955  0.00  0.00    +0.000 C 
ATOM     17  C   UNL     1      43.288   2.693  11.293  0.00  0.00    +0.000 C 
ATOM     18  C   UNL     1      43.552   5.126  10.864  0.00  0.00    +0.000 C 
BRANCH  16  19
ATOM     19  C   UNL     1      45.024   3.397   9.634  0.00  0.00    +0.000 A 
ATOM     20  C   UNL     1      45.524   4.394   8.773  0.00  0.00    +0.000 A 
ATOM     21  C   UNL     1      46.269   4.069   7.634  0.00  0.00    +0.000 A 
ATOM     22  C   UNL     1      46.523   2.738   7.324  0.00  0.00    +0.000 A 
ATOM     23  C   UNL     1      46.007   1.734   8.135  0.00  0.00    +0.000 A 
ATOM     24  C   UNL     1      45.257   2.058   9.271  0.00  0.00    +0.000 A 
ENDBRANCH  16  19
ENDBRANCH  15  16
ENDBRANCH  14  15
ENDBRANCH   4  14
TORSDOF 6
ENDMDL
MODEL 3
REMARK VINA RESULT:    -6.315      3.306      5.106
REMARK INTER + INTRA:          -9.528
REMARK INTER:                  -8.827
REMARK INTRA:                  -0.702
REMARK UNBOUND:                -0.998
REMARK  Name = 
REMARK  10 active torsions:
REMARK  status: ('A' for Active; 'I' for Inactive)
REMARK    1  A    between atoms: C_1  and  C_2
REMARK    2  A    between atoms: C_2  and  C_3
REMARK    3  A    between atoms: C_2  and  N_4
REMARK    4  A    between atoms: C_5  and  C_7
REMARK    5  A    between atoms: C_10  and  O_11
REMARK    6  A    between atoms: O_11  and  C_12
REMARK    7  A    between atoms: C_12  and  C_13
REMARK    8  A    between atoms: C_13  and  C_14
REMARK    9  A    between atoms: C_13  and  C_15
REMARK   10  A    between atoms: C_13  and  C_16
REMARK                            x       y       z     vdW  Elec       q    Type
REMARK                         _______ _______ _______ _____ _____    ______ ____
ROOT
ATOM      1  C   UNL     1      48.283   5.352  16.123  0.00  0.00    +0.000 A 
ATOM      2  C   UNL     1      47.431   4.275  15.896  0.00  0.00    +0.000 A 
ATOM      3  C   UNL     1      46.770   4.182  14.669  0.00  0.00    +0.000 A 
ATOM      4  C   UNL     1      46.977   5.162  13.705  0.00  0.00    +0.000 A 
ATOM      5  C   UNL     1      47.862   6.195  14.020  0.00  0.00    +0.000 A 
ATOM      6  N   UNL     1      48.523   6.325  15.201  0.00  0.00    +0.000 NA
ENDROOT
BRANCH   1   8
ATOM      7  N   UNL     1      48.161   5.798  18.524  0.00  0.00    +0.000 N 
ATOM      8  C   UNL     1      48.971   5.480  17.448  0.00  0.00    +0.000 C 
ATOM      9  O   UNL     1      50.185   5.309  17.543  0.00  0.00    +0.000 OA
ATOM     10  H   UNL     1      47.161   5.819  18.346  0.00  0.00    +0.000 HD
BRANCH   7  12
ATOM     11  C   UNL     1      47.863   6.949  20.669  0.00  0.00    +0.000 C 
ATOM     12  C   UNL     1      48.684   5.939  19.874  0.00  0.00    +0.000 C 
ATOM     13  C   UNL     1      48.721   4.599  20.605  0.00  0.00    +0.000 C 
ENDBRANCH   7  12
ENDBRANCH   1   8
BRANCH   4  14
ATOM     14  O   UNL     1      46.388   5.220  12.475  0.00  0.00    +0.000 OA
BRANCH  14  15
ATOM     15  C   UNL     1      45.117   5.883  12.381  0.00  0.00    +0.000 C 
BRANCH  15  16
ATOM     16  C   UNL     1      44.065   4.952  11.708  0.00  0.00    +0.000 C 
ATOM     17  C   UNL     1      43.593   3.877  12.715  0.00  0.00    +0.000 C 
ATOM     18  C   UNL     1      42.823   5.806  11.352  0.00  0.00    +0.000 C 
BRANCH  16  19
ATOM     19  C   UNL     1      44.678   4.231  10.488  0.00  0.00    +0.000 A 
ATOM     20  C   UNL     1      44.509   2.841  10.328  0.00  0.00    +0.000 A 
ATOM     21  C   UNL     1      44.943   2.182   9.173  0.00  0.00    +0.000 A 
ATOM     22  C   UNL     1      45.564   2.895   8.155  0.00  0.00    +0.000 A 
ATOM     23  C   UNL     1      45.778   4.260   8.305  0.00  0.00    +0.000 A 
ATOM     24  C   UNL     1      45.350   4.919   9.462  0.00  0.00    +0.000 A 
ENDBRANCH  16  19
ENDBRANCH  15  16
ENDBRANCH  14  15
ENDBRANCH   4  14
TORSDOF 6
ENDMDL
MODEL 4
REMARK VINA RESULT:    -6.140      3.212      4.538
REMARK INTER + INTRA:          -9.291
REMARK INTER:                  -8.458
REMARK INTRA:                  -0.834
REMARK UNBOUND:                -0.998
REMARK  Name = 
REMARK  10 active torsions:
REMARK  status: ('A' for Active; 'I' for Inactive)
REMARK    1  A    between atoms: C_1  and  C_2
REMARK    2  A    between atoms: C_2  and  C_3
REMARK    3  A    between atoms: C_2  and  N_4
REMARK    4  A    between atoms: C_5  and  C_7
REMARK    5  A    between atoms: C_10  and  O_11
REMARK    6  A    between atoms: O_11  and  C_12
REMARK    7  A    between atoms: C_12  and  C_13
REMARK    8  A    between atoms: C_13  and  C_14
REMARK    9  A    between atoms: C_13  and  C_15
REMARK   10  A    between atoms: C_13  and  C_16
REMARK                            x       y       z     vdW  Elec       q    Type
REMARK                         _______ _______ _______ _____ _____    ______ ____
ROOT
ATOM      1  C   UNL     1      48.567   5.810  15.917  0.00  0.00    +0.000 A 
ATOM      2  C   UNL     1      48.448   6.638  14.805  0.00  0.00    +0.000 A 
ATOM      3  C   UNL     1      47.610   6.249  13.757  0.00  0.00    +0.000 A 
ATOM      4  C   UNL     1      46.916   5.048  13.848  0.00  0.00    +0.000 A 
ATOM      5  C   UNL     1      47.089   4.293  15.010  0.00  0.00    +0.000 A 
ATOM      6  N   UNL     1      47.895   4.634  16.051  0.00  0.00    +0.000 NA
ENDROOT
BRANCH   1   8
ATOM      7  N   UNL     1      49.768   5.217  17.963  0.00  0.00    +0.000 N 
ATOM      8  C   UNL     1      49.490   6.202  17.032  0.00  0.00    +0.000 C 
ATOM      9  O   UNL     1      49.954   7.338  17.091  0.00  0.00    +0.000 OA
ATOM     10  H   UNL     1      49.408   4.288  17.760  0.00  0.00    +0.000 HD
BRANCH   7  12
ATOM     11  C   UNL     1      49.963   5.108  20.405  0.00  0.00    +0.000 C 
ATOM     12  C   UNL     1      50.659   5.444  19.090  0.00  0.00    +0.000 C 
ATOM     13  C   UNL     1      51.949   4.638  18.957  0.00  0.00    +0.000 C 
ENDBRANCH   7  12
ENDBRANCH   1   8
BRANCH   4  14
ATOM     14  O   UNL     1      46.083   4.525  12.902  0.00  0.00    +0.000 OA
BRANCH  14  15
ATOM     15  C   UNL     1      44.691   4.869  12.985  0.00  0.00    +0.000 C 
BRANCH  15  16
ATOM     16  C   UNL     1      44.174   5.392  11.612  0.00  0.00    +0.000 C 
ATOM     17  C   UNL     1      42.628   5.424  11.609  0.00  0.00    +0.000 C 
ATOM     18  C   UNL     1      44.651   6.856  11.443  0.00  0.00    +0.000 C 
BRANCH  16  19
ATOM     19  C   UNL     1      44.637   4.465  10.467  0.00  0.00    +0.000 A 
ATOM     20  C   UNL     1      44.201   3.126  10.419  0.00  0.00    +0.000 A 
ATOM     21  C   UNL     1      44.501   2.299   9.331  0.00  0.00    +0.000 A 
ATOM     22  C   UNL     1      45.251   2.790   8.269  0.00  0.00    +0.000 A 
ATOM     23  C   UNL     1      45.727   4.095   8.310  0.00  0.00    +0.000 A 
ATOM     24  C   UNL     1      45.433   4.920   9.401  0.00  0.00    +0.000 A 
ENDBRANCH  16  19
ENDBRANCH  15  16
ENDBRANCH  14  15
ENDBRANCH   4  14
TORSDOF 6
ENDMDL
MODEL 5
REMARK VINA RESULT:    -6.016      2.929      3.506
REMARK INTER + INTRA:          -9.124
REMARK INTER:                  -8.441
REMARK INTRA:                  -0.683
REMARK UNBOUND:                -0.998
REMARK  Name = 
REMARK  10 active torsions:
REMARK  status: ('A' for Active; 'I' for Inactive)
REMARK    1  A    between atoms: C_1  and  C_2
REMARK    2  A    between atoms: C_2  and  C_3
REMARK    3  A    between atoms: C_2  and  N_4
REMARK    4  A    between atoms: C_5  and  C_7
REMARK    5  A    between atoms: C_10  and  O_11
REMARK    6  A    between atoms: O_11  and  C_12
REMARK    7  A    between atoms: C_12  and  C_13
REMARK    8  A    between atoms: C_13  and  C_14
REMARK    9  A    between atoms: C_13  and  C_15
REMARK   10  A    between atoms: C_13  and  C_16
REMARK                            x       y       z     vdW  Elec       q    Type
REMARK                         _______ _______ _______ _____ _____    ______ ____
ROOT
ATOM      1  C   UNL     1      48.656   5.737  15.909  0.00  0.00    +0.000 A 
ATOM      2  C   UNL     1      47.947   4.667  16.445  0.00  0.00    +0.000 A 
ATOM      3  C   UNL     1      46.946   4.065  15.678  0.00  0.00    +0.000 A 
ATOM      4  C   UNL     1      46.681   4.548  14.402  0.00  0.00    +0.000 A 
ATOM      5  C   UNL     1      47.457   5.615  13.946  0.00  0.00    +0.000 A 
ATOM      6  N   UNL     1      48.437   6.230  14.659  0.00  0.00    +0.000 NA
ENDROOT
BRANCH   1   8
ATOM      7  N   UNL     1      50.908   6.671  16.096  0.00  0.00    +0.000 N 
ATOM      8  C   UNL     1      49.709   6.412  16.736  0.00  0.00    +0.000 C 
ATOM      9  O   UNL     1      49.492   6.703  17.910  0.00  0.00    +0.000 OA
ATOM     10  H   UNL     1      50.940   6.477  15.099  0.00  0.00    +0.000 HD
BRANCH   7  12
ATOM     11  C   UNL     1      53.350   6.755  16.306  0.00  0.00    +0.000 C 
ATOM     12  C   UNL     1      52.016   7.335  16.764  0.00  0.00    +0.000 C 
ATOM     13  C   UNL     1      51.991   8.844  16.529  0.00  0.00    +0.000 C 
ENDBRANCH   7  12
ENDBRANCH   1   8
BRANCH   4  14
ATOM     14  O   UNL     1      45.724   4.082  13.547  0.00  0.00    +0.000 OA
BRANCH  14  15
ATOM     15  C   UNL     1      45.222   4.995  12.557  0.00  0.00    +0.000 C 
BRANCH  15  16
ATOM     16  C   UNL     1      44.202   4.279  11.622  0.00  0.00    +0.000 C 
ATOM     17  C   UNL     1      43.658   3.007  12.315  0.00  0.00    +0.000 C 
ATOM     18  C   UNL     1      42.994   5.224  11.412  0.00  0.00    +0.000 C 
BRANCH  16  19
ATOM     19  C   UNL     1      44.880   3.853  10.302  0.00  0.00    +0.000 A 
ATOM     20  C   UNL     1      44.912   2.495   9.927  0.00  0.00    +0.000 A 
ATOM     21  C   UNL     1      45.406   2.093   8.682  0.00  0.00    +0.000 A 
ATOM     22  C   UNL     1      45.887   3.039   7.784  0.00  0.00    +0.000 A 
ATOM     23  C   UNL     1      45.903   4.381   8.145  0.00  0.00    +0.000 A 
ATOM     24  C   UNL     1      45.415   4.783   9.393  0.00  0.00    +0.000 A 
ENDBRANCH  16  19
ENDBRANCH  15  16
ENDBRANCH  14  15
ENDBRANCH   4  14
TORSDOF 6
ENDMDL
MODEL 6
REMARK VINA RESULT:    -5.751      2.149      2.747
REMARK INTER + INTRA:          -8.766
REMARK INTER:                  -8.165
REMARK INTRA:                  -0.602
REMARK UNBOUND:                -0.998
REMARK  Name = 
REMARK  10 active torsions:
REMARK  status: ('A' for Active; 'I' for Inactive)
REMARK    1  A    between atoms: C_1  and  C_2
REMARK    2  A    between atoms: C_2  and  C_3
REMARK    3  A    between atoms: C_2  and  N_4
REMARK    4  A    between atoms: C_5  and  C_7
REMARK    5  A    between atoms: C_10  and  O_11
REMARK    6  A    between atoms: O_11  and  C_12
REMARK    7  A    between atoms: C_12  and  C_13
REMARK    8  A    between atoms: C_13  and  C_14
REMARK    9  A    between atoms: C_13  and  C_15
REMARK   10  A    between atoms: C_13  and  C_16
REMARK                            x       y       z     vdW  Elec       q    Type
REMARK                         _______ _______ _______ _____ _____    ______ ____
ROOT
ATOM      1  C   UNL     1      49.239   7.515  13.936  0.00  0.00    +0.000 A 
ATOM      2  C   UNL     1      48.651   8.367  13.006  0.00  0.00    +0.000 A 
ATOM      3  C   UNL     1      47.450   7.984  12.403  0.00  0.00    +0.000 A 
ATOM      4  C   UNL     1      46.872   6.766  12.743  0.00  0.00    +0.000 A 
ATOM      5  C   UNL     1      47.530   5.989  13.698  0.00  0.00    +0.000 A 
ATOM      6  N   UNL     1      48.699   6.322  14.307  0.00  0.00    +0.000 NA
ENDROOT
BRANCH   1   8
ATOM      7  N   UNL     1      50.951   7.129  15.640  0.00  0.00    +0.000 N 
ATOM      8  C   UNL     1      50.545   7.900  14.565  0.00  0.00    +0.000 C 
ATOM      9  O   UNL     1      51.193   8.850  14.131  0.00  0.00    +0.000 OA
ATOM     10  H   UNL     1      50.385   6.311  15.849  0.00  0.00    +0.000 HD
BRANCH   7  12
ATOM     11  C   UNL     1      52.187   6.717  17.717  0.00  0.00    +0.000 C 
ATOM     12  C   UNL     1      52.202   7.372  16.340  0.00  0.00    +0.000 C 
ATOM     13  C   UNL     1      53.401   6.877  15.535  0.00  0.00    +0.000 C 
ENDBRANCH   7  12
ENDBRANCH   1   8
BRANCH   4  14
ATOM     14  O   UNL     1      45.721   6.248  12.225  0.00  0.00    +0.000 OA
BRANCH  14  15
ATOM     15  C   UNL     1      45.748   5.818  10.855  0.00  0.00    +0.000 C 
BRANCH  15  16
ATOM     16  C   UNL     1      44.895   4.527  10.671  0.00  0.00    +0.000 C 
ATOM     17  C   UNL     1      45.044   3.617  11.913  0.00  0.00    +0.000 C 
ATOM     18  C   UNL     1      43.404   4.941  10.598  0.00  0.00    +0.000 C 
BRANCH  16  19
ATOM     19  C   UNL     1      45.368   3.733   9.434  0.00  0.00    +0.000 A 
ATOM     20  C   UNL     1      45.953   4.403   8.342  0.00  0.00    +0.000 A 
ATOM     21  C   UNL     1      46.503   3.701   7.265  0.00  0.00    +0.000 A 
ATOM     22  C   UNL     1      46.475   2.312   7.251  0.00  0.00    +0.000 A 
ATOM     23  C   UNL     1      45.869   1.627   8.297  0.00  0.00    +0.000 A 
ATOM     24  C   UNL     1      45.312   2.329   9.372  0.00  0.00    +0.000 A 
ENDBRANCH  16  19
ENDBRANCH  15  16
ENDBRANCH  14  15
ENDBRANCH   4  14
TORSDOF 6
ENDMDL
MODEL 7
REMARK VINA RESULT:    -5.604      4.970      8.568
REMARK INTER + INTRA:          -8.568
REMARK INTER:                  -7.616
REMARK INTRA:                  -0.952
REMARK UNBOUND:                -0.998
REMARK  Name = 
REMARK  10 active torsions:
REMARK  status: ('A' for Active; 'I' for Inactive)
REMARK    1  A    between atoms: C_1  and  C_2
REMARK    2  A    between atoms: C_2  and  C_3
REMARK    3  A    between atoms: C_2  and  N_4
REMARK    4  A    between atoms: C_5  and  C_7
REMARK    5  A    between atoms: C_10  and  O_11
REMARK    6  A    between atoms: O_11  and  C_12
REMARK    7  A    between atoms: C_12  and  C_13
REMARK    8  A    between atoms: C_13  and  C_14
REMARK    9  A    between atoms: C_13  and  C_15
REMARK   10  A    between atoms: C_13  and  C_16
REMARK                            x       y       z     vdW  Elec       q    Type
REMARK                         _______ _______ _______ _____ _____    ______ ____
ROOT
ATOM      1  C   UNL     1      47.107   4.851  14.408  0.00  0.00    +0.000 A 
ATOM      2  C   UNL     1      47.090   4.131  15.599  0.00  0.00    +0.000 A 
ATOM      3  C   UNL     1      47.910   4.546  16.652  0.00  0.00    +0.000 A 
ATOM      4  C   UNL     1      48.721   5.663  16.487  0.00  0.00    +0.000 A 
ATOM      5  C   UNL     1      48.656   6.327  15.261  0.00  0.00    +0.000 A 
ATOM      6  N   UNL     1      47.876   5.957  14.212  0.00  0.00    +0.000 NA
ENDROOT
BRANCH   1   8
ATOM      7  N   UNL     1      45.788   5.391  12.420  0.00  0.00    +0.000 N 
ATOM      8  C   UNL     1      46.257   4.396  13.260  0.00  0.00    +0.000 C 
ATOM      9  O   UNL     1      46.007   3.202  13.100  0.00  0.00    +0.000 OA
ATOM     10  H   UNL     1      46.139   6.329  12.592  0.00  0.00    +0.000 HD
BRANCH   7  12
ATOM     11  C   UNL     1      43.623   5.814  11.351  0.00  0.00    +0.000 C 
ATOM     12  C   UNL     1      44.967   5.100  11.256  0.00  0.00    +0.000 C 
ATOM     13  C   UNL     1      45.675   5.483   9.959  0.00  0.00    +0.000 C 
ENDBRANCH   7  12
ENDBRANCH   1   8
BRANCH   4  14
ATOM     14  O   UNL     1      49.587   6.172  17.411  0.00  0.00    +0.000 OA
BRANCH  14  15
ATOM     15  C   UNL     1      50.983   5.877  17.240  0.00  0.00    +0.000 C 
BRANCH  15  16
ATOM     16  C   UNL     1      51.550   5.173  18.509  0.00  0.00    +0.000 C 
ATOM     17  C   UNL     1      52.879   5.843  18.932  0.00  0.00    +0.000 C 
ATOM     18  C   UNL     1      50.551   5.392  19.671  0.00  0.00    +0.000 C 
BRANCH  16  19
ATOM     19  C   UNL     1      51.835   3.683  18.223  0.00  0.00    +0.000 A 
ATOM     20  C   UNL     1      50.845   2.872  17.634  0.00  0.00    +0.000 A 
ATOM     21  C   UNL     1      51.114   1.554  17.249  0.00  0.00    +0.000 A 
ATOM     22  C   UNL     1      52.378   1.013  17.452  0.00  0.00    +0.000 A 
ATOM     23  C   UNL     1      53.361   1.779  18.067  0.00  0.00    +0.000 A 
ATOM     24  C   UNL     1      53.090   3.094  18.458  0.00  0.00    +0.000 A 
ENDBRANCH  16  19
ENDBRANCH  15  16
ENDBRANCH  14  15
ENDBRANCH   4  14
TORSDOF 6
ENDMDL
MODEL 8
REMARK VINA RESULT:    -5.537      3.281      7.546
REMARK INTER + INTRA:          -8.477
REMARK INTER:                  -7.513
REMARK INTRA:                  -0.964
REMARK UNBOUND:                -0.998
REMARK  Name = 
REMARK  10 active torsions:
REMARK  status: ('A' for Active; 'I' for Inactive)
REMARK    1  A    between atoms: C_1  and  C_2
REMARK    2  A    between atoms: C_2  and  C_3
REMARK    3  A    between atoms: C_2  and  N_4
REMARK    4  A    between atoms: C_5  and  C_7
REMARK    5  A    between atoms: C_10  and  O_11
REMARK    6  A    between atoms: O_11  and  C_12
REMARK    7  A    between atoms: C_12  and  C_13
REMARK    8  A    between atoms: C_13  and  C_14
REMARK    9  A    between atoms: C_13  and  C_15
REMARK   10  A    between atoms: C_13  and  C_16
REMARK                            x       y       z     vdW  Elec       q    Type
REMARK                         _______ _______ _______ _____ _____    ______ ____
ROOT
ATOM      1  C   UNL     1      45.724   5.664  11.785  0.00  0.00    +0.000 A 
ATOM      2  C   UNL     1      46.391   4.875  12.718  0.00  0.00    +0.000 A 
ATOM      3  C   UNL     1      47.218   5.492  13.659  0.00  0.00    +0.000 A 
ATOM      4  C   UNL     1      47.357   6.875  13.644  0.00  0.00    +0.000 A 
ATOM      5  C   UNL     1      46.635   7.582  12.680  0.00  0.00    +0.000 A 
ATOM      6  N   UNL     1      45.822   7.022  11.746  0.00  0.00    +0.000 NA
ENDROOT
BRANCH   1   8
ATOM      7  N   UNL     1      45.519   4.227   9.817  0.00  0.00    +0.000 N 
ATOM      8  C   UNL     1      44.861   5.010  10.749  0.00  0.00    +0.000 C 
ATOM      9  O   UNL     1      43.643   5.179  10.751  0.00  0.00    +0.000 OA
ATOM     10  H   UNL     1      46.513   4.080   9.971  0.00  0.00    +0.000 HD
BRANCH   7  12
ATOM     11  C   UNL     1      45.604   3.556   7.460  0.00  0.00    +0.000 C 
ATOM     12  C   UNL     1      44.812   3.517   8.763  0.00  0.00    +0.000 C 
ATOM     13  C   UNL     1      44.521   2.071   9.158  0.00  0.00    +0.000 C 
ENDBRANCH   7  12
ENDBRANCH   1   8
BRANCH   4  14
ATOM     14  O   UNL     1      48.142   7.616  14.480  0.00  0.00    +0.000 OA
BRANCH  14  15
ATOM     15  C   UNL     1      49.418   7.066  14.847  0.00  0.00    +0.000 C 
BRANCH  15  16
ATOM     16  C   UNL     1      49.570   7.028  16.397  0.00  0.00    +0.000 C 
ATOM     17  C   UNL     1      51.016   7.410  16.792  0.00  0.00    +0.000 C 
ATOM     18  C   UNL     1      48.642   8.111  17.000  0.00  0.00    +0.000 C 
BRANCH  16  19
ATOM     19  C   UNL     1      49.285   5.610  16.937  0.00  0.00    +0.000 A 
ATOM     20  C   UNL     1      47.964   5.121  16.982  0.00  0.00    +0.000 A 
ATOM     21  C   UNL     1      47.687   3.799  17.347  0.00  0.00    +0.000 A 
ATOM     22  C   UNL     1      48.724   2.938  17.685  0.00  0.00    +0.000 A 
ATOM     23  C   UNL     1      50.032   3.407  17.688  0.00  0.00    +0.000 A 
ATOM     24  C   UNL     1      50.309   4.730  17.328  0.00  0.00    +0.000 A 
ENDBRANCH  16  19
ENDBRANCH  15  16
ENDBRANCH  14  15
ENDBRANCH   4  14
TORSDOF 6
ENDMDL
MODEL 9
REMARK VINA RESULT:    -5.428      4.266      8.527
REMARK INTER + INTRA:          -8.330
REMARK INTER:                  -7.641
REMARK INTRA:                  -0.689
REMARK UNBOUND:                -0.998
REMARK  Name = 
REMARK  10 active torsions:
REMARK  status: ('A' for Active; 'I' for Inactive)
REMARK    1  A    between atoms: C_1  and  C_2
REMARK    2  A    between atoms: C_2  and  C_3
REMARK    3  A    between atoms: C_2  and  N_4
REMARK    4  A    between atoms: C_5  and  C_7
REMARK    5  A    between atoms: C_10  and  O_11
REMARK    6  A    between atoms: O_11  and  C_12
REMARK    7  A    between atoms: C_12  and  C_13
REMARK    8  A    between atoms: C_13  and  C_14
REMARK    9  A    between atoms: C_13  and  C_15
REMARK   10  A    between atoms: C_13  and  C_16
REMARK                            x       y       z     vdW  Elec       q    Type
REMARK                         _______ _______ _______ _____ _____    ______ ____
ROOT
ATOM      1  C   UNL     1      45.759   4.731  12.541  0.00  0.00    +0.000 A 
ATOM      2  C   UNL     1      46.489   5.898  12.338  0.00  0.00    +0.000 A 
ATOM      3  C   UNL     1      47.392   6.311  13.321  0.00  0.00    +0.000 A 
ATOM      4  C   UNL     1      47.539   5.551  14.476  0.00  0.00    +0.000 A 
ATOM      5  C   UNL     1      46.774   4.388  14.580  0.00  0.00    +0.000 A 
ATOM      6  N   UNL     1      45.884   3.952  13.651  0.00  0.00    +0.000 NA
ENDROOT
BRANCH   1   8
ATOM      7  N   UNL     1      45.281   3.643  10.404  0.00  0.00    +0.000 N 
ATOM      8  C   UNL     1      44.763   4.296  11.508  0.00  0.00    +0.000 C 
ATOM      9  O   UNL     1      43.564   4.522  11.660  0.00  0.00    +0.000 OA
ATOM     10  H   UNL     1      46.273   3.424  10.432  0.00  0.00    +0.000 HD
BRANCH   7  12
ATOM     11  C   UNL     1      44.733   3.882   8.026  0.00  0.00    +0.000 C 
ATOM     12  C   UNL     1      44.436   3.147   9.329  0.00  0.00    +0.000 C 
ATOM     13  C   UNL     1      44.600   1.642   9.133  0.00  0.00    +0.000 C 
ENDBRANCH   7  12
ENDBRANCH   1   8
BRANCH   4  14
ATOM     14  O   UNL     1      48.360   5.836  15.529  0.00  0.00    +0.000 OA
BRANCH  14  15
ATOM     15  C   UNL     1      48.347   4.926  16.641  0.00  0.00    +0.000 C 
BRANCH  15  16
ATOM     16  C   UNL     1      49.441   5.319  17.679  0.00  0.00    +0.000 C 
ATOM     17  C   UNL     1      50.088   4.043  18.268  0.00  0.00    +0.000 C 
ATOM     18  C   UNL     1      50.562   6.084  16.934  0.00  0.00    +0.000 C 
BRANCH  16  19
ATOM     19  C   UNL     1      48.823   6.124  18.843  0.00  0.00    +0.000 A 
ATOM     20  C   UNL     1      48.780   7.531  18.788  0.00  0.00    +0.000 A 
ATOM     21  C   UNL     1      48.117   8.280  19.765  0.00  0.00    +0.000 A 
ATOM     22  C   UNL     1      47.487   7.639  20.826  0.00  0.00    +0.000 A 
ATOM     23  C   UNL     1      47.548   6.254  20.925  0.00  0.00    +0.000 A 
ATOM     24  C   UNL     1      48.217   5.505  19.951  0.00  0.00    +0.000 A 
ENDBRANCH  16  19
ENDBRANCH  15  16
ENDBRANCH  14  15
ENDBRANCH   4  14
TORSDOF 6
ENDMDL
