MODEL 1
REMARK VINA RESULT:    -8.919      0.000      0.000
REMARK INTER + INTRA:         -13.400
REMARK INTER:                 -12.569
REMARK INTRA:                  -0.831
REMARK UNBOUND:                -0.831
REMARK  Name = 
REMARK  9 active torsions:
REMARK  status: ('A' for Active; 'I' for Inactive)
REMARK    1  A    between atoms: C_1  and  C_2
REMARK    2  A    between atoms: C_2  and  C_3
REMARK    3  A    between atoms: C_5  and  O_6
REMARK    4  A    between atoms: O_6  and  C_7
REMARK    5  A    between atoms: C_11  and  C_12
REMARK    6  A    between atoms: C_12  and  C_13
REMARK    7  A    between atoms: C_13  and  N_14
REMARK    8  A    between atoms: N_14  and  C_15
REMARK    9  A    between atoms: C_18  and  C_19
REMARK                            x       y       z     vdW  Elec       q    Type
REMARK                         _______ _______ _______ _____ _____    ______ ____
ROOT
ATOM      1  C   UNL     1      43.262   5.334  12.445  0.00  0.00    +0.000 C 
ENDROOT
BRANCH   1   6
ATOM      2  C   UNL     1      46.777   4.810  13.914  0.00  0.00    +0.000 A 
ATOM      3  C   UNL     1      47.397   6.008  13.578  0.00  0.00    +0.000 A 
ATOM      4  C   UNL     1      46.671   7.001  12.917  0.00  0.00    +0.000 A 
ATOM      5  C   UNL     1      45.330   6.790  12.573  0.00  0.00    +0.000 A 
ATOM      6  C   UNL     1      44.701   5.575  12.873  0.00  0.00    +0.000 A 
ATOM      7  C   UNL     1      45.449   4.599  13.550  0.00  0.00    +0.000 A 
BRANCH   2   8
ATOM      8  O   UNL     1      47.527   3.872  14.583  0.00  0.00    +0.000 OA
BRANCH   8  13
ATOM      9  C   UNL     1      48.334   4.145  19.008  0.00  0.00    +0.000 C 
ATOM     10  C   UNL     1      49.020   3.920  17.661  0.00  0.00    +0.000 C 
ATOM     11  C   UNL     1      50.522   3.714  17.817  0.00  0.00    +0.000 C 
ATOM     12  C   UNL     1      48.641   4.975  16.592  0.00  0.00    +0.000 C 
ATOM     13  C   UNL     1      47.591   3.984  16.026  0.00  0.00    +0.000 C 
ATOM     14  C   UNL     1      48.345   2.852  16.756  0.00  0.00    +0.000 C 
ENDBRANCH   8  13
ENDBRANCH   2   8
ENDBRANCH   1   6
BRANCH   1  15
ATOM     15  C   UNL     1      43.119   4.372  11.255  0.00  0.00    +0.000 C 
BRANCH  15  16
ATOM     16  N   UNL     1      43.737   4.866  10.032  0.00  0.00    +0.000 N 
ATOM     17  H   UNL     1      43.169   5.489   9.469  0.00  0.00    +0.000 HD
BRANCH  16  18
ATOM     18  C   UNL     1      44.523   3.985   9.279  0.00  0.00    +0.000 A 
ATOM     19  C   UNL     1      44.539   2.595   9.465  0.00  0.00    +0.000 A 
ATOM     20  C   UNL     1      45.424   1.771   8.762  0.00  0.00    +0.000 A 
ATOM     21  C   UNL     1      46.340   2.327   7.866  0.00  0.00    +0.000 A 
ATOM     22  C   UNL     1      46.359   3.710   7.686  0.00  0.00    +0.000 A 
ATOM     23  C   UNL     1      45.460   4.526   8.388  0.00  0.00    +0.000 A 
BRANCH  21  24
ATOM     24  C   UNL     1      47.295   1.415   7.180  0.00  0.00    +0.000 C 
ATOM     25  N   UNL     1      48.327   1.988   6.493  0.00  0.00    +0.000 N 
ATOM     26  O   UNL     1      47.154   0.199   7.202  0.00  0.00    +0.000 OA
ATOM     27  H   UNL     1      48.340   2.966   6.249  0.00  0.00    +0.000 HD
ATOM     28  H   UNL     1      48.906   1.357   5.952  0.00  0.00    +0.000 HD
ENDBRANCH  21  24
ENDBRANCH  16  18
ENDBRANCH  15  16
ENDBRANCH   1  15
TORSDOF 7
ENDMDL
MODEL 2
REMARK VINA RESULT:    -8.717      0.734      1.205
REMARK INTER + INTRA:         -13.115
REMARK INTER:                 -12.198
REMARK INTRA:                  -0.917
REMARK UNBOUND:                -0.831
REMARK  Name = 
REMARK  9 active torsions:
REMARK  status: ('A' for Active; 'I' for Inactive)
REMARK    1  A    between atoms: C_1  and  C_2
REMARK    2  A    between atoms: C_2  and  C_3
REMARK    3  A    between atoms: C_5  and  O_6
REMARK    4  A    between atoms: O_6  and  C_7
REMARK    5  A    between atoms: C_11  and  C_12
REMARK    6  A    between atoms: C_12  and  C_13
REMARK    7  A    between atoms: C_13  and  N_14
REMARK    8  A    between atoms: N_14  and  C_15
REMARK    9  A    between atoms: C_18  and  C_19
REMARK                            x       y       z     vdW  Elec       q    Type
REMARK                         _______ _______ _______ _____ _____    ______ ____
ROOT
ATOM      1  C   UNL     1      43.317   5.529  12.316  0.00  0.00    +0.000 C 
ENDROOT
BRANCH   1   6
ATOM      2  C   UNL     1      46.787   4.850  13.829  0.00  0.00    +0.000 A 
ATOM      3  C   UNL     1      47.533   5.888  13.284  0.00  0.00    +0.000 A 
ATOM      4  C   UNL     1      46.909   6.831  12.464  0.00  0.00    +0.000 A 
ATOM      5  C   UNL     1      45.544   6.726  12.171  0.00  0.00    +0.000 A 
ATOM      6  C   UNL     1      44.786   5.667  12.684  0.00  0.00    +0.000 A 
ATOM      7  C   UNL     1      45.433   4.740  13.518  0.00  0.00    +0.000 A 
BRANCH   2   8
ATOM      8  O   UNL     1      47.440   3.959  14.648  0.00  0.00    +0.000 OA
BRANCH   8  13
ATOM      9  C   UNL     1      48.114   4.697  19.042  0.00  0.00    +0.000 C 
ATOM     10  C   UNL     1      48.788   4.143  17.786  0.00  0.00    +0.000 C 
ATOM     11  C   UNL     1      50.205   3.659  18.071  0.00  0.00    +0.000 C 
ATOM     12  C   UNL     1      48.684   5.088  16.563  0.00  0.00    +0.000 C 
ATOM     13  C   UNL     1      47.470   4.263  16.064  0.00  0.00    +0.000 C 
ATOM     14  C   UNL     1      47.937   3.118  16.987  0.00  0.00    +0.000 C 
ENDBRANCH   8  13
ENDBRANCH   2   8
ENDBRANCH   1   6
BRANCH   1  15
ATOM     15  C   UNL     1      43.056   4.574  11.141  0.00  0.00    +0.000 C 
BRANCH  15  16
ATOM     16  N   UNL     1      43.745   4.958   9.917  0.00  0.00    +0.000 N 
ATOM     17  H   UNL     1      43.192   5.476   9.241  0.00  0.00    +0.000 HD
BRANCH  16  18
ATOM     18  C   UNL     1      44.634   4.045   9.335  0.00  0.00    +0.000 A 
ATOM     19  C   UNL     1      45.586   4.389   8.365  0.00  0.00    +0.000 A 
ATOM     20  C   UNL     1      46.375   3.420   7.736  0.00  0.00    +0.000 A 
ATOM     21  C   UNL     1      46.209   2.069   8.047  0.00  0.00    +0.000 A 
ATOM     22  C   UNL     1      45.249   1.703   8.990  0.00  0.00    +0.000 A 
ATOM     23  C   UNL     1      44.471   2.683   9.622  0.00  0.00    +0.000 A 
BRANCH  21  24
ATOM     24  C   UNL     1      47.035   1.072   7.314  0.00  0.00    +0.000 C 
ATOM     25  N   UNL     1      46.818  -0.248   7.588  0.00  0.00    +0.000 N 
ATOM     26  O   UNL     1      47.898   1.413   6.515  0.00  0.00    +0.000 OA
ATOM     27  H   UNL     1      46.303  -0.556   8.399  0.00  0.00    +0.000 HD
ATOM     28  H   UNL     1      47.456  -0.904   7.156  0.00  0.00    +0.000 HD
ENDBRANCH  21  24
ENDBRANCH  16  18
ENDBRANCH  15  16
ENDBRANCH   1  15
TORSDOF 7
ENDMDL
MODEL 3
REMARK VINA RESULT:    -7.863      2.705      3.905
REMARK INTER + INTRA:         -11.912
REMARK INTER:                 -11.196
REMARK INTRA:                  -0.716
REMARK UNBOUND:                -0.831
REMARK  Name = 
REMARK  9 active torsions:
REMARK  status: ('A' for Active; 'I' for Inactive)
REMARK    1  A    between atoms: C_1  and  C_2
REMARK    2  A    between atoms: C_2  and  C_3
REMARK    3  A    between atoms: C_5  and  O_6
REMARK    4  A    between atoms: O_6  and  C_7
REMARK    5  A    between atoms: C_11  and  C_12
REMARK    6  A    between atoms: C_12  and  C_13
REMARK    7  A    between atoms: C_13  and  N_14
REMARK    8  A    between atoms: N_14  and  C_15
REMARK    9  A    between atoms: C_18  and  C_19
REMARK                            x       y       z     vdW  Elec       q    Type
REMARK                         _______ _______ _______ _____ _____    ______ ____
ROOT
ATOM      1  C   UNL     1      44.978   3.622  12.387  0.00  0.00    +0.000 C 
ENDROOT
BRANCH   1   6
ATOM      2  C   UNL     1      47.021   6.757  13.277  0.00  0.00    +0.000 A 
ATOM      3  C   UNL     1      46.111   7.768  12.995  0.00  0.00    +0.000 A 
ATOM      4  C   UNL     1      44.825   7.439  12.559  0.00  0.00    +0.000 A 
ATOM      5  C   UNL     1      44.455   6.099  12.386  0.00  0.00    +0.000 A 
ATOM      6  C   UNL     1      45.371   5.070  12.632  0.00  0.00    +0.000 A 
ATOM      7  C   UNL     1      46.653   5.427  13.083  0.00  0.00    +0.000 A 
BRANCH   2   8
ATOM      8  O   UNL     1      48.267   7.129  13.724  0.00  0.00    +0.000 OA
BRANCH   8  13
ATOM      9  C   UNL     1      51.553   7.679  10.689  0.00  0.00    +0.000 C 
ATOM     10  C   UNL     1      50.484   8.441  11.473  0.00  0.00    +0.000 C 
ATOM     11  C   UNL     1      50.499   9.930  11.151  0.00  0.00    +0.000 C 
ATOM     12  C   UNL     1      50.493   8.129  12.991  0.00  0.00    +0.000 C 
ATOM     13  C   UNL     1      49.348   7.109  12.759  0.00  0.00    +0.000 C 
ATOM     14  C   UNL     1      49.063   7.815  11.417  0.00  0.00    +0.000 C 
ENDBRANCH   8  13
ENDBRANCH   2   8
ENDBRANCH   1   6
BRANCH   1  15
ATOM     15  C   UNL     1      43.650   3.456  11.634  0.00  0.00    +0.000 C 
BRANCH  15  16
ATOM     16  N   UNL     1      43.673   4.011  10.287  0.00  0.00    +0.000 N 
ATOM     17  H   UNL     1      42.769   4.241   9.887  0.00  0.00    +0.000 HD
BRANCH  16  18
ATOM     18  C   UNL     1      44.580   3.480   9.361  0.00  0.00    +0.000 A 
ATOM     19  C   UNL     1      44.905   2.117   9.277  0.00  0.00    +0.000 A 
ATOM     20  C   UNL     1      45.900   1.654   8.410  0.00  0.00    +0.000 A 
ATOM     21  C   UNL     1      46.616   2.553   7.617  0.00  0.00    +0.000 A 
ATOM     22  C   UNL     1      46.326   3.915   7.705  0.00  0.00    +0.000 A 
ATOM     23  C   UNL     1      45.320   4.368   8.570  0.00  0.00    +0.000 A 
BRANCH  21  24
ATOM     24  C   UNL     1      47.698   2.018   6.748  0.00  0.00    +0.000 C 
ATOM     25  N   UNL     1      48.692   2.878   6.380  0.00  0.00    +0.000 N 
ATOM     26  O   UNL     1      47.692   0.859   6.350  0.00  0.00    +0.000 OA
ATOM     27  H   UNL     1      48.609   3.879   6.478  0.00  0.00    +0.000 HD
ATOM     28  H   UNL     1      49.363   2.524   5.710  0.00  0.00    +0.000 HD
ENDBRANCH  21  24
ENDBRANCH  16  18
ENDBRANCH  15  16
ENDBRANCH   1  15
TORSDOF 7
ENDMDL
MODEL 4
REMARK VINA RESULT:    -7.427      1.817      2.286
REMARK INTER + INTRA:         -11.297
REMARK INTER:                 -10.425
REMARK INTRA:                  -0.872
REMARK UNBOUND:                -0.831
REMARK  Name = 
REMARK  9 active torsions:
REMARK  status: ('A' for Active; 'I' for Inactive)
REMARK    1  A    between atoms: C_1  and  C_2
REMARK    2  A    between atoms: C_2  and  C_3
REMARK    3  A    between atoms: C_5  and  O_6
REMARK    4  A    between atoms: O_6  and  C_7
REMARK    5  A    between atoms: C_11  and  C_12
REMARK    6  A    between atoms: C_12  and  C_13
REMARK    7  A    between atoms: C_13  and  N_14
REMARK    8  A    between atoms: N_14  and  C_15
REMARK    9  A    between atoms: C_18  and  C_19
REMARK                            x       y       z     vdW  Elec       q    Type
REMARK                         _______ _______ _______ _____ _____    ______ ____
ROOT
ATOM      1  C   UNL     1      44.959   5.920  12.065  0.00  0.00    +0.000 C 
ENDROOT
BRANCH   1   6
ATOM      2  C   UNL     1      48.169   6.147  14.170  0.00  0.00    +0.000 A 
ATOM      3  C   UNL     1      48.940   7.013  13.404  0.00  0.00    +0.000 A 
ATOM      4  C   UNL     1      48.410   7.559  12.232  0.00  0.00    +0.000 A 
ATOM      5  C   UNL     1      47.116   7.222  11.814  0.00  0.00    +0.000 A 
ATOM      6  C   UNL     1      46.340   6.323  12.556  0.00  0.00    +0.000 A 
ATOM      7  C   UNL     1      46.891   5.801  13.738  0.00  0.00    +0.000 A 
BRANCH   2   8
ATOM      8  O   UNL     1      48.726   5.654  15.326  0.00  0.00    +0.000 OA
BRANCH   8  13
ATOM      9  C   UNL     1      51.084   8.173  18.226  0.00  0.00    +0.000 C 
ATOM     10  C   UNL     1      50.063   7.037  18.156  0.00  0.00    +0.000 C 
ATOM     11  C   UNL     1      49.674   6.537  19.542  0.00  0.00    +0.000 C 
ATOM     12  C   UNL     1      50.463   5.908  17.173  0.00  0.00    +0.000 C 
ATOM     13  C   UNL     1      49.554   6.559  16.099  0.00  0.00    +0.000 C 
ATOM     14  C   UNL     1      48.840   7.315  17.238  0.00  0.00    +0.000 C 
ENDBRANCH   8  13
ENDBRANCH   2   8
ENDBRANCH   1   6
BRANCH   1  15
ATOM     15  C   UNL     1      44.757   6.106  10.553  0.00  0.00    +0.000 C 
BRANCH  15  16
ATOM     16  N   UNL     1      43.973   5.044   9.937  0.00  0.00    +0.000 N 
ATOM     17  H   UNL     1      43.181   4.708  10.475  0.00  0.00    +0.000 HD
BRANCH  16  18
ATOM     18  C   UNL     1      44.647   4.034   9.239  0.00  0.00    +0.000 A 
ATOM     19  C   UNL     1      44.520   2.666   9.523  0.00  0.00    +0.000 A 
ATOM     20  C   UNL     1      45.300   1.706   8.870  0.00  0.00    +0.000 A 
ATOM     21  C   UNL     1      46.251   2.098   7.925  0.00  0.00    +0.000 A 
ATOM     22  C   UNL     1      46.412   3.455   7.647  0.00  0.00    +0.000 A 
ATOM     23  C   UNL     1      45.618   4.409   8.300  0.00  0.00    +0.000 A 
BRANCH  21  24
ATOM     24  C   UNL     1      47.091   1.044   7.295  0.00  0.00    +0.000 C 
ATOM     25  N   UNL     1      46.831  -0.253   7.634  0.00  0.00    +0.000 N 
ATOM     26  O   UNL     1      48.002   1.321   6.524  0.00  0.00    +0.000 OA
ATOM     27  H   UNL     1      46.269  -0.503   8.434  0.00  0.00    +0.000 HD
ATOM     28  H   UNL     1      47.476  -0.945   7.275  0.00  0.00    +0.000 HD
ENDBRANCH  21  24
ENDBRANCH  16  18
ENDBRANCH  15  16
ENDBRANCH   1  15
TORSDOF 7
ENDMDL
MODEL 5
REMARK VINA RESULT:    -6.775      2.232      3.717
REMARK INTER + INTRA:         -10.379
REMARK INTER:                  -9.930
REMARK INTRA:                  -0.449
REMARK UNBOUND:                -0.831
REMARK  Name = 
REMARK  9 active torsions:
REMARK  status: ('A' for Active; 'I' for Inactive)
REMARK    1  A    between atoms: C_1  and  C_2
REMARK    2  A    between atoms: C_2  and  C_3
REMARK    3  A    between atoms: C_5  and  O_6
REMARK    4  A    between atoms: O_6  and  C_7
REMARK    5  A    between atoms: C_11  and  C_12
REMARK    6  A    between atoms: C_12  and  C_13
REMARK    7  A    between atoms: C_13  and  N_14
REMARK    8  A    between atoms: N_14  and  C_15
REMARK    9  A    between atoms: C_18  and  C_19
REMARK                            x       y       z     vdW  Elec       q    Type
REMARK                         _______ _______ _______ _____ _____    ______ ____
ROOT
ATOM      1  C   UNL     1      45.772   6.062  11.483  0.00  0.00    +0.000 C 
ENDROOT
BRANCH   1   6
ATOM      2  C   UNL     1      47.759   6.460  14.752  0.00  0.00    +0.000 A 
ATOM      3  C   UNL     1      47.712   5.168  15.261  0.00  0.00    +0.000 A 
ATOM      4  C   UNL     1      47.079   4.159  14.531  0.00  0.00    +0.000 A 
ATOM      5  C   UNL     1      46.474   4.445  13.301  0.00  0.00    +0.000 A 
ATOM      6  C   UNL     1      46.481   5.749  12.791  0.00  0.00    +0.000 A 
ATOM      7  C   UNL     1      47.137   6.742  13.537  0.00  0.00    +0.000 A 
BRANCH   2   8
ATOM      8  O   UNL     1      48.412   7.414  15.496  0.00  0.00    +0.000 OA
BRANCH   8  13
ATOM      9  C   UNL     1      51.215   9.736  12.840  0.00  0.00    +0.000 C 
ATOM     10  C   UNL     1      50.063   8.732  12.806  0.00  0.00    +0.000 C 
ATOM     11  C   UNL     1      49.684   8.353  11.379  0.00  0.00    +0.000 C 
ATOM     12  C   UNL     1      48.856   9.148  13.684  0.00  0.00    +0.000 C 
ATOM     13  C   UNL     1      49.394   8.228  14.810  0.00  0.00    +0.000 C 
ATOM     14  C   UNL     1      50.240   7.504  13.742  0.00  0.00    +0.000 C 
ENDBRANCH   8  13
ENDBRANCH   2   8
ENDBRANCH   1   6
BRANCH   1  15
ATOM     15  C   UNL     1      44.416   5.357  11.325  0.00  0.00    +0.000 C 
BRANCH  15  16
ATOM     16  N   UNL     1      44.044   5.118   9.937  0.00  0.00    +0.000 N 
ATOM     17  H   UNL     1      43.056   5.205   9.722  0.00  0.00    +0.000 HD
BRANCH  16  18
ATOM     18  C   UNL     1      44.683   4.083   9.242  0.00  0.00    +0.000 A 
ATOM     19  C   UNL     1      44.543   2.724   9.560  0.00  0.00    +0.000 A 
ATOM     20  C   UNL     1      45.289   1.738   8.906  0.00  0.00    +0.000 A 
ATOM     21  C   UNL     1      46.219   2.094   7.926  0.00  0.00    +0.000 A 
ATOM     22  C   UNL     1      46.391   3.442   7.614  0.00  0.00    +0.000 A 
ATOM     23  C   UNL     1      45.632   4.423   8.269  0.00  0.00    +0.000 A 
BRANCH  21  24
ATOM     24  C   UNL     1      47.024   1.014   7.296  0.00  0.00    +0.000 C 
ATOM     25  N   UNL     1      46.750  -0.271   7.666  0.00  0.00    +0.000 N 
ATOM     26  O   UNL     1      47.919   1.260   6.497  0.00  0.00    +0.000 OA
ATOM     27  H   UNL     1      46.204  -0.497   8.483  0.00  0.00    +0.000 HD
ATOM     28  H   UNL     1      47.373  -0.982   7.303  0.00  0.00    +0.000 HD
ENDBRANCH  21  24
ENDBRANCH  16  18
ENDBRANCH  15  16
ENDBRANCH   1  15
TORSDOF 7
ENDMDL
MODEL 6
REMARK VINA RESULT:    -6.442      3.191      4.174
REMARK INTER + INTRA:          -9.909
REMARK INTER:                  -9.474
REMARK INTRA:                  -0.436
REMARK UNBOUND:                -0.831
REMARK  Name = 
REMARK  9 active torsions:
REMARK  status: ('A' for Active; 'I' for Inactive)
REMARK    1  A    between atoms: C_1  and  C_2
REMARK    2  A    between atoms: C_2  and  C_3
REMARK    3  A    between atoms: C_5  and  O_6
REMARK    4  A    between atoms: O_6  and  C_7
REMARK    5  A    between atoms: C_11  and  C_12
REMARK    6  A    between atoms: C_12  and  C_13
REMARK    7  A    between atoms: C_13  and  N_14
REMARK    8  A    between atoms: N_14  and  C_15
REMARK    9  A    between atoms: C_18  and  C_19
REMARK                            x       y       z     vdW  Elec       q    Type
REMARK                         _______ _______ _______ _____ _____    ______ ____
ROOT
ATOM      1  C   UNL     1      45.836   6.214  10.726  0.00  0.00    +0.000 C 
ENDROOT
BRANCH   1   6
ATOM      2  C   UNL     1      48.169   7.822  13.327  0.00  0.00    +0.000 A 
ATOM      3  C   UNL     1      47.338   8.787  13.882  0.00  0.00    +0.000 A 
ATOM      4  C   UNL     1      46.014   8.892  13.450  0.00  0.00    +0.000 A 
ATOM      5  C   UNL     1      45.525   8.045  12.447  0.00  0.00    +0.000 A 
ATOM      6  C   UNL     1      46.360   7.091  11.853  0.00  0.00    +0.000 A 
ATOM      7  C   UNL     1      47.682   6.996  12.316  0.00  0.00    +0.000 A 
BRANCH   2   8
ATOM      8  O   UNL     1      49.457   7.743  13.801  0.00  0.00    +0.000 OA
BRANCH   8  13
ATOM      9  C   UNL     1      52.659  10.816  13.018  0.00  0.00    +0.000 C 
ATOM     10  C   UNL     1      52.258   9.698  13.981  0.00  0.00    +0.000 C 
ATOM     11  C   UNL     1      53.284   9.513  15.093  0.00  0.00    +0.000 C 
ATOM     12  C   UNL     1      51.865   8.381  13.267  0.00  0.00    +0.000 C 
ATOM     13  C   UNL     1      50.375   8.789  13.395  0.00  0.00    +0.000 C 
ATOM     14  C   UNL     1      50.796   9.778  14.502  0.00  0.00    +0.000 C 
ENDBRANCH   8  13
ENDBRANCH   2   8
ENDBRANCH   1   6
BRANCH   1  15
ATOM     15  C   UNL     1      44.422   5.664  10.970  0.00  0.00    +0.000 C 
BRANCH  15  16
ATOM     16  N   UNL     1      43.926   4.835   9.880  0.00  0.00    +0.000 N 
ATOM     17  H   UNL     1      43.020   4.403  10.029  0.00  0.00    +0.000 HD
BRANCH  16  18
ATOM     18  C   UNL     1      44.834   4.017   9.195  0.00  0.00    +0.000 A 
ATOM     19  C   UNL     1      45.626   4.454   8.123  0.00  0.00    +0.000 A 
ATOM     20  C   UNL     1      46.435   3.570   7.402  0.00  0.00    +0.000 A 
ATOM     21  C   UNL     1      46.452   2.211   7.724  0.00  0.00    +0.000 A 
ATOM     22  C   UNL     1      45.651   1.752   8.770  0.00  0.00    +0.000 A 
ATOM     23  C   UNL     1      44.851   2.648   9.493  0.00  0.00    +0.000 A 
BRANCH  21  24
ATOM     24  C   UNL     1      47.289   1.302   6.896  0.00  0.00    +0.000 C 
ATOM     25  N   UNL     1      48.431   1.820   6.354  0.00  0.00    +0.000 N 
ATOM     26  O   UNL     1      46.962   0.142   6.679  0.00  0.00    +0.000 OA
ATOM     27  H   UNL     1      48.607   2.811   6.303  0.00  0.00    +0.000 HD
ATOM     28  H   UNL     1      48.932   1.217   5.713  0.00  0.00    +0.000 HD
ENDBRANCH  21  24
ENDBRANCH  16  18
ENDBRANCH  15  16
ENDBRANCH   1  15
TORSDOF 7
ENDMDL
MODEL 7
REMARK VINA RESULT:    -6.399      2.203      2.959
REMARK INTER + INTRA:          -9.848
REMARK INTER:                  -9.196
REMARK INTRA:                  -0.653
REMARK UNBOUND:                -0.831
REMARK  Name = 
REMARK  9 active torsions:
REMARK  status: ('A' for Active; 'I' for Inactive)
REMARK    1  A    between atoms: C_1  and  C_2
REMARK    2  A    between atoms: C_2  and  C_3
REMARK    3  A    between atoms: C_5  and  O_6
REMARK    4  A    between atoms: O_6  and  C_7
REMARK    5  A    between atoms: C_11  and  C_12
REMARK    6  A    between atoms: C_12  and  C_13
REMARK    7  A    between atoms: C_13  and  N_14
REMARK    8  A    between atoms: N_14  and  C_15
REMARK    9  A    between atoms: C_18  and  C_19
REMARK                            x       y       z     vdW  Elec       q    Type
REMARK                         _______ _______ _______ _____ _____    ______ ____
ROOT
ATOM      1  C   UNL     1      46.290   5.403  12.267  0.00  0.00    +0.000 C 
ENDROOT
BRANCH   1   6
ATOM      2  C   UNL     1      48.463   6.344  15.298  0.00  0.00    +0.000 A 
ATOM      3  C   UNL     1      48.135   5.335  16.195  0.00  0.00    +0.000 A 
ATOM      4  C   UNL     1      47.249   4.327  15.809  0.00  0.00    +0.000 A 
ATOM      5  C   UNL     1      46.672   4.338  14.533  0.00  0.00    +0.000 A 
ATOM      6  C   UNL     1      46.964   5.368  13.630  0.00  0.00    +0.000 A 
ATOM      7  C   UNL     1      47.869   6.361  14.037  0.00  0.00    +0.000 A 
BRANCH   2   8
ATOM      8  O   UNL     1      49.357   7.301  15.716  0.00  0.00    +0.000 OA
BRANCH   8  13
ATOM      9  C   UNL     1      52.342   6.574  19.013  0.00  0.00    +0.000 C 
ATOM     10  C   UNL     1      52.212   7.123  17.592  0.00  0.00    +0.000 C 
ATOM     11  C   UNL     1      53.547   7.623  17.053  0.00  0.00    +0.000 C 
ATOM     12  C   UNL     1      51.051   8.135  17.426  0.00  0.00    +0.000 C 
ATOM     13  C   UNL     1      50.165   6.987  16.877  0.00  0.00    +0.000 C 
ATOM     14  C   UNL     1      51.459   6.194  16.600  0.00  0.00    +0.000 C 
ENDBRANCH   8  13
ENDBRANCH   2   8
ENDBRANCH   1   6
BRANCH   1  15
ATOM     15  C   UNL     1      45.157   4.377  12.106  0.00  0.00    +0.000 C 
BRANCH  15  16
ATOM     16  N   UNL     1      44.469   4.468  10.826  0.00  0.00    +0.000 N 
ATOM     17  H   UNL     1      43.461   4.357  10.855  0.00  0.00    +0.000 HD
BRANCH  16  18
ATOM     18  C   UNL     1      45.068   3.884   9.703  0.00  0.00    +0.000 A 
ATOM     19  C   UNL     1      45.165   2.499   9.500  0.00  0.00    +0.000 A 
ATOM     20  C   UNL     1      45.871   1.966   8.416  0.00  0.00    +0.000 A 
ATOM     21  C   UNL     1      46.522   2.812   7.516  0.00  0.00    +0.000 A 
ATOM     22  C   UNL     1      46.459   4.191   7.715  0.00  0.00    +0.000 A 
ATOM     23  C   UNL     1      45.741   4.716   8.799  0.00  0.00    +0.000 A 
BRANCH  21  24
ATOM     24  C   UNL     1      47.302   2.195   6.409  0.00  0.00    +0.000 C 
ATOM     25  N   UNL     1      47.332   2.859   5.216  0.00  0.00    +0.000 N 
ATOM     26  O   UNL     1      47.874   1.121   6.544  0.00  0.00    +0.000 OA
ATOM     27  H   UNL     1      46.688   3.602   4.991  0.00  0.00    +0.000 HD
ATOM     28  H   UNL     1      47.782   2.375   4.449  0.00  0.00    +0.000 HD
ENDBRANCH  21  24
ENDBRANCH  16  18
ENDBRANCH  15  16
ENDBRANCH   1  15
TORSDOF 7
ENDMDL
MODEL 8
REMARK VINA RESULT:    -6.372      4.123      7.869
REMARK INTER + INTRA:          -9.811
REMARK INTER:                  -8.283
REMARK INTRA:                  -1.528
REMARK UNBOUND:                -0.831
REMARK  Name = 
REMARK  9 active torsions:
REMARK  status: ('A' for Active; 'I' for Inactive)
REMARK    1  A    between atoms: C_1  and  C_2
REMARK    2  A    between atoms: C_2  and  C_3
REMARK    3  A    between atoms: C_5  and  O_6
REMARK    4  A    between atoms: O_6  and  C_7
REMARK    5  A    between atoms: C_11  and  C_12
REMARK    6  A    between atoms: C_12  and  C_13
REMARK    7  A    between atoms: C_13  and  N_14
REMARK    8  A    between atoms: N_14  and  C_15
REMARK    9  A    between atoms: C_18  and  C_19
REMARK                            x       y       z     vdW  Elec       q    Type
REMARK                         _______ _______ _______ _____ _____    ______ ____
ROOT
ATOM      1  C   UNL     1      48.011   9.289  16.588  0.00  0.00    +0.000 C 
ENDROOT
BRANCH   1   6
ATOM      2  C   UNL     1      48.555   7.141  13.444  0.00  0.00    +0.000 A 
ATOM      3  C   UNL     1      49.749   7.660  12.959  0.00  0.00    +0.000 A 
ATOM      4  C   UNL     1      50.402   8.671  13.668  0.00  0.00    +0.000 A 
ATOM      5  C   UNL     1      49.851   9.180  14.851  0.00  0.00    +0.000 A 
ATOM      6  C   UNL     1      48.630   8.693  15.333  0.00  0.00    +0.000 A 
ATOM      7  C   UNL     1      48.002   7.666  14.610  0.00  0.00    +0.000 A 
BRANCH   2   8
ATOM      8  O   UNL     1      47.961   6.132  12.723  0.00  0.00    +0.000 OA
BRANCH   8  13
ATOM      9  C   UNL     1      43.584   5.077  12.906  0.00  0.00    +0.000 C 
ATOM     10  C   UNL     1      44.935   4.569  12.404  0.00  0.00    +0.000 C 
ATOM     11  C   UNL     1      44.811   3.216  11.712  0.00  0.00    +0.000 C 
ATOM     12  C   UNL     1      46.052   4.623  13.476  0.00  0.00    +0.000 C 
ATOM     13  C   UNL     1      46.529   5.969  12.871  0.00  0.00    +0.000 C 
ATOM     14  C   UNL     1      45.758   5.603  11.586  0.00  0.00    +0.000 C 
ENDBRANCH   8  13
ENDBRANCH   2   8
ENDBRANCH   1   6
BRANCH   1  15
ATOM     15  C   UNL     1      48.531   8.669  17.894  0.00  0.00    +0.000 C 
BRANCH  15  16
ATOM     16  N   UNL     1      47.784   7.492  18.315  0.00  0.00    +0.000 N 
ATOM     17  H   UNL     1      47.296   7.570  19.202  0.00  0.00    +0.000 HD
BRANCH  16  18
ATOM     18  C   UNL     1      48.346   6.229  18.091  0.00  0.00    +0.000 A 
ATOM     19  C   UNL     1      49.689   6.020  17.743  0.00  0.00    +0.000 A 
ATOM     20  C   UNL     1      50.173   4.748  17.422  0.00  0.00    +0.000 A 
ATOM     21  C   UNL     1      49.312   3.648  17.416  0.00  0.00    +0.000 A 
ATOM     22  C   UNL     1      47.967   3.839  17.733  0.00  0.00    +0.000 A 
ATOM     23  C   UNL     1      47.493   5.117  18.064  0.00  0.00    +0.000 A 
BRANCH  21  24
ATOM     24  C   UNL     1      49.863   2.325  17.018  0.00  0.00    +0.000 C 
ATOM     25  N   UNL     1      50.837   1.787  17.808  0.00  0.00    +0.000 N 
ATOM     26  O   UNL     1      49.484   1.747  16.007  0.00  0.00    +0.000 OA
ATOM     27  H   UNL     1      51.341   2.328  18.494  0.00  0.00    +0.000 HD
ATOM     28  H   UNL     1      51.269   0.937  17.467  0.00  0.00    +0.000 HD
ENDBRANCH  21  24
ENDBRANCH  16  18
ENDBRANCH  15  16
ENDBRANCH   1  15
TORSDOF 7
ENDMDL
MODEL 9
REMARK VINA RESULT:    -6.269      2.816      8.234
REMARK INTER + INTRA:          -9.665
REMARK INTER:                  -8.712
REMARK INTRA:                  -0.953
REMARK UNBOUND:                -0.831
REMARK  Name = 
REMARK  9 active torsions:
REMARK  status: ('A' for Active; 'I' for Inactive)
REMARK    1  A    between atoms: C_1  and  C_2
REMARK    2  A    between atoms: C_2  and  C_3
REMARK    3  A    between atoms: C_5  and  O_6
REMARK    4  A    between atoms: O_6  and  C_7
REMARK    5  A    between atoms: C_11  and  C_12
REMARK    6  A    between atoms: C_12  and  C_13
REMARK    7  A    between atoms: C_13  and  N_14
REMARK    8  A    between atoms: N_14  and  C_15
REMARK    9  A    between atoms: C_18  and  C_19
REMARK                            x       y       z     vdW  Elec       q    Type
REMARK                         _______ _______ _______ _____ _____    ______ ____
ROOT
ATOM      1  C   UNL     1      45.375   7.223  11.807  0.00  0.00    +0.000 C 
ENDROOT
BRANCH   1   6
ATOM      2  C   UNL     1      44.369   3.950  10.055  0.00  0.00    +0.000 A 
ATOM      3  C   UNL     1      43.755   3.260  11.094  0.00  0.00    +0.000 A 
ATOM      4  C   UNL     1      43.626   3.866  12.346  0.00  0.00    +0.000 A 
ATOM      5  C   UNL     1      44.130   5.153  12.568  0.00  0.00    +0.000 A 
ATOM      6  C   UNL     1      44.782   5.848  11.542  0.00  0.00    +0.000 A 
ATOM      7  C   UNL     1      44.886   5.223  10.289  0.00  0.00    +0.000 A 
BRANCH   2   8
ATOM      8  O   UNL     1      44.453   3.321   8.836  0.00  0.00    +0.000 OA
BRANCH   8  13
ATOM      9  C   UNL     1      48.349   2.162   6.891  0.00  0.00    +0.000 C 
ATOM     10  C   UNL     1      46.931   2.643   6.578  0.00  0.00    +0.000 C 
ATOM     11  C   UNL     1      46.708   2.814   5.080  0.00  0.00    +0.000 C 
ATOM     12  C   UNL     1      46.498   3.870   7.419  0.00  0.00    +0.000 C 
ATOM     13  C   UNL     1      45.769   2.909   8.394  0.00  0.00    +0.000 C 
ATOM     14  C   UNL     1      45.801   1.841   7.280  0.00  0.00    +0.000 C 
ENDBRANCH   8  13
ENDBRANCH   2   8
ENDBRANCH   1   6
BRANCH   1  15
ATOM     15  C   UNL     1      45.950   7.391  13.223  0.00  0.00    +0.000 C 
BRANCH  15  16
ATOM     16  N   UNL     1      47.343   6.982  13.336  0.00  0.00    +0.000 N 
ATOM     17  H   UNL     1      47.806   6.738  12.466  0.00  0.00    +0.000 HD
BRANCH  16  18
ATOM     18  C   UNL     1      47.716   6.174  14.418  0.00  0.00    +0.000 A 
ATOM     19  C   UNL     1      47.092   4.959  14.740  0.00  0.00    +0.000 A 
ATOM     20  C   UNL     1      47.429   4.246  15.894  0.00  0.00    +0.000 A 
ATOM     21  C   UNL     1      48.390   4.747  16.775  0.00  0.00    +0.000 A 
ATOM     22  C   UNL     1      49.003   5.966  16.487  0.00  0.00    +0.000 A 
ATOM     23  C   UNL     1      48.665   6.669  15.322  0.00  0.00    +0.000 A 
BRANCH  21  24
ATOM     24  C   UNL     1      48.677   3.978  18.015  0.00  0.00    +0.000 C 
ATOM     25  N   UNL     1      49.413   2.834  17.889  0.00  0.00    +0.000 N 
ATOM     26  O   UNL     1      48.250   4.331  19.108  0.00  0.00    +0.000 OA
ATOM     27  H   UNL     1      49.570   2.385  17.000  0.00  0.00    +0.000 HD
ATOM     28  H   UNL     1      49.511   2.273  18.726  0.00  0.00    +0.000 HD
ENDBRANCH  21  24
ENDBRANCH  16  18
ENDBRANCH  15  16
ENDBRANCH   1  15
TORSDOF 7
ENDMDL
