MODEL 1
REMARK VINA RESULT:    -8.187      0.000      0.000
REMARK INTER + INTRA:         -12.634
REMARK INTER:                 -11.537
REMARK INTRA:                  -1.097
REMARK UNBOUND:                -1.097
REMARK  Name = 
REMARK  9 active torsions:
REMARK  status: ('A' for Active; 'I' for Inactive)
REMARK    1  A    between atoms: C_1  and  C_2
REMARK    2  A    between atoms: C_6  and  C_7
REMARK    3  A    between atoms: C_7  and  C_8
REMARK    4  A    between atoms: C_7  and  N_9
REMARK    5  A    between atoms: N_9  and  C_10
REMARK    6  A    between atoms: C_10  and  C_11
REMARK    7  A    between atoms: C_14  and  C_15
REMARK    8  A    between atoms: C_15  and  N_16
REMARK    9  A    between atoms: C_17  and  C_19
REMARK                            x       y       z     vdW  Elec       q    Type
REMARK                         _______ _______ _______ _____ _____    ______ ____
ROOT
ATOM      1  C   UNL     1      46.283   4.841  13.020  0.00  0.00    +0.000 A 
ATOM      2  C   UNL     1      46.763   6.100  12.659  0.00  0.00    +0.000 A 
ATOM      3  C   UNL     1      47.631   6.779  13.509  0.00  0.00    +0.000 A 
ATOM      4  C   UNL     1      48.010   6.175  14.707  0.00  0.00    +0.000 A 
ATOM      5  N   UNL     1      47.533   4.965  15.094  0.00  0.00    +0.000 NA
ATOM      6  C   UNL     1      46.688   4.331  14.248  0.00  0.00    +0.000 A 
ENDROOT
BRANCH   1   7
ATOM      7  C   UNL     1      45.379   4.056  12.111  0.00  0.00    +0.000 C 
BRANCH   7   8
ATOM      8  N   UNL     1      45.122   4.715  10.820  0.00  0.00    +0.000 NA
ATOM      9  H   UNL     1      44.444   5.460  11.005  0.00  0.00    +0.000 HD
BRANCH   8  10
ATOM     10  C   UNL     1      44.464   3.824   9.835  0.00  0.00    +0.000 C 
ATOM     11  C   UNL     1      43.889   2.617  10.581  0.00  0.00    +0.000 C 
BRANCH  10  17
ATOM     12  C   UNL     1      46.753   0.069   7.707  0.00  0.00    +0.000 C 
ATOM     13  C   UNL     1      46.502   1.546   7.726  0.00  0.00    +0.000 A 
ATOM     14  C   UNL     1      47.167   2.401   6.857  0.00  0.00    +0.000 A 
ATOM     15  C   UNL     1      46.927   3.771   6.947  0.00  0.00    +0.000 A 
ATOM     16  C   UNL     1      46.042   4.248   7.904  0.00  0.00    +0.000 A 
ATOM     17  C   UNL     1      45.412   3.336   8.744  0.00  0.00    +0.000 A 
ATOM     18  N   UNL     1      45.624   1.992   8.654  0.00  0.00    +0.000 NA
ENDBRANCH  10  17
ENDBRANCH   8  10
ENDBRANCH   7   8
ENDBRANCH   1   7
BRANCH   4  19
ATOM     19  C   UNL     1      48.947   6.892  15.651  0.00  0.00    +0.000 C 
BRANCH  19  20
ATOM     20  N   UNL     1      49.954   5.994  16.166  0.00  0.00    +0.000 N 
ATOM     21  C   UNL     1      50.270   5.943  17.497  0.00  0.00    +0.000 C 
ATOM     22  O   UNL     1      49.670   6.611  18.337  0.00  0.00    +0.000 OA
ATOM     23  H   UNL     1      50.598   5.618  15.477  0.00  0.00    +0.000 HD
BRANCH  21  24
ATOM     24  C   UNL     1      51.314   4.989  17.889  0.00  0.00    +0.000 A 
ATOM     25  C   UNL     1      52.476   5.452  18.492  0.00  0.00    +0.000 A 
ATOM     26  S   UNL     1      53.564   4.213  18.925  0.00  0.00    +0.000 S 
ATOM     27  C   UNL     1      52.543   3.016  18.277  0.00  0.00    +0.000 A 
ATOM     28  N   UNL     1      52.904   1.704  18.299  0.00  0.00    +0.000 NA
ATOM     29  C   UNL     1      52.049   0.909  17.746  0.00  0.00    +0.000 A 
ATOM     30  N   UNL     1      50.867   1.306  17.180  0.00  0.00    +0.000 N 
ATOM     31  C   UNL     1      50.448   2.615  17.161  0.00  0.00    +0.000 A 
ATOM     32  O   UNL     1      49.364   2.931  16.684  0.00  0.00    +0.000 OA
ATOM     33  C   UNL     1      51.380   3.553  17.757  0.00  0.00    +0.000 A 
ATOM     34  H   UNL     1      50.236   0.631  16.768  0.00  0.00    +0.000 HD
ENDBRANCH  21  24
ENDBRANCH  19  20
ENDBRANCH   4  19
TORSDOF 7
ENDMDL
MODEL 2
REMARK VINA RESULT:    -7.934      2.463      2.714
REMARK INTER + INTRA:         -12.277
REMARK INTER:                 -11.275
REMARK INTRA:                  -1.003
REMARK UNBOUND:                -1.097
REMARK  Name = 
REMARK  9 active torsions:
REMARK  status: ('A' for Active; 'I' for Inactive)
REMARK    1  A    between atoms: C_1  and  C_2
REMARK    2  A    between atoms: C_6  and  C_7
REMARK    3  A    between atoms: C_7  and  C_8
REMARK    4  A    between atoms: C_7  and  N_9
REMARK    5  A    between atoms: N_9  and  C_10
REMARK    6  A    between atoms: C_10  and  C_11
REMARK    7  A    between atoms: C_14  and  C_15
REMARK    8  A    between atoms: C_15  and  N_16
REMARK    9  A    between atoms: C_17  and  C_19
REMARK                            x       y       z     vdW  Elec       q    Type
REMARK                         _______ _______ _______ _____ _____    ______ ____
ROOT
ATOM      1  C   UNL     1      44.923   6.358  11.685  0.00  0.00    +0.000 A 
ATOM      2  C   UNL     1      44.739   7.735  11.817  0.00  0.00    +0.000 A 
ATOM      3  C   UNL     1      45.662   8.491  12.532  0.00  0.00    +0.000 A 
ATOM      4  C   UNL     1      46.763   7.850  13.099  0.00  0.00    +0.000 A 
ATOM      5  N   UNL     1      46.948   6.509  13.012  0.00  0.00    +0.000 NA
ATOM      6  C   UNL     1      46.031   5.800  12.312  0.00  0.00    +0.000 A 
ENDROOT
BRANCH   1   7
ATOM      7  C   UNL     1      43.973   5.513  10.884  0.00  0.00    +0.000 C 
BRANCH   7   8
ATOM      8  N   UNL     1      44.515   5.084   9.585  0.00  0.00    +0.000 NA
ATOM      9  H   UNL     1      43.937   5.532   8.867  0.00  0.00    +0.000 HD
BRANCH   8  10
ATOM     10  C   UNL     1      44.372   3.627   9.348  0.00  0.00    +0.000 C 
ATOM     11  C   UNL     1      44.449   2.908  10.697  0.00  0.00    +0.000 C 
BRANCH  10  17
ATOM     12  C   UNL     1      46.779  -0.284   7.682  0.00  0.00    +0.000 C 
ATOM     13  C   UNL     1      46.588   1.202   7.620  0.00  0.00    +0.000 A 
ATOM     14  C   UNL     1      47.402   1.999   6.826  0.00  0.00    +0.000 A 
ATOM     15  C   UNL     1      47.208   3.379   6.839  0.00  0.00    +0.000 A 
ATOM     16  C   UNL     1      46.220   3.923   7.646  0.00  0.00    +0.000 A 
ATOM     17  C   UNL     1      45.442   3.066   8.417  0.00  0.00    +0.000 A 
ATOM     18  N   UNL     1      45.609   1.713   8.401  0.00  0.00    +0.000 NA
ENDBRANCH  10  17
ENDBRANCH   8  10
ENDBRANCH   7   8
ENDBRANCH   1   7
BRANCH   4  19
ATOM     19  C   UNL     1      47.777   8.646  13.887  0.00  0.00    +0.000 C 
BRANCH  19  20
ATOM     20  N   UNL     1      48.026   8.041  15.176  0.00  0.00    +0.000 N 
ATOM     21  C   UNL     1      49.148   7.300  15.425  0.00  0.00    +0.000 C 
ATOM     22  O   UNL     1      50.038   7.160  14.589  0.00  0.00    +0.000 OA
ATOM     23  H   UNL     1      47.215   7.956  15.783  0.00  0.00    +0.000 HD
BRANCH  21  24
ATOM     24  C   UNL     1      49.279   6.738  16.775  0.00  0.00    +0.000 A 
ATOM     25  C   UNL     1      49.932   7.466  17.761  0.00  0.00    +0.000 A 
ATOM     26  S   UNL     1      49.958   6.692  19.280  0.00  0.00    +0.000 S 
ATOM     27  C   UNL     1      49.140   5.334  18.663  0.00  0.00    +0.000 A 
ATOM     28  N   UNL     1      48.862   4.265  19.457  0.00  0.00    +0.000 NA
ATOM     29  C   UNL     1      48.267   3.293  18.851  0.00  0.00    +0.000 A 
ATOM     30  N   UNL     1      47.918   3.295  17.526  0.00  0.00    +0.000 N 
ATOM     31  C   UNL     1      48.152   4.363  16.693  0.00  0.00    +0.000 A 
ATOM     32  O   UNL     1      47.789   4.350  15.522  0.00  0.00    +0.000 OA
ATOM     33  C   UNL     1      48.834   5.478  17.322  0.00  0.00    +0.000 A 
ATOM     34  H   UNL     1      47.445   2.504  17.112  0.00  0.00    +0.000 HD
ENDBRANCH  21  24
ENDBRANCH  19  20
ENDBRANCH   4  19
TORSDOF 7
ENDMDL
MODEL 3
REMARK VINA RESULT:    -7.701      3.632      8.987
REMARK INTER + INTRA:         -11.949
REMARK INTER:                 -10.370
REMARK INTRA:                  -1.579
REMARK UNBOUND:                -1.097
REMARK  Name = 
REMARK  9 active torsions:
REMARK  status: ('A' for Active; 'I' for Inactive)
REMARK    1  A    between atoms: C_1  and  C_2
REMARK    2  A    between atoms: C_6  and  C_7
REMARK    3  A    between atoms: C_7  and  C_8
REMARK    4  A    between atoms: C_7  and  N_9
REMARK    5  A    between atoms: N_9  and  C_10
REMARK    6  A    between atoms: C_10  and  C_11
REMARK    7  A    between atoms: C_14  and  C_15
REMARK    8  A    between atoms: C_15  and  N_16
REMARK    9  A    between atoms: C_17  and  C_19
REMARK                            x       y       z     vdW  Elec       q    Type
REMARK                         _______ _______ _______ _____ _____    ______ ____
ROOT
ATOM      1  C   UNL     1      49.060   7.853  16.121  0.00  0.00    +0.000 A 
ATOM      2  C   UNL     1      48.337   8.937  15.622  0.00  0.00    +0.000 A 
ATOM      3  C   UNL     1      47.856   8.906  14.317  0.00  0.00    +0.000 A 
ATOM      4  C   UNL     1      48.103   7.778  13.535  0.00  0.00    +0.000 A 
ATOM      5  N   UNL     1      48.829   6.725  13.987  0.00  0.00    +0.000 NA
ATOM      6  C   UNL     1      49.286   6.786  15.259  0.00  0.00    +0.000 A 
ENDROOT
BRANCH   1   7
ATOM      7  C   UNL     1      49.559   7.829  17.538  0.00  0.00    +0.000 C 
BRANCH   7   8
ATOM      8  N   UNL     1      48.528   7.466  18.522  0.00  0.00    +0.000 NA
ATOM      9  H   UNL     1      48.540   8.197  19.240  0.00  0.00    +0.000 HD
BRANCH   8  10
ATOM     10  C   UNL     1      48.833   6.206  19.244  0.00  0.00    +0.000 C 
ATOM     11  C   UNL     1      50.299   6.243  19.684  0.00  0.00    +0.000 C 
BRANCH  10  17
ATOM     12  C   UNL     1      50.653   2.135  17.250  0.00  0.00    +0.000 C 
ATOM     13  C   UNL     1      49.458   3.017  17.450  0.00  0.00    +0.000 A 
ATOM     14  C   UNL     1      48.249   2.743  16.825  0.00  0.00    +0.000 A 
ATOM     15  C   UNL     1      47.182   3.619  17.012  0.00  0.00    +0.000 A 
ATOM     16  C   UNL     1      47.353   4.746  17.804  0.00  0.00    +0.000 A 
ATOM     17  C   UNL     1      48.592   4.960  18.399  0.00  0.00    +0.000 A 
ATOM     18  N   UNL     1      49.639   4.101  18.239  0.00  0.00    +0.000 NA
ENDBRANCH  10  17
ENDBRANCH   8  10
ENDBRANCH   7   8
ENDBRANCH   1   7
BRANCH   4  19
ATOM     19  C   UNL     1      47.597   7.720  12.112  0.00  0.00    +0.000 C 
BRANCH  19  20
ATOM     20  N   UNL     1      46.887   6.487  11.862  0.00  0.00    +0.000 N 
ATOM     21  C   UNL     1      45.521   6.422  11.864  0.00  0.00    +0.000 C 
ATOM     22  O   UNL     1      44.820   7.421  12.014  0.00  0.00    +0.000 OA
ATOM     23  H   UNL     1      47.436   5.638  11.964  0.00  0.00    +0.000 HD
BRANCH  21  24
ATOM     24  C   UNL     1      44.923   5.108  11.599  0.00  0.00    +0.000 A 
ATOM     25  C   UNL     1      44.229   4.453  12.607  0.00  0.00    +0.000 A 
ATOM     26  S   UNL     1      43.562   2.961  12.123  0.00  0.00    +0.000 S 
ATOM     27  C   UNL     1      44.219   3.113  10.560  0.00  0.00    +0.000 A 
ATOM     28  N   UNL     1      44.038   2.138   9.629  0.00  0.00    +0.000 NA
ATOM     29  C   UNL     1      44.618   2.369   8.498  0.00  0.00    +0.000 A 
ATOM     30  N   UNL     1      45.354   3.489   8.213  0.00  0.00    +0.000 N 
ATOM     31  C   UNL     1      45.538   4.512   9.112  0.00  0.00    +0.000 A 
ATOM     32  O   UNL     1      46.168   5.520   8.810  0.00  0.00    +0.000 OA
ATOM     33  C   UNL     1      44.920   4.295  10.406  0.00  0.00    +0.000 A 
ATOM     34  H   UNL     1      45.777   3.614   7.304  0.00  0.00    +0.000 HD
ENDBRANCH  21  24
ENDBRANCH  19  20
ENDBRANCH   4  19
TORSDOF 7
ENDMDL
MODEL 4
REMARK VINA RESULT:    -7.700      2.787      3.746
REMARK INTER + INTRA:         -11.948
REMARK INTER:                 -10.928
REMARK INTRA:                  -1.020
REMARK UNBOUND:                -1.097
REMARK  Name = 
REMARK  9 active torsions:
REMARK  status: ('A' for Active; 'I' for Inactive)
REMARK    1  A    between atoms: C_1  and  C_2
REMARK    2  A    between atoms: C_6  and  C_7
REMARK    3  A    between atoms: C_7  and  C_8
REMARK    4  A    between atoms: C_7  and  N_9
REMARK    5  A    between atoms: N_9  and  C_10
REMARK    6  A    between atoms: C_10  and  C_11
REMARK    7  A    between atoms: C_14  and  C_15
REMARK    8  A    between atoms: C_15  and  N_16
REMARK    9  A    between atoms: C_17  and  C_19
REMARK                            x       y       z     vdW  Elec       q    Type
REMARK                         _______ _______ _______ _____ _____    ______ ____
ROOT
ATOM      1  C   UNL     1      45.032   6.097  11.798  0.00  0.00    +0.000 A 
ATOM      2  C   UNL     1      45.339   7.452  11.670  0.00  0.00    +0.000 A 
ATOM      3  C   UNL     1      46.361   8.005  12.437  0.00  0.00    +0.000 A 
ATOM      4  C   UNL     1      47.064   7.182  13.315  0.00  0.00    +0.000 A 
ATOM      5  N   UNL     1      46.764   5.869  13.480  0.00  0.00    +0.000 NA
ATOM      6  C   UNL     1      45.763   5.361  12.723  0.00  0.00    +0.000 A 
ENDROOT
BRANCH   1   7
ATOM      7  C   UNL     1      43.966   5.452  10.958  0.00  0.00    +0.000 C 
BRANCH   7   8
ATOM      8  N   UNL     1      44.422   5.075   9.611  0.00  0.00    +0.000 NA
ATOM      9  H   UNL     1      43.797   5.546   8.949  0.00  0.00    +0.000 HD
BRANCH   8  10
ATOM     10  C   UNL     1      44.267   3.627   9.330  0.00  0.00    +0.000 C 
ATOM     11  C   UNL     1      44.257   2.873  10.662  0.00  0.00    +0.000 C 
BRANCH  10  17
ATOM     12  C   UNL     1      46.714  -0.284   7.722  0.00  0.00    +0.000 C 
ATOM     13  C   UNL     1      46.541   1.204   7.674  0.00  0.00    +0.000 A 
ATOM     14  C   UNL     1      47.402   2.005   6.934  0.00  0.00    +0.000 A 
ATOM     15  C   UNL     1      47.221   3.386   6.960  0.00  0.00    +0.000 A 
ATOM     16  C   UNL     1      46.199   3.929   7.726  0.00  0.00    +0.000 A 
ATOM     17  C   UNL     1      45.376   3.068   8.444  0.00  0.00    +0.000 A 
ATOM     18  N   UNL     1      45.530   1.714   8.414  0.00  0.00    +0.000 NA
ENDBRANCH  10  17
ENDBRANCH   8  10
ENDBRANCH   7   8
ENDBRANCH   1   7
BRANCH   4  19
ATOM     19  C   UNL     1      48.174   7.758  14.164  0.00  0.00    +0.000 C 
BRANCH  19  20
ATOM     20  N   UNL     1      48.095   7.272  15.523  0.00  0.00    +0.000 N 
ATOM     21  C   UNL     1      49.167   6.701  16.153  0.00  0.00    +0.000 C 
ATOM     22  O   UNL     1      50.273   6.628  15.623  0.00  0.00    +0.000 OA
ATOM     23  H   UNL     1      47.155   7.119  15.878  0.00  0.00    +0.000 HD
BRANCH  21  24
ATOM     24  C   UNL     1      48.953   6.246  17.533  0.00  0.00    +0.000 A 
ATOM     25  C   UNL     1      49.264   4.939  17.880  0.00  0.00    +0.000 A 
ATOM     26  S   UNL     1      49.000   4.585  19.527  0.00  0.00    +0.000 S 
ATOM     27  C   UNL     1      48.413   6.154  19.824  0.00  0.00    +0.000 A 
ATOM     28  N   UNL     1      47.979   6.514  21.063  0.00  0.00    +0.000 NA
ATOM     29  C   UNL     1      47.532   7.724  21.138  0.00  0.00    +0.000 A 
ATOM     30  N   UNL     1      47.485   8.605  20.091  0.00  0.00    +0.000 N 
ATOM     31  C   UNL     1      47.938   8.295  18.831  0.00  0.00    +0.000 A 
ATOM     32  O   UNL     1      47.920   9.122  17.926  0.00  0.00    +0.000 OA
ATOM     33  C   UNL     1      48.438   6.942  18.688  0.00  0.00    +0.000 A 
ATOM     34  H   UNL     1      47.128   9.543  20.217  0.00  0.00    +0.000 HD
ENDBRANCH  21  24
ENDBRANCH  19  20
ENDBRANCH   4  19
TORSDOF 7
ENDMDL
MODEL 5
REMARK VINA RESULT:    -7.554      3.765      8.710
REMARK INTER + INTRA:         -11.743
REMARK INTER:                 -10.312
REMARK INTRA:                  -1.430
REMARK UNBOUND:                -1.097
REMARK  Name = 
REMARK  9 active torsions:
REMARK  status: ('A' for Active; 'I' for Inactive)
REMARK    1  A    between atoms: C_1  and  C_2
REMARK    2  A    between atoms: C_6  and  C_7
REMARK    3  A    between atoms: C_7  and  C_8
REMARK    4  A    between atoms: C_7  and  N_9
REMARK    5  A    between atoms: N_9  and  C_10
REMARK    6  A    between atoms: C_10  and  C_11
REMARK    7  A    between atoms: C_14  and  C_15
REMARK    8  A    between atoms: C_15  and  N_16
REMARK    9  A    between atoms: C_17  and  C_19
REMARK                            x       y       z     vdW  Elec       q    Type
REMARK                         _______ _______ _______ _____ _____    ______ ____
ROOT
ATOM      1  C   UNL     1      48.714   7.668  16.214  0.00  0.00    +0.000 A 
ATOM      2  C   UNL     1      48.362   8.897  15.654  0.00  0.00    +0.000 A 
ATOM      3  C   UNL     1      48.256   9.023  14.273  0.00  0.00    +0.000 A 
ATOM      4  C   UNL     1      48.497   7.906  13.474  0.00  0.00    +0.000 A 
ATOM      5  N   UNL     1      48.871   6.709  13.992  0.00  0.00    +0.000 NA
ATOM      6  C   UNL     1      48.968   6.618  15.339  0.00  0.00    +0.000 A 
ENDROOT
BRANCH   1   7
ATOM      7  C   UNL     1      48.797   7.478  17.702  0.00  0.00    +0.000 C 
BRANCH   7   8
ATOM      8  N   UNL     1      47.538   7.019  18.311  0.00  0.00    +0.000 NA
ATOM      9  H   UNL     1      47.255   7.746  18.975  0.00  0.00    +0.000 HD
BRANCH   8  10
ATOM     10  C   UNL     1      47.701   5.789  19.123  0.00  0.00    +0.000 C 
ATOM     11  C   UNL     1      48.717   6.073  20.233  0.00  0.00    +0.000 C 
BRANCH  10  17
ATOM     12  C   UNL     1      51.391   2.894  17.757  0.00  0.00    +0.000 C 
ATOM     13  C   UNL     1      49.929   3.207  17.656  0.00  0.00    +0.000 A 
ATOM     14  C   UNL     1      49.098   2.496  16.801  0.00  0.00    +0.000 A 
ATOM     15  C   UNL     1      47.755   2.857  16.714  0.00  0.00    +0.000 A 
ATOM     16  C   UNL     1      47.283   3.921  17.471  0.00  0.00    +0.000 A 
ATOM     17  C   UNL     1      48.172   4.591  18.306  0.00  0.00    +0.000 A 
ATOM     18  N   UNL     1      49.483   4.236  18.414  0.00  0.00    +0.000 NA
ENDBRANCH  10  17
ENDBRANCH   8  10
ENDBRANCH   7   8
ENDBRANCH   1   7
BRANCH   4  19
ATOM     19  C   UNL     1      48.395   8.016  11.970  0.00  0.00    +0.000 C 
BRANCH  19  20
ATOM     20  N   UNL     1      47.649   6.910  11.417  0.00  0.00    +0.000 N 
ATOM     21  C   UNL     1      46.281   6.895  11.398  0.00  0.00    +0.000 C 
ATOM     22  O   UNL     1      45.611   7.847  11.790  0.00  0.00    +0.000 OA
ATOM     23  H   UNL     1      48.168   6.044  11.305  0.00  0.00    +0.000 HD
BRANCH  21  24
ATOM     24  C   UNL     1      45.644   5.710  10.809  0.00  0.00    +0.000 A 
ATOM     25  C   UNL     1      45.771   5.467   9.448  0.00  0.00    +0.000 A 
ATOM     26  S   UNL     1      45.012   4.030   8.934  0.00  0.00    +0.000 S 
ATOM     27  C   UNL     1      44.444   3.704  10.505  0.00  0.00    +0.000 A 
ATOM     28  N   UNL     1      43.682   2.607  10.759  0.00  0.00    +0.000 NA
ATOM     29  C   UNL     1      43.295   2.501  11.986  0.00  0.00    +0.000 A 
ATOM     30  N   UNL     1      43.606   3.388  12.982  0.00  0.00    +0.000 N 
ATOM     31  C   UNL     1      44.396   4.494  12.779  0.00  0.00    +0.000 A 
ATOM     32  O   UNL     1      44.690   5.246  13.702  0.00  0.00    +0.000 OA
ATOM     33  C   UNL     1      44.846   4.669  11.411  0.00  0.00    +0.000 A 
ATOM     34  H   UNL     1      43.277   3.245  13.927  0.00  0.00    +0.000 HD
ENDBRANCH  21  24
ENDBRANCH  19  20
ENDBRANCH   4  19
TORSDOF 7
ENDMDL
MODEL 6
REMARK VINA RESULT:    -7.505      2.148      3.872
REMARK INTER + INTRA:         -11.673
REMARK INTER:                 -10.488
REMARK INTRA:                  -1.185
REMARK UNBOUND:                -1.097
REMARK  Name = 
REMARK  9 active torsions:
REMARK  status: ('A' for Active; 'I' for Inactive)
REMARK    1  A    between atoms: C_1  and  C_2
REMARK    2  A    between atoms: C_6  and  C_7
REMARK    3  A    between atoms: C_7  and  C_8
REMARK    4  A    between atoms: C_7  and  N_9
REMARK    5  A    between atoms: N_9  and  C_10
REMARK    6  A    between atoms: C_10  and  C_11
REMARK    7  A    between atoms: C_14  and  C_15
REMARK    8  A    between atoms: C_15  and  N_16
REMARK    9  A    between atoms: C_17  and  C_19
REMARK                            x       y       z     vdW  Elec       q    Type
REMARK                         _______ _______ _______ _____ _____    ______ ____
ROOT
ATOM      1  C   UNL     1      47.567   5.695  13.934  0.00  0.00    +0.000 A 
ATOM      2  C   UNL     1      48.170   6.192  15.090  0.00  0.00    +0.000 A 
ATOM      3  C   UNL     1      48.273   5.384  16.218  0.00  0.00    +0.000 A 
ATOM      4  C   UNL     1      47.774   4.084  16.163  0.00  0.00    +0.000 A 
ATOM      5  N   UNL     1      47.156   3.588  15.062  0.00  0.00    +0.000 NA
ATOM      6  C   UNL     1      47.068   4.398  13.982  0.00  0.00    +0.000 A 
ENDROOT
BRANCH   1   7
ATOM      7  C   UNL     1      47.474   6.519  12.681  0.00  0.00    +0.000 C 
BRANCH   7   8
ATOM      8  N   UNL     1      46.282   7.380  12.627  0.00  0.00    +0.000 NA
ATOM      9  H   UNL     1      45.731   7.166  13.464  0.00  0.00    +0.000 HD
BRANCH   8  10
ATOM     10  C   UNL     1      45.392   7.068  11.483  0.00  0.00    +0.000 C 
ATOM     11  C   UNL     1      44.357   8.188  11.354  0.00  0.00    +0.000 C 
BRANCH  10  17
ATOM     12  C   UNL     1      44.451   2.636   9.656  0.00  0.00    +0.000 C 
ATOM     13  C   UNL     1      44.224   3.618  10.765  0.00  0.00    +0.000 A 
ATOM     14  C   UNL     1      43.345   3.340  11.804  0.00  0.00    +0.000 A 
ATOM     15  C   UNL     1      43.140   4.306  12.786  0.00  0.00    +0.000 A 
ATOM     16  C   UNL     1      43.806   5.520  12.702  0.00  0.00    +0.000 A 
ATOM     17  C   UNL     1      44.672   5.732  11.634  0.00  0.00    +0.000 A 
ATOM     18  N   UNL     1      44.896   4.789  10.675  0.00  0.00    +0.000 NA
ENDBRANCH  10  17
ENDBRANCH   8  10
ENDBRANCH   7   8
ENDBRANCH   1   7
BRANCH   4  19
ATOM     19  C   UNL     1      47.868   3.187  17.376  0.00  0.00    +0.000 C 
BRANCH  19  20
ATOM     20  N   UNL     1      49.244   2.974  17.762  0.00  0.00    +0.000 N 
ATOM     21  C   UNL     1      50.091   2.191  17.025  0.00  0.00    +0.000 C 
ATOM     22  O   UNL     1      49.748   1.678  15.962  0.00  0.00    +0.000 OA
ATOM     23  H   UNL     1      49.467   3.195  18.728  0.00  0.00    +0.000 HD
BRANCH  21  24
ATOM     24  C   UNL     1      51.464   2.054  17.527  0.00  0.00    +0.000 A 
ATOM     25  C   UNL     1      52.065   0.803  17.549  0.00  0.00    +0.000 A 
ATOM     26  S   UNL     1      53.672   0.825  18.118  0.00  0.00    +0.000 S 
ATOM     27  C   UNL     1      53.606   2.501  18.402  0.00  0.00    +0.000 A 
ATOM     28  N   UNL     1      54.672   3.163  18.926  0.00  0.00    +0.000 NA
ATOM     29  C   UNL     1      54.473   4.424  19.118  0.00  0.00    +0.000 A 
ATOM     30  N   UNL     1      53.307   5.083  18.828  0.00  0.00    +0.000 N 
ATOM     31  C   UNL     1      52.215   4.462  18.271  0.00  0.00    +0.000 A 
ATOM     32  O   UNL     1      51.202   5.090  17.984  0.00  0.00    +0.000 OA
ATOM     33  C   UNL     1      52.382   3.039  18.048  0.00  0.00    +0.000 A 
ATOM     34  H   UNL     1      53.216   6.076  18.996  0.00  0.00    +0.000 HD
ENDBRANCH  21  24
ENDBRANCH  19  20
ENDBRANCH   4  19
TORSDOF 7
ENDMDL
MODEL 7
REMARK VINA RESULT:    -7.409      2.570      3.135
REMARK INTER + INTRA:         -11.538
REMARK INTER:                 -10.702
REMARK INTRA:                  -0.837
REMARK UNBOUND:                -1.097
REMARK  Name = 
REMARK  9 active torsions:
REMARK  status: ('A' for Active; 'I' for Inactive)
REMARK    1  A    between atoms: C_1  and  C_2
REMARK    2  A    between atoms: C_6  and  C_7
REMARK    3  A    between atoms: C_7  and  C_8
REMARK    4  A    between atoms: C_7  and  N_9
REMARK    5  A    between atoms: N_9  and  C_10
REMARK    6  A    between atoms: C_10  and  C_11
REMARK    7  A    between atoms: C_14  and  C_15
REMARK    8  A    between atoms: C_15  and  N_16
REMARK    9  A    between atoms: C_17  and  C_19
REMARK                            x       y       z     vdW  Elec       q    Type
REMARK                         _______ _______ _______ _____ _____    ______ ____
ROOT
ATOM      1  C   UNL     1      45.151   3.974  12.595  0.00  0.00    +0.000 A 
ATOM      2  C   UNL     1      46.292   3.441  13.196  0.00  0.00    +0.000 A 
ATOM      3  C   UNL     1      47.251   4.292  13.737  0.00  0.00    +0.000 A 
ATOM      4  C   UNL     1      47.043   5.669  13.672  0.00  0.00    +0.000 A 
ATOM      5  N   UNL     1      45.957   6.213  13.066  0.00  0.00    +0.000 NA
ATOM      6  C   UNL     1      45.044   5.359  12.547  0.00  0.00    +0.000 A 
ENDROOT
BRANCH   1   7
ATOM      7  C   UNL     1      44.072   3.089  12.038  0.00  0.00    +0.000 C 
BRANCH   7   8
ATOM      8  N   UNL     1      44.381   2.547  10.706  0.00  0.00    +0.000 NA
ATOM      9  H   UNL     1      45.114   1.844  10.841  0.00  0.00    +0.000 HD
BRANCH   8  10
ATOM     10  C   UNL     1      44.971   3.555   9.792  0.00  0.00    +0.000 C 
ATOM     11  C   UNL     1      43.844   4.439   9.252  0.00  0.00    +0.000 C 
BRANCH  10  17
ATOM     12  C   UNL     1      46.725  -0.481   7.670  0.00  0.00    +0.000 C 
ATOM     13  C   UNL     1      46.560   1.008   7.608  0.00  0.00    +0.000 A 
ATOM     14  C   UNL     1      47.140   1.755   6.591  0.00  0.00    +0.000 A 
ATOM     15  C   UNL     1      46.990   3.139   6.605  0.00  0.00    +0.000 A 
ATOM     16  C   UNL     1      46.278   3.740   7.635  0.00  0.00    +0.000 A 
ATOM     17  C   UNL     1      45.726   2.931   8.623  0.00  0.00    +0.000 A 
ATOM     18  N   UNL     1      45.849   1.573   8.610  0.00  0.00    +0.000 NA
ENDBRANCH  10  17
ENDBRANCH   8  10
ENDBRANCH   7   8
ENDBRANCH   1   7
BRANCH   4  19
ATOM     19  C   UNL     1      48.071   6.617  14.246  0.00  0.00    +0.000 C 
BRANCH  19  20
ATOM     20  N   UNL     1      48.041   6.604  15.690  0.00  0.00    +0.000 N 
ATOM     21  C   UNL     1      48.795   7.466  16.439  0.00  0.00    +0.000 C 
ATOM     22  O   UNL     1      49.490   8.341  15.927  0.00  0.00    +0.000 OA
ATOM     23  H   UNL     1      47.663   5.761  16.113  0.00  0.00    +0.000 HD
BRANCH  21  24
ATOM     24  C   UNL     1      48.675   7.348  17.898  0.00  0.00    +0.000 A 
ATOM     25  C   UNL     1      48.563   8.494  18.672  0.00  0.00    +0.000 A 
ATOM     26  S   UNL     1      48.388   8.181  20.339  0.00  0.00    +0.000 S 
ATOM     27  C   UNL     1      48.505   6.502  20.091  0.00  0.00    +0.000 A 
ATOM     28  N   UNL     1      48.457   5.636  21.139  0.00  0.00    +0.000 NA
ATOM     29  C   UNL     1      48.589   4.395  20.809  0.00  0.00    +0.000 A 
ATOM     30  N   UNL     1      48.760   3.942  19.528  0.00  0.00    +0.000 N 
ATOM     31  C   UNL     1      48.785   4.776  18.436  0.00  0.00    +0.000 A 
ATOM     32  O   UNL     1      48.897   4.334  17.298  0.00  0.00    +0.000 OA
ATOM     33  C   UNL     1      48.655   6.185  18.753  0.00  0.00    +0.000 A 
ATOM     34  H   UNL     1      48.850   2.953  19.334  0.00  0.00    +0.000 HD
ENDBRANCH  21  24
ENDBRANCH  19  20
ENDBRANCH   4  19
TORSDOF 7
ENDMDL
MODEL 8
REMARK VINA RESULT:    -7.080      3.497      9.064
REMARK INTER + INTRA:         -11.074
REMARK INTER:                  -9.691
REMARK INTRA:                  -1.383
REMARK UNBOUND:                -1.097
REMARK  Name = 
REMARK  9 active torsions:
REMARK  status: ('A' for Active; 'I' for Inactive)
REMARK    1  A    between atoms: C_1  and  C_2
REMARK    2  A    between atoms: C_6  and  C_7
REMARK    3  A    between atoms: C_7  and  C_8
REMARK    4  A    between atoms: C_7  and  N_9
REMARK    5  A    between atoms: N_9  and  C_10
REMARK    6  A    between atoms: C_10  and  C_11
REMARK    7  A    between atoms: C_14  and  C_15
REMARK    8  A    between atoms: C_15  and  N_16
REMARK    9  A    between atoms: C_17  and  C_19
REMARK                            x       y       z     vdW  Elec       q    Type
REMARK                         _______ _______ _______ _____ _____    ______ ____
ROOT
ATOM      1  C   UNL     1      50.592   7.486  15.313  0.00  0.00    +0.000 A 
ATOM      2  C   UNL     1      51.064   7.976  14.096  0.00  0.00    +0.000 A 
ATOM      3  C   UNL     1      50.192   8.116  13.020  0.00  0.00    +0.000 A 
ATOM      4  C   UNL     1      48.853   7.767  13.190  0.00  0.00    +0.000 A 
ATOM      5  N   UNL     1      48.376   7.258  14.354  0.00  0.00    +0.000 NA
ATOM      6  C   UNL     1      49.249   7.132  15.380  0.00  0.00    +0.000 A 
ENDROOT
BRANCH   1   7
ATOM      7  C   UNL     1      51.491   7.361  16.511  0.00  0.00    +0.000 C 
BRANCH   7   8
ATOM      8  N   UNL     1      50.831   6.770  17.686  0.00  0.00    +0.000 NA
ATOM      9  H   UNL     1      50.841   7.489  18.416  0.00  0.00    +0.000 HD
BRANCH   8  10
ATOM     10  C   UNL     1      51.580   5.624  18.256  0.00  0.00    +0.000 C 
ATOM     11  C   UNL     1      53.049   5.751  17.844  0.00  0.00    +0.000 C 
BRANCH  10  17
ATOM     12  C   UNL     1      47.775   2.985  16.699  0.00  0.00    +0.000 C 
ATOM     13  C   UNL     1      49.232   3.013  17.052  0.00  0.00    +0.000 A 
ATOM     14  C   UNL     1      49.998   1.855  17.038  0.00  0.00    +0.000 A 
ATOM     15  C   UNL     1      51.337   1.931  17.415  0.00  0.00    +0.000 A 
ATOM     16  C   UNL     1      51.869   3.152  17.805  0.00  0.00    +0.000 A 
ATOM     17  C   UNL     1      51.044   4.272  17.797  0.00  0.00    +0.000 A 
ATOM     18  N   UNL     1      49.737   4.215  17.412  0.00  0.00    +0.000 NA
ENDBRANCH  10  17
ENDBRANCH   8  10
ENDBRANCH   7   8
ENDBRANCH   1   7
BRANCH   4  19
ATOM     19  C   UNL     1      47.885   7.902  12.037  0.00  0.00    +0.000 C 
BRANCH  19  20
ATOM     20  N   UNL     1      47.115   6.692  11.860  0.00  0.00    +0.000 N 
ATOM     21  C   UNL     1      45.753   6.674  11.987  0.00  0.00    +0.000 C 
ATOM     22  O   UNL     1      45.102   7.695  12.196  0.00  0.00    +0.000 OA
ATOM     23  H   UNL     1      47.643   5.826  11.916  0.00  0.00    +0.000 HD
BRANCH  21  24
ATOM     24  C   UNL     1      45.091   5.379  11.785  0.00  0.00    +0.000 A 
ATOM     25  C   UNL     1      44.420   4.779  12.842  0.00  0.00    +0.000 A 
ATOM     26  S   UNL     1      43.670   3.304  12.428  0.00  0.00    +0.000 S 
ATOM     27  C   UNL     1      44.257   3.391  10.833  0.00  0.00    +0.000 A 
ATOM     28  N   UNL     1      43.992   2.402   9.937  0.00  0.00    +0.000 NA
ATOM     29  C   UNL     1      44.525   2.582   8.775  0.00  0.00    +0.000 A 
ATOM     30  N   UNL     1      45.291   3.663   8.426  0.00  0.00    +0.000 N 
ATOM     31  C   UNL     1      45.560   4.699   9.288  0.00  0.00    +0.000 A 
ATOM     32  O   UNL     1      46.215   5.672   8.931  0.00  0.00    +0.000 OA
ATOM     33  C   UNL     1      44.996   4.539  10.615  0.00  0.00    +0.000 A 
ATOM     34  H   UNL     1      45.674   3.749   7.495  0.00  0.00    +0.000 HD
ENDBRANCH  21  24
ENDBRANCH  19  20
ENDBRANCH   4  19
TORSDOF 7
ENDMDL
MODEL 9
REMARK VINA RESULT:    -7.075      1.330      2.013
REMARK INTER + INTRA:         -11.067
REMARK INTER:                 -10.160
REMARK INTRA:                  -0.907
REMARK UNBOUND:                -1.097
REMARK  Name = 
REMARK  9 active torsions:
REMARK  status: ('A' for Active; 'I' for Inactive)
REMARK    1  A    between atoms: C_1  and  C_2
REMARK    2  A    between atoms: C_6  and  C_7
REMARK    3  A    between atoms: C_7  and  C_8
REMARK    4  A    between atoms: C_7  and  N_9
REMARK    5  A    between atoms: N_9  and  C_10
REMARK    6  A    between atoms: C_10  and  C_11
REMARK    7  A    between atoms: C_14  and  C_15
REMARK    8  A    between atoms: C_15  and  N_16
REMARK    9  A    between atoms: C_17  and  C_19
REMARK                            x       y       z     vdW  Elec       q    Type
REMARK                         _______ _______ _______ _____ _____    ______ ____
ROOT
ATOM      1  C   UNL     1      47.358   7.173  12.969  0.00  0.00    +0.000 A 
ATOM      2  C   UNL     1      47.160   8.393  13.615  0.00  0.00    +0.000 A 
ATOM      3  C   UNL     1      47.904   8.704  14.750  0.00  0.00    +0.000 A 
ATOM      4  C   UNL     1      48.843   7.783  15.212  0.00  0.00    +0.000 A 
ATOM      5  N   UNL     1      49.032   6.577  14.619  0.00  0.00    +0.000 NA
ATOM      6  C   UNL     1      48.292   6.303  13.520  0.00  0.00    +0.000 A 
ENDROOT
BRANCH   1   7
ATOM      7  C   UNL     1      46.607   6.818  11.717  0.00  0.00    +0.000 C 
BRANCH   7   8
ATOM      8  N   UNL     1      45.542   5.825  11.928  0.00  0.00    +0.000 NA
ATOM      9  H   UNL     1      46.004   4.913  11.994  0.00  0.00    +0.000 HD
BRANCH   8  10
ATOM     10  C   UNL     1      44.617   5.711  10.774  0.00  0.00    +0.000 C 
ATOM     11  C   UNL     1      43.182   5.675  11.306  0.00  0.00    +0.000 C 
BRANCH  10  17
ATOM     12  C   UNL     1      46.601   3.773   6.753  0.00  0.00    +0.000 C 
ATOM     13  C   UNL     1      45.818   3.544   8.010  0.00  0.00    +0.000 A 
ATOM     14  C   UNL     1      45.295   2.294   8.314  0.00  0.00    +0.000 A 
ATOM     15  C   UNL     1      44.538   2.146   9.475  0.00  0.00    +0.000 A 
ATOM     16  C   UNL     1      44.317   3.247  10.292  0.00  0.00    +0.000 A 
ATOM     17  C   UNL     1      44.870   4.470   9.926  0.00  0.00    +0.000 A 
ATOM     18  N   UNL     1      45.627   4.623   8.803  0.00  0.00    +0.000 NA
ENDBRANCH  10  17
ENDBRANCH   8  10
ENDBRANCH   7   8
ENDBRANCH   1   7
BRANCH   4  19
ATOM     19  C   UNL     1      49.660   8.092  16.445  0.00  0.00    +0.000 C 
BRANCH  19  20
ATOM     20  N   UNL     1      50.558   7.004  16.760  0.00  0.00    +0.000 N 
ATOM     21  C   UNL     1      50.353   6.181  17.833  0.00  0.00    +0.000 C 
ATOM     22  O   UNL     1      49.361   6.280  18.552  0.00  0.00    +0.000 OA
ATOM     23  H   UNL     1      51.476   7.055  16.326  0.00  0.00    +0.000 HD
BRANCH  21  24
ATOM     24  C   UNL     1      51.341   5.116  18.044  0.00  0.00    +0.000 A 
ATOM     25  C   UNL     1      52.575   5.425  18.600  0.00  0.00    +0.000 A 
ATOM     26  S   UNL     1      53.587   4.070  18.818  0.00  0.00    +0.000 S 
ATOM     27  C   UNL     1      52.431   3.028  18.130  0.00  0.00    +0.000 A 
ATOM     28  N   UNL     1      52.685   1.699  17.988  0.00  0.00    +0.000 NA
ATOM     29  C   UNL     1      51.733   1.034  17.422  0.00  0.00    +0.000 A 
ATOM     30  N   UNL     1      50.551   1.575  16.993  0.00  0.00    +0.000 N 
ATOM     31  C   UNL     1      50.239   2.906  17.142  0.00  0.00    +0.000 A 
ATOM     32  O   UNL     1      49.153   3.350  16.784  0.00  0.00    +0.000 OA
ATOM     33  C   UNL     1      51.282   3.702  17.759  0.00  0.00    +0.000 A 
ATOM     34  H   UNL     1      49.841   0.998  16.563  0.00  0.00    +0.000 HD
ENDBRANCH  21  24
ENDBRANCH  19  20
ENDBRANCH   4  19
TORSDOF 7
ENDMDL
