MODEL 1
REMARK VINA RESULT:    -8.154      0.000      0.000
REMARK INTER + INTRA:         -11.216
REMARK INTER:                 -10.538
REMARK INTRA:                  -0.678
REMARK UNBOUND:                -0.678
REMARK  Name = 
REMARK  5 active torsions:
REMARK  status: ('A' for Active; 'I' for Inactive)
REMARK    1  A    between atoms: C_2  and  C_3
REMARK    2  A    between atoms: C_7  and  N_8
REMARK    3  A    between atoms: N_8  and  C_9
REMARK    4  A    between atoms: C_9  and  C_10
REMARK    5  A    between atoms: C_14  and  C_15
REMARK                            x       y       z     vdW  Elec       q    Type
REMARK                         _______ _______ _______ _____ _____    ______ ____
ROOT
ATOM      1  C   UNL     1      43.793   4.763  10.647  0.00  0.00    +0.000 A 
ATOM      2  C   UNL     1      43.174   3.722  11.324  0.00  0.00    +0.000 A 
ATOM      3  N   UNL     1      43.374   2.418  11.043  0.00  0.00    +0.000 NA
ATOM      4  C   UNL     1      44.230   2.136  10.029  0.00  0.00    +0.000 A 
ATOM      5  C   UNL     1      44.896   3.085   9.249  0.00  0.00    +0.000 A 
ATOM      6  C   UNL     1      44.647   4.426   9.587  0.00  0.00    +0.000 A 
ENDROOT
BRANCH   5   7
ATOM      7  C   UNL     1      45.803   2.707   8.148  0.00  0.00    +0.000 A 
ATOM      8  C   UNL     1      46.134   3.593   7.112  0.00  0.00    +0.000 A 
ATOM      9  C   UNL     1      46.986   3.200   6.079  0.00  0.00    +0.000 A 
ATOM     10  C   UNL     1      47.505   1.920   6.108  0.00  0.00    +0.000 A 
ATOM     11  N   UNL     1      47.228   1.029   7.079  0.00  0.00    +0.000 NA
ATOM     12  C   UNL     1      46.388   1.439   8.063  0.00  0.00    +0.000 A 
ENDBRANCH   5   7
BRANCH   1  13
ATOM     13  C   UNL     1      43.553   6.190  11.044  0.00  0.00    +0.000 C 
BRANCH  13  14
ATOM     14  N   UNL     1      43.907   6.402  12.437  0.00  0.00    +0.000 N 
ATOM     15  H   UNL     1      43.332   7.067  12.946  0.00  0.00    +0.000 HD
BRANCH  14  20
ATOM     16  C   UNL     1      46.963   5.049  14.086  0.00  0.00    +0.000 A 
ATOM     17  C   UNL     1      47.778   6.156  13.942  0.00  0.00    +0.000 A 
ATOM     18  N   UNL     1      47.389   7.289  13.319  0.00  0.00    +0.000 NA
ATOM     19  C   UNL     1      46.122   7.307  12.828  0.00  0.00    +0.000 A 
ATOM     20  C   UNL     1      45.212   6.245  12.893  0.00  0.00    +0.000 A 
ATOM     21  C   UNL     1      45.666   5.103  13.560  0.00  0.00    +0.000 A 
BRANCH  16  23
ATOM     22  N   UNL     1      47.815   2.943  15.323  0.00  0.00    +0.000 NA
ATOM     23  C   UNL     1      47.428   3.884  14.769  0.00  0.00    +0.000 C 
ENDBRANCH  16  23
ENDBRANCH  14  20
ENDBRANCH  13  14
ENDBRANCH   1  13
TORSDOF 5
ENDMDL
MODEL 2
REMARK VINA RESULT:    -7.888      1.140      2.265
REMARK INTER + INTRA:         -10.872
REMARK INTER:                 -10.097
REMARK INTRA:                  -0.775
REMARK UNBOUND:                -0.678
REMARK  Name = 
REMARK  5 active torsions:
REMARK  status: ('A' for Active; 'I' for Inactive)
REMARK    1  A    between atoms: C_2  and  C_3
REMARK    2  A    between atoms: C_7  and  N_8
REMARK    3  A    between atoms: N_8  and  C_9
REMARK    4  A    between atoms: C_9  and  C_10
REMARK    5  A    between atoms: C_14  and  C_15
REMARK                            x       y       z     vdW  Elec       q    Type
REMARK                         _______ _______ _______ _____ _____    ______ ____
ROOT
ATOM      1  C   UNL     1      43.818   4.790  10.729  0.00  0.00    +0.000 A 
ATOM      2  C   UNL     1      43.190   3.755  11.408  0.00  0.00    +0.000 A 
ATOM      3  N   UNL     1      43.363   2.450  11.117  0.00  0.00    +0.000 NA
ATOM      4  C   UNL     1      44.201   2.159  10.090  0.00  0.00    +0.000 A 
ATOM      5  C   UNL     1      44.872   3.102   9.306  0.00  0.00    +0.000 A 
ATOM      6  C   UNL     1      44.651   4.445   9.655  0.00  0.00    +0.000 A 
ENDROOT
BRANCH   5   7
ATOM      7  C   UNL     1      45.757   2.715   8.191  0.00  0.00    +0.000 A 
ATOM      8  C   UNL     1      46.081   3.598   7.150  0.00  0.00    +0.000 A 
ATOM      9  C   UNL     1      46.912   3.198   6.103  0.00  0.00    +0.000 A 
ATOM     10  C   UNL     1      47.417   1.912   6.123  0.00  0.00    +0.000 A 
ATOM     11  N   UNL     1      47.146   1.022   7.097  0.00  0.00    +0.000 NA
ATOM     12  C   UNL     1      46.327   1.441   8.094  0.00  0.00    +0.000 A 
ENDBRANCH   5   7
BRANCH   1  13
ATOM     13  C   UNL     1      43.607   6.219  11.137  0.00  0.00    +0.000 C 
BRANCH  13  14
ATOM     14  N   UNL     1      44.152   6.459  12.462  0.00  0.00    +0.000 N 
ATOM     15  H   UNL     1      43.581   7.028  13.081  0.00  0.00    +0.000 HD
BRANCH  14  20
ATOM     16  C   UNL     1      47.761   7.383  12.379  0.00  0.00    +0.000 A 
ATOM     17  C   UNL     1      48.266   6.292  13.062  0.00  0.00    +0.000 A 
ATOM     18  N   UNL     1      47.491   5.305  13.560  0.00  0.00    +0.000 NA
ATOM     19  C   UNL     1      46.153   5.421  13.353  0.00  0.00    +0.000 A 
ATOM     20  C   UNL     1      45.522   6.484  12.698  0.00  0.00    +0.000 A 
ATOM     21  C   UNL     1      46.375   7.471  12.193  0.00  0.00    +0.000 A 
BRANCH  16  23
ATOM     22  N   UNL     1      49.349   9.197  11.441  0.00  0.00    +0.000 NA
ATOM     23  C   UNL     1      48.634   8.388  11.863  0.00  0.00    +0.000 C 
ENDBRANCH  16  23
ENDBRANCH  14  20
ENDBRANCH  13  14
ENDBRANCH   1  13
TORSDOF 5
ENDMDL
MODEL 3
REMARK VINA RESULT:    -7.611      1.959      6.589
REMARK INTER + INTRA:         -10.513
REMARK INTER:                  -9.955
REMARK INTRA:                  -0.558
REMARK UNBOUND:                -0.678
REMARK  Name = 
REMARK  5 active torsions:
REMARK  status: ('A' for Active; 'I' for Inactive)
REMARK    1  A    between atoms: C_2  and  C_3
REMARK    2  A    between atoms: C_7  and  N_8
REMARK    3  A    between atoms: N_8  and  C_9
REMARK    4  A    between atoms: C_9  and  C_10
REMARK    5  A    between atoms: C_14  and  C_15
REMARK                            x       y       z     vdW  Elec       q    Type
REMARK                         _______ _______ _______ _____ _____    ______ ____
ROOT
ATOM      1  C   UNL     1      44.743   4.861  11.407  0.00  0.00    +0.000 A 
ATOM      2  C   UNL     1      44.518   4.062  12.518  0.00  0.00    +0.000 A 
ATOM      3  N   UNL     1      45.272   4.099  13.636  0.00  0.00    +0.000 NA
ATOM      4  C   UNL     1      46.311   4.971  13.643  0.00  0.00    +0.000 A 
ATOM      5  C   UNL     1      46.667   5.809  12.583  0.00  0.00    +0.000 A 
ATOM      6  C   UNL     1      45.846   5.726  11.446  0.00  0.00    +0.000 A 
ENDROOT
BRANCH   5   7
ATOM      7  C   UNL     1      47.823   6.724  12.653  0.00  0.00    +0.000 A 
ATOM      8  C   UNL     1      48.191   7.551  11.581  0.00  0.00    +0.000 A 
ATOM      9  C   UNL     1      49.297   8.396  11.675  0.00  0.00    +0.000 A 
ATOM     10  C   UNL     1      50.014   8.408  12.856  0.00  0.00    +0.000 A 
ATOM     11  N   UNL     1      49.706   7.642  13.920  0.00  0.00    +0.000 NA
ATOM     12  C   UNL     1      48.630   6.824  13.791  0.00  0.00    +0.000 A 
ENDBRANCH   5   7
BRANCH   1  13
ATOM     13  C   UNL     1      43.834   4.795  10.213  0.00  0.00    +0.000 C 
BRANCH  13  14
ATOM     14  N   UNL     1      44.605   4.690   8.987  0.00  0.00    +0.000 N 
ATOM     15  H   UNL     1      44.305   5.286   8.221  0.00  0.00    +0.000 HD
BRANCH  14  20
ATOM     16  C   UNL     1      46.762   2.207   7.235  0.00  0.00    +0.000 A 
ATOM     17  C   UNL     1      46.314   1.064   7.870  0.00  0.00    +0.000 A 
ATOM     18  N   UNL     1      45.378   1.075   8.843  0.00  0.00    +0.000 NA
ATOM     19  C   UNL     1      44.869   2.288   9.183  0.00  0.00    +0.000 A 
ATOM     20  C   UNL     1      45.255   3.514   8.629  0.00  0.00    +0.000 A 
ATOM     21  C   UNL     1      46.219   3.440   7.618  0.00  0.00    +0.000 A 
BRANCH  16  23
ATOM     22  N   UNL     1      48.541   2.056   5.364  0.00  0.00    +0.000 NA
ATOM     23  C   UNL     1      47.745   2.129   6.201  0.00  0.00    +0.000 C 
ENDBRANCH  16  23
ENDBRANCH  14  20
ENDBRANCH  13  14
ENDBRANCH   1  13
TORSDOF 5
ENDMDL
MODEL 4
REMARK VINA RESULT:    -6.873      1.998      2.880
REMARK INTER + INTRA:          -9.559
REMARK INTER:                  -8.908
REMARK INTRA:                  -0.652
REMARK UNBOUND:                -0.678
REMARK  Name = 
REMARK  5 active torsions:
REMARK  status: ('A' for Active; 'I' for Inactive)
REMARK    1  A    between atoms: C_2  and  C_3
REMARK    2  A    between atoms: C_7  and  N_8
REMARK    3  A    between atoms: N_8  and  C_9
REMARK    4  A    between atoms: C_9  and  C_10
REMARK    5  A    between atoms: C_14  and  C_15
REMARK                            x       y       z     vdW  Elec       q    Type
REMARK                         _______ _______ _______ _____ _____    ______ ____
ROOT
ATOM      1  C   UNL     1      44.228   4.968  11.617  0.00  0.00    +0.000 A 
ATOM      2  C   UNL     1      43.320   4.013  12.052  0.00  0.00    +0.000 A 
ATOM      3  N   UNL     1      43.154   2.811  11.463  0.00  0.00    +0.000 NA
ATOM      4  C   UNL     1      43.927   2.550  10.379  0.00  0.00    +0.000 A 
ATOM      5  C   UNL     1      44.857   3.431   9.821  0.00  0.00    +0.000 A 
ATOM      6  C   UNL     1      44.985   4.668  10.476  0.00  0.00    +0.000 A 
ENDROOT
BRANCH   5   7
ATOM      7  C   UNL     1      45.655   3.087   8.628  0.00  0.00    +0.000 A 
ATOM      8  C   UNL     1      46.101   1.780   8.377  0.00  0.00    +0.000 A 
ATOM      9  C   UNL     1      46.864   1.489   7.246  0.00  0.00    +0.000 A 
ATOM     10  C   UNL     1      47.158   2.517   6.372  0.00  0.00    +0.000 A 
ATOM     11  N   UNL     1      46.753   3.788   6.557  0.00  0.00    +0.000 NA
ATOM     12  C   UNL     1      46.022   4.039   7.672  0.00  0.00    +0.000 A 
ENDBRANCH   5   7
BRANCH   1  13
ATOM     13  C   UNL     1      44.387   6.269  12.350  0.00  0.00    +0.000 C 
BRANCH  13  14
ATOM     14  N   UNL     1      45.727   6.388  12.897  0.00  0.00    +0.000 N 
ATOM     15  H   UNL     1      45.851   6.049  13.847  0.00  0.00    +0.000 HD
BRANCH  14  20
ATOM     16  C   UNL     1      48.781   8.215  11.791  0.00  0.00    +0.000 A 
ATOM     17  C   UNL     1      48.297   9.505  11.899  0.00  0.00    +0.000 A 
ATOM     18  N   UNL     1      47.035   9.794  12.283  0.00  0.00    +0.000 NA
ATOM     19  C   UNL     1      46.232   8.737  12.577  0.00  0.00    +0.000 A 
ATOM     20  C   UNL     1      46.600   7.390  12.486  0.00  0.00    +0.000 A 
ATOM     21  C   UNL     1      47.921   7.152  12.095  0.00  0.00    +0.000 A 
BRANCH  16  23
ATOM     22  N   UNL     1      51.228   7.788  11.071  0.00  0.00    +0.000 NA
ATOM     23  C   UNL     1      50.131   7.974  11.393  0.00  0.00    +0.000 C 
ENDBRANCH  16  23
ENDBRANCH  14  20
ENDBRANCH  13  14
ENDBRANCH   1  13
TORSDOF 5
ENDMDL
MODEL 5
REMARK VINA RESULT:    -6.863      1.438      2.216
REMARK INTER + INTRA:          -9.546
REMARK INTER:                  -8.901
REMARK INTRA:                  -0.645
REMARK UNBOUND:                -0.678
REMARK  Name = 
REMARK  5 active torsions:
REMARK  status: ('A' for Active; 'I' for Inactive)
REMARK    1  A    between atoms: C_2  and  C_3
REMARK    2  A    between atoms: C_7  and  N_8
REMARK    3  A    between atoms: N_8  and  C_9
REMARK    4  A    between atoms: C_9  and  C_10
REMARK    5  A    between atoms: C_14  and  C_15
REMARK                            x       y       z     vdW  Elec       q    Type
REMARK                         _______ _______ _______ _____ _____    ______ ____
ROOT
ATOM      1  C   UNL     1      45.105   6.163  11.272  0.00  0.00    +0.000 A 
ATOM      2  C   UNL     1      43.770   5.912  11.557  0.00  0.00    +0.000 A 
ATOM      3  N   UNL     1      43.057   4.913  10.997  0.00  0.00    +0.000 NA
ATOM      4  C   UNL     1      43.705   4.129  10.099  0.00  0.00    +0.000 A 
ATOM      5  C   UNL     1      45.035   4.290   9.701  0.00  0.00    +0.000 A 
ATOM      6  C   UNL     1      45.726   5.347  10.316  0.00  0.00    +0.000 A 
ENDROOT
BRANCH   5   7
ATOM      7  C   UNL     1      45.674   3.407   8.705  0.00  0.00    +0.000 A 
ATOM      8  C   UNL     1      45.673   2.010   8.833  0.00  0.00    +0.000 A 
ATOM      9  C   UNL     1      46.296   1.203   7.880  0.00  0.00    +0.000 A 
ATOM     10  C   UNL     1      46.903   1.815   6.800  0.00  0.00    +0.000 A 
ATOM     11  N   UNL     1      46.930   3.149   6.621  0.00  0.00    +0.000 NA
ATOM     12  C   UNL     1      46.324   3.905   7.572  0.00  0.00    +0.000 A 
ENDBRANCH   5   7
BRANCH   1  13
ATOM     13  C   UNL     1      45.845   7.269  11.968  0.00  0.00    +0.000 C 
BRANCH  13  14
ATOM     14  N   UNL     1      47.245   6.920  12.138  0.00  0.00    +0.000 N 
ATOM     15  H   UNL     1      47.704   6.517  11.326  0.00  0.00    +0.000 HD
BRANCH  14  20
ATOM     16  C   UNL     1      47.749   5.283  15.448  0.00  0.00    +0.000 A 
ATOM     17  C   UNL     1      48.761   6.095  15.924  0.00  0.00    +0.000 A 
ATOM     18  N   UNL     1      49.291   7.114  15.215  0.00  0.00    +0.000 NA
ATOM     19  C   UNL     1      48.772   7.326  13.976  0.00  0.00    +0.000 A 
ATOM     20  C   UNL     1      47.765   6.561  13.377  0.00  0.00    +0.000 A 
ATOM     21  C   UNL     1      47.246   5.527  14.163  0.00  0.00    +0.000 A 
BRANCH  16  23
ATOM     22  N   UNL     1      46.798   3.373  16.910  0.00  0.00    +0.000 NA
ATOM     23  C   UNL     1      47.219   4.229  16.253  0.00  0.00    +0.000 C 
ENDBRANCH  16  23
ENDBRANCH  14  20
ENDBRANCH  13  14
ENDBRANCH   1  13
TORSDOF 5
ENDMDL
MODEL 6
REMARK VINA RESULT:    -6.642      1.658      7.144
REMARK INTER + INTRA:          -9.261
REMARK INTER:                  -8.676
REMARK INTRA:                  -0.585
REMARK UNBOUND:                -0.678
REMARK  Name = 
REMARK  5 active torsions:
REMARK  status: ('A' for Active; 'I' for Inactive)
REMARK    1  A    between atoms: C_2  and  C_3
REMARK    2  A    between atoms: C_7  and  N_8
REMARK    3  A    between atoms: N_8  and  C_9
REMARK    4  A    between atoms: C_9  and  C_10
REMARK    5  A    between atoms: C_14  and  C_15
REMARK                            x       y       z     vdW  Elec       q    Type
REMARK                         _______ _______ _______ _____ _____    ______ ____
ROOT
ATOM      1  C   UNL     1      45.195   5.735  12.021  0.00  0.00    +0.000 A 
ATOM      2  C   UNL     1      45.985   6.642  11.330  0.00  0.00    +0.000 A 
ATOM      3  N   UNL     1      47.211   7.032  11.733  0.00  0.00    +0.000 NA
ATOM      4  C   UNL     1      47.672   6.497  12.892  0.00  0.00    +0.000 A 
ATOM      5  C   UNL     1      46.969   5.598  13.699  0.00  0.00    +0.000 A 
ATOM      6  C   UNL     1      45.698   5.230  13.229  0.00  0.00    +0.000 A 
ENDROOT
BRANCH   5   7
ATOM      7  C   UNL     1      47.526   5.066  14.959  0.00  0.00    +0.000 A 
ATOM      8  C   UNL     1      47.241   3.771  15.416  0.00  0.00    +0.000 A 
ATOM      9  C   UNL     1      47.774   3.302  16.618  0.00  0.00    +0.000 A 
ATOM     10  C   UNL     1      48.600   4.142  17.340  0.00  0.00    +0.000 A 
ATOM     11  N   UNL     1      48.914   5.392  16.948  0.00  0.00    +0.000 NA
ATOM     12  C   UNL     1      48.371   5.820  15.781  0.00  0.00    +0.000 A 
ENDBRANCH   5   7
BRANCH   1  13
ATOM     13  C   UNL     1      43.856   5.316  11.487  0.00  0.00    +0.000 C 
BRANCH  13  14
ATOM     14  N   UNL     1      43.912   5.135  10.047  0.00  0.00    +0.000 N 
ATOM     15  H   UNL     1      43.131   5.516   9.521  0.00  0.00    +0.000 HD
BRANCH  14  20
ATOM     16  C   UNL     1      45.816   2.980   7.677  0.00  0.00    +0.000 A 
ATOM     17  C   UNL     1      45.653   1.771   8.325  0.00  0.00    +0.000 A 
ATOM     18  N   UNL     1      44.986   1.638   9.491  0.00  0.00    +0.000 NA
ATOM     19  C   UNL     1      44.455   2.773  10.020  0.00  0.00    +0.000 A 
ATOM     20  C   UNL     1      44.570   4.055   9.470  0.00  0.00    +0.000 A 
ATOM     21  C   UNL     1      45.262   4.129   8.257  0.00  0.00    +0.000 A 
BRANCH  16  23
ATOM     22  N   UNL     1      47.088   3.105   5.428  0.00  0.00    +0.000 NA
ATOM     23  C   UNL     1      46.521   3.054   6.436  0.00  0.00    +0.000 C 
ENDBRANCH  16  23
ENDBRANCH  14  20
ENDBRANCH  13  14
ENDBRANCH   1  13
TORSDOF 5
ENDMDL
MODEL 7
REMARK VINA RESULT:    -6.226      2.155      4.371
REMARK INTER + INTRA:          -8.724
REMARK INTER:                  -8.120
REMARK INTRA:                  -0.605
REMARK UNBOUND:                -0.678
REMARK  Name = 
REMARK  5 active torsions:
REMARK  status: ('A' for Active; 'I' for Inactive)
REMARK    1  A    between atoms: C_2  and  C_3
REMARK    2  A    between atoms: C_7  and  N_8
REMARK    3  A    between atoms: N_8  and  C_9
REMARK    4  A    between atoms: C_9  and  C_10
REMARK    5  A    between atoms: C_14  and  C_15
REMARK                            x       y       z     vdW  Elec       q    Type
REMARK                         _______ _______ _______ _____ _____    ______ ____
ROOT
ATOM      1  C   UNL     1      47.172   7.407  12.695  0.00  0.00    +0.000 A 
ATOM      2  C   UNL     1      46.211   8.400  12.820  0.00  0.00    +0.000 A 
ATOM      3  N   UNL     1      44.993   8.344  12.246  0.00  0.00    +0.000 NA
ATOM      4  C   UNL     1      44.719   7.243  11.500  0.00  0.00    +0.000 A 
ATOM      5  C   UNL     1      45.604   6.187  11.269  0.00  0.00    +0.000 A 
ATOM      6  C   UNL     1      46.858   6.302  11.891  0.00  0.00    +0.000 A 
ENDROOT
BRANCH   5   7
ATOM      7  C   UNL     1      45.245   5.025  10.432  0.00  0.00    +0.000 A 
ATOM      8  C   UNL     1      45.612   4.934   9.080  0.00  0.00    +0.000 A 
ATOM      9  C   UNL     1      45.247   3.828   8.312  0.00  0.00    +0.000 A 
ATOM     10  C   UNL     1      44.525   2.818   8.919  0.00  0.00    +0.000 A 
ATOM     11  N   UNL     1      44.150   2.848  10.212  0.00  0.00    +0.000 NA
ATOM     12  C   UNL     1      44.512   3.943  10.928  0.00  0.00    +0.000 A 
ENDBRANCH   5   7
BRANCH   1  13
ATOM     13  C   UNL     1      48.493   7.521  13.400  0.00  0.00    +0.000 C 
BRANCH  13  14
ATOM     14  N   UNL     1      48.309   7.508  14.841  0.00  0.00    +0.000 N 
ATOM     15  H   UNL     1      48.298   8.417  15.295  0.00  0.00    +0.000 HD
BRANCH  14  20
ATOM     16  C   UNL     1      48.332   4.421  16.929  0.00  0.00    +0.000 A 
ATOM     17  C   UNL     1      49.643   4.479  17.362  0.00  0.00    +0.000 A 
ATOM     18  N   UNL     1      50.506   5.446  16.987  0.00  0.00    +0.000 NA
ATOM     19  C   UNL     1      50.024   6.399  16.146  0.00  0.00    +0.000 A 
ATOM     20  C   UNL     1      48.726   6.437  15.623  0.00  0.00    +0.000 A 
ATOM     21  C   UNL     1      47.873   5.417  16.056  0.00  0.00    +0.000 A 
BRANCH  16  23
ATOM     22  N   UNL     1      46.748   2.542  17.735  0.00  0.00    +0.000 NA
ATOM     23  C   UNL     1      47.461   3.380  17.373  0.00  0.00    +0.000 C 
ENDBRANCH  16  23
ENDBRANCH  14  20
ENDBRANCH  13  14
ENDBRANCH   1  13
TORSDOF 5
ENDMDL
MODEL 8
REMARK VINA RESULT:    -6.154      3.357      5.859
REMARK INTER + INTRA:          -8.631
REMARK INTER:                  -8.111
REMARK INTRA:                  -0.520
REMARK UNBOUND:                -0.678
REMARK  Name = 
REMARK  5 active torsions:
REMARK  status: ('A' for Active; 'I' for Inactive)
REMARK    1  A    between atoms: C_2  and  C_3
REMARK    2  A    between atoms: C_7  and  N_8
REMARK    3  A    between atoms: N_8  and  C_9
REMARK    4  A    between atoms: C_9  and  C_10
REMARK    5  A    between atoms: C_14  and  C_15
REMARK                            x       y       z     vdW  Elec       q    Type
REMARK                         _______ _______ _______ _____ _____    ______ ____
ROOT
ATOM      1  C   UNL     1      48.646   6.967  14.198  0.00  0.00    +0.000 A 
ATOM      2  C   UNL     1      49.142   7.768  13.179  0.00  0.00    +0.000 A 
ATOM      3  N   UNL     1      48.586   7.856  11.954  0.00  0.00    +0.000 NA
ATOM      4  C   UNL     1      47.482   7.100  11.729  0.00  0.00    +0.000 A 
ATOM      5  C   UNL     1      46.898   6.231  12.654  0.00  0.00    +0.000 A 
ATOM      6  C   UNL     1      47.521   6.180  13.911  0.00  0.00    +0.000 A 
ENDROOT
BRANCH   5   7
ATOM      7  C   UNL     1      45.703   5.425  12.335  0.00  0.00    +0.000 A 
ATOM      8  C   UNL     1      44.959   5.621  11.161  0.00  0.00    +0.000 A 
ATOM      9  C   UNL     1      43.827   4.850  10.894  0.00  0.00    +0.000 A 
ATOM     10  C   UNL     1      43.465   3.879  11.808  0.00  0.00    +0.000 A 
ATOM     11  N   UNL     1      44.143   3.641  12.947  0.00  0.00    +0.000 NA
ATOM     12  C   UNL     1      45.233   4.416  13.182  0.00  0.00    +0.000 A 
ENDBRANCH   5   7
BRANCH   1  13
ATOM     13  C   UNL     1      49.296   6.952  15.552  0.00  0.00    +0.000 C 
BRANCH  13  14
ATOM     14  N   UNL     1      48.362   6.486  16.563  0.00  0.00    +0.000 N 
ATOM     15  H   UNL     1      48.121   7.157  17.287  0.00  0.00    +0.000 HD
BRANCH  14  20
ATOM     16  C   UNL     1      49.199   2.910  17.193  0.00  0.00    +0.000 A 
ATOM     17  C   UNL     1      47.921   2.442  17.433  0.00  0.00    +0.000 A 
ATOM     18  N   UNL     1      46.827   3.233  17.425  0.00  0.00    +0.000 NA
ATOM     19  C   UNL     1      47.032   4.549  17.156  0.00  0.00    +0.000 A 
ATOM     20  C   UNL     1      48.276   5.145  16.917  0.00  0.00    +0.000 A 
ATOM     21  C   UNL     1      49.371   4.275  16.927  0.00  0.00    +0.000 A 
BRANCH  16  23
ATOM     22  N   UNL     1      51.217   1.292  17.203  0.00  0.00    +0.000 NA
ATOM     23  C   UNL     1      50.316   2.020  17.202  0.00  0.00    +0.000 C 
ENDBRANCH  16  23
ENDBRANCH  14  20
ENDBRANCH  13  14
ENDBRANCH   1  13
TORSDOF 5
ENDMDL
MODEL 9
REMARK VINA RESULT:    -6.103      1.817      7.020
REMARK INTER + INTRA:          -8.565
REMARK INTER:                  -7.817
REMARK INTRA:                  -0.748
REMARK UNBOUND:                -0.678
REMARK  Name = 
REMARK  5 active torsions:
REMARK  status: ('A' for Active; 'I' for Inactive)
REMARK    1  A    between atoms: C_2  and  C_3
REMARK    2  A    between atoms: C_7  and  N_8
REMARK    3  A    between atoms: N_8  and  C_9
REMARK    4  A    between atoms: C_9  and  C_10
REMARK    5  A    between atoms: C_14  and  C_15
REMARK                            x       y       z     vdW  Elec       q    Type
REMARK                         _______ _______ _______ _____ _____    ______ ____
ROOT
ATOM      1  C   UNL     1      46.355   7.230  12.427  0.00  0.00    +0.000 A 
ATOM      2  C   UNL     1      47.506   7.734  11.838  0.00  0.00    +0.000 A 
ATOM      3  N   UNL     1      48.750   7.515  12.311  0.00  0.00    +0.000 NA
ATOM      4  C   UNL     1      48.852   6.762  13.436  0.00  0.00    +0.000 A 
ATOM      5  C   UNL     1      47.775   6.221  14.143  0.00  0.00    +0.000 A 
ATOM      6  C   UNL     1      46.505   6.483  13.604  0.00  0.00    +0.000 A 
ENDROOT
BRANCH   5   7
ATOM      7  C   UNL     1      47.959   5.423  15.371  0.00  0.00    +0.000 A 
ATOM      8  C   UNL     1      47.287   4.209  15.584  0.00  0.00    +0.000 A 
ATOM      9  C   UNL     1      47.473   3.485  16.762  0.00  0.00    +0.000 A 
ATOM     10  C   UNL     1      48.346   3.985  17.708  0.00  0.00    +0.000 A 
ATOM     11  N   UNL     1      49.023   5.139  17.557  0.00  0.00    +0.000 NA
ATOM     12  C   UNL     1      48.811   5.825  16.405  0.00  0.00    +0.000 A 
ENDBRANCH   5   7
BRANCH   1  13
ATOM     13  C   UNL     1      45.005   7.482  11.818  0.00  0.00    +0.000 C 
BRANCH  13  14
ATOM     14  N   UNL     1      44.836   6.698  10.607  0.00  0.00    +0.000 N 
ATOM     15  H   UNL     1      44.493   7.204   9.795  0.00  0.00    +0.000 HD
BRANCH  14  20
ATOM     16  C   UNL     1      44.786   3.046   9.865  0.00  0.00    +0.000 A 
ATOM     17  C   UNL     1      43.722   2.690  10.672  0.00  0.00    +0.000 A 
ATOM     18  N   UNL     1      43.054   3.568  11.450  0.00  0.00    +0.000 NA
ATOM     19  C   UNL     1      43.473   4.860  11.406  0.00  0.00    +0.000 A 
ATOM     20  C   UNL     1      44.548   5.338  10.648  0.00  0.00    +0.000 A 
ATOM     21  C   UNL     1      45.194   4.387   9.853  0.00  0.00    +0.000 A 
BRANCH  16  23
ATOM     22  N   UNL     1      45.986   1.287   8.397  0.00  0.00    +0.000 NA
ATOM     23  C   UNL     1      45.444   2.073   9.052  0.00  0.00    +0.000 C 
ENDBRANCH  16  23
ENDBRANCH  14  20
ENDBRANCH  13  14
ENDBRANCH   1  13
TORSDOF 5
ENDMDL
