MODEL 1
REMARK VINA RESULT:    -7.596      0.000      0.000
REMARK INTER + INTRA:         -11.402
REMARK INTER:                 -10.705
REMARK INTRA:                  -0.696
REMARK UNBOUND:                -0.696
REMARK  Name = 
REMARK  8 active torsions:
REMARK  status: ('A' for Active; 'I' for Inactive)
REMARK    1  A    between atoms: N_1  and  C_2
REMARK    2  A    between atoms: C_2  and  C_3
REMARK    3  A    between atoms: C_3  and  O_4
REMARK    4  A    between atoms: O_4  and  C_5
REMARK    5  A    between atoms: C_9  and  C_10
REMARK    6  A    between atoms: C_10  and  N_11
REMARK    7  A    between atoms: CA_16  and  C_17
REMARK    8  A    between atoms: C_17  and  OXT_19
REMARK                            x       y       z     vdW  Elec       q    Type
REMARK                         _______ _______ _______ _____ _____    ______ ____
ROOT
ATOM      1  C   UNL     1      43.946   5.712  11.021  0.00  0.00    +0.000 C 
ENDROOT
BRANCH   1   2
ATOM      2  N   UNL     1      44.326   4.382  10.553  0.00  0.00    +0.000 N 
ATOM      3  C   UNL     1      43.733   3.225  11.003  0.00  0.00    +0.000 A 
ATOM      4  C   UNL     1      44.175   2.183  10.223  0.00  0.00    +0.000 A 
ATOM      5  C   UNL     1      45.059   2.718   9.251  0.00  0.00    +0.000 A 
ATOM      6  C   UNL     1      45.776   2.148   8.191  0.00  0.00    +0.000 A 
ATOM      7  CA  UNL     1      46.530   3.024   7.430  0.00  0.00    +0.000 A 
ATOM      8  N   UNL     1      46.625   4.374   7.634  0.00  0.00    +0.000 NA
ATOM      9  C   UNL     1      45.932   4.917   8.662  0.00  0.00    +0.000 A 
ATOM     10  C   UNL     1      45.146   4.098   9.473  0.00  0.00    +0.000 A 
BRANCH   7  11
ATOM     11  C   UNL     1      47.313   2.497   6.273  0.00  0.00    +0.000 C 
ATOM     12  O   UNL     1      47.968   1.468   6.272  0.00  0.00    +0.000 OA
BRANCH  11  13
ATOM     13  OXT UNL     1      47.193   3.323   5.203  0.00  0.00    +0.000 OA
ATOM     14  HXT UNL     1      47.632   2.892   4.430  0.00  0.00    +0.000 HD
ENDBRANCH  11  13
ENDBRANCH   7  11
ENDBRANCH   1   2
BRANCH   1  19
ATOM     15  C   UNL     1      46.886   6.191  13.416  0.00  0.00    +0.000 A 
ATOM     16  C   UNL     1      47.087   7.569  13.314  0.00  0.00    +0.000 A 
ATOM     17  C   UNL     1      46.218   8.352  12.555  0.00  0.00    +0.000 A 
ATOM     18  C   UNL     1      45.164   7.761  11.861  0.00  0.00    +0.000 A 
ATOM     19  C   UNL     1      44.969   6.373  11.912  0.00  0.00    +0.000 A 
ATOM     20  C   UNL     1      45.819   5.603  12.725  0.00  0.00    +0.000 A 
BRANCH  15  21
ATOM     21  O   UNL     1      47.672   5.324  14.134  0.00  0.00    +0.000 OA
BRANCH  21  22
ATOM     22  C   UNL     1      46.972   4.323  14.880  0.00  0.00    +0.000 C 
BRANCH  22  23
ATOM     23  C   UNL     1      47.449   4.333  16.336  0.00  0.00    +0.000 C 
BRANCH  23  24
ATOM     24  N   UNL     1      46.727   3.346  17.141  0.00  0.00    +0.000 NA
ATOM     25  H   UNL     1      45.874   3.073  16.654  0.00  0.00    +0.000 HD
ATOM     26  H   UNL     1      46.426   3.771  18.018  0.00  0.00    +0.000 HD
ENDBRANCH  23  24
ENDBRANCH  22  23
ENDBRANCH  21  22
ENDBRANCH  15  21
ENDBRANCH   1  19
TORSDOF 8
ENDMDL
MODEL 2
REMARK VINA RESULT:    -7.389      1.856      7.362
REMARK INTER + INTRA:         -11.109
REMARK INTER:                 -10.557
REMARK INTRA:                  -0.552
REMARK UNBOUND:                -0.696
REMARK  Name = 
REMARK  8 active torsions:
REMARK  status: ('A' for Active; 'I' for Inactive)
REMARK    1  A    between atoms: N_1  and  C_2
REMARK    2  A    between atoms: C_2  and  C_3
REMARK    3  A    between atoms: C_3  and  O_4
REMARK    4  A    between atoms: O_4  and  C_5
REMARK    5  A    between atoms: C_9  and  C_10
REMARK    6  A    between atoms: C_10  and  N_11
REMARK    7  A    between atoms: CA_16  and  C_17
REMARK    8  A    between atoms: C_17  and  OXT_19
REMARK                            x       y       z     vdW  Elec       q    Type
REMARK                         _______ _______ _______ _____ _____    ______ ____
ROOT
ATOM      1  C   UNL     1      44.888   6.418  11.252  0.00  0.00    +0.000 C 
ENDROOT
BRANCH   1   2
ATOM      2  N   UNL     1      46.114   6.505  12.041  0.00  0.00    +0.000 N 
ATOM      3  C   UNL     1      47.030   7.522  11.904  0.00  0.00    +0.000 A 
ATOM      4  C   UNL     1      47.948   7.414  12.921  0.00  0.00    +0.000 A 
ATOM      5  C   UNL     1      47.578   6.301  13.719  0.00  0.00    +0.000 A 
ATOM      6  C   UNL     1      48.113   5.738  14.885  0.00  0.00    +0.000 A 
ATOM      7  CA  UNL     1      47.437   4.643  15.394  0.00  0.00    +0.000 A 
ATOM      8  N   UNL     1      46.311   4.083  14.853  0.00  0.00    +0.000 NA
ATOM      9  C   UNL     1      45.802   4.630  13.724  0.00  0.00    +0.000 A 
ATOM     10  C   UNL     1      46.427   5.739  13.153  0.00  0.00    +0.000 A 
BRANCH   7  11
ATOM     11  C   UNL     1      47.936   3.993  16.642  0.00  0.00    +0.000 C 
ATOM     12  O   UNL     1      49.091   4.006  17.033  0.00  0.00    +0.000 OA
BRANCH  11  13
ATOM     13  OXT UNL     1      46.917   3.381  17.298  0.00  0.00    +0.000 OA
ATOM     14  HXT UNL     1      46.565   2.663  16.717  0.00  0.00    +0.000 HD
ENDBRANCH  11  13
ENDBRANCH   7  11
ENDBRANCH   1   2
BRANCH   1  19
ATOM     15  C   UNL     1      45.671   4.051   8.356  0.00  0.00    +0.000 A 
ATOM     16  C   UNL     1      44.986   2.904   8.761  0.00  0.00    +0.000 A 
ATOM     17  C   UNL     1      44.197   2.925   9.911  0.00  0.00    +0.000 A 
ATOM     18  C   UNL     1      44.115   4.081  10.685  0.00  0.00    +0.000 A 
ATOM     19  C   UNL     1      44.830   5.232  10.323  0.00  0.00    +0.000 A 
ATOM     20  C   UNL     1      45.577   5.213   9.132  0.00  0.00    +0.000 A 
BRANCH  15  21
ATOM     21  O   UNL     1      46.472   4.148   7.245  0.00  0.00    +0.000 OA
BRANCH  21  22
ATOM     22  C   UNL     1      46.585   2.962   6.453  0.00  0.00    +0.000 C 
BRANCH  22  23
ATOM     23  C   UNL     1      47.898   2.243   6.779  0.00  0.00    +0.000 C 
BRANCH  23  24
ATOM     24  N   UNL     1      48.568   1.779   5.562  0.00  0.00    +0.000 NA
ATOM     25  H   UNL     1      49.467   1.367   5.809  0.00  0.00    +0.000 HD
ATOM     26  H   UNL     1      48.779   2.575   4.961  0.00  0.00    +0.000 HD
ENDBRANCH  23  24
ENDBRANCH  22  23
ENDBRANCH  21  22
ENDBRANCH  15  21
ENDBRANCH   1  19
TORSDOF 8
ENDMDL
MODEL 3
REMARK VINA RESULT:    -6.972      1.900      7.108
REMARK INTER + INTRA:         -10.521
REMARK INTER:                  -9.871
REMARK INTRA:                  -0.650
REMARK UNBOUND:                -0.696
REMARK  Name = 
REMARK  8 active torsions:
REMARK  status: ('A' for Active; 'I' for Inactive)
REMARK    1  A    between atoms: N_1  and  C_2
REMARK    2  A    between atoms: C_2  and  C_3
REMARK    3  A    between atoms: C_3  and  O_4
REMARK    4  A    between atoms: O_4  and  C_5
REMARK    5  A    between atoms: C_9  and  C_10
REMARK    6  A    between atoms: C_10  and  N_11
REMARK    7  A    between atoms: CA_16  and  C_17
REMARK    8  A    between atoms: C_17  and  OXT_19
REMARK                            x       y       z     vdW  Elec       q    Type
REMARK                         _______ _______ _______ _____ _____    ______ ____
ROOT
ATOM      1  C   UNL     1      43.593   5.619  11.297  0.00  0.00    +0.000 C 
ENDROOT
BRANCH   1   2
ATOM      2  N   UNL     1      44.642   6.580  11.625  0.00  0.00    +0.000 N 
ATOM      3  C   UNL     1      44.555   7.922  11.337  0.00  0.00    +0.000 A 
ATOM      4  C   UNL     1      45.603   8.564  11.953  0.00  0.00    +0.000 A 
ATOM      5  C   UNL     1      46.354   7.587  12.655  0.00  0.00    +0.000 A 
ATOM      6  C   UNL     1      47.490   7.655  13.471  0.00  0.00    +0.000 A 
ATOM      7  CA  UNL     1      47.921   6.456  14.011  0.00  0.00    +0.000 A 
ATOM      8  N   UNL     1      47.333   5.237  13.809  0.00  0.00    +0.000 NA
ATOM      9  C   UNL     1      46.238   5.178  13.015  0.00  0.00    +0.000 A 
ATOM     10  C   UNL     1      45.741   6.346  12.437  0.00  0.00    +0.000 A 
BRANCH   7  11
ATOM     11  C   UNL     1      49.118   6.447  14.904  0.00  0.00    +0.000 C 
ATOM     12  O   UNL     1      49.160   5.968  16.025  0.00  0.00    +0.000 OA
BRANCH  11  13
ATOM     13  OXT UNL     1      50.170   7.049  14.293  0.00  0.00    +0.000 OA
ATOM     14  HXT UNL     1      50.229   6.701  13.370  0.00  0.00    +0.000 HD
ENDBRANCH  11  13
ENDBRANCH   7  11
ENDBRANCH   1   2
BRANCH   1  19
ATOM     15  C   UNL     1      45.334   3.750   8.454  0.00  0.00    +0.000 A 
ATOM     16  C   UNL     1      45.142   2.426   8.853  0.00  0.00    +0.000 A 
ATOM     17  C   UNL     1      44.372   2.135   9.979  0.00  0.00    +0.000 A 
ATOM     18  C   UNL     1      43.818   3.166  10.737  0.00  0.00    +0.000 A 
ATOM     19  C   UNL     1      44.035   4.505  10.381  0.00  0.00    +0.000 A 
ATOM     20  C   UNL     1      44.767   4.781   9.213  0.00  0.00    +0.000 A 
BRANCH  15  21
ATOM     21  O   UNL     1      46.067   4.154   7.367  0.00  0.00    +0.000 OA
BRANCH  21  22
ATOM     22  C   UNL     1      47.265   3.413   7.113  0.00  0.00    +0.000 C 
BRANCH  22  23
ATOM     23  C   UNL     1      47.149   2.682   5.771  0.00  0.00    +0.000 C 
BRANCH  23  24
ATOM     24  N   UNL     1      48.386   1.970   5.443  0.00  0.00    +0.000 NA
ATOM     25  H   UNL     1      49.166   2.626   5.456  0.00  0.00    +0.000 HD
ATOM     26  H   UNL     1      48.335   1.613   4.490  0.00  0.00    +0.000 HD
ENDBRANCH  23  24
ENDBRANCH  22  23
ENDBRANCH  21  22
ENDBRANCH  15  21
ENDBRANCH   1  19
TORSDOF 8
ENDMDL
MODEL 4
REMARK VINA RESULT:    -6.518      2.685      7.199
REMARK INTER + INTRA:          -9.881
REMARK INTER:                  -9.607
REMARK INTRA:                  -0.274
REMARK UNBOUND:                -0.696
REMARK  Name = 
REMARK  8 active torsions:
REMARK  status: ('A' for Active; 'I' for Inactive)
REMARK    1  A    between atoms: N_1  and  C_2
REMARK    2  A    between atoms: C_2  and  C_3
REMARK    3  A    between atoms: C_3  and  O_4
REMARK    4  A    between atoms: O_4  and  C_5
REMARK    5  A    between atoms: C_9  and  C_10
REMARK    6  A    between atoms: C_10  and  N_11
REMARK    7  A    between atoms: CA_16  and  C_17
REMARK    8  A    between atoms: C_17  and  OXT_19
REMARK                            x       y       z     vdW  Elec       q    Type
REMARK                         _______ _______ _______ _____ _____    ______ ____
ROOT
ATOM      1  C   UNL     1      46.807   6.483  11.647  0.00  0.00    +0.000 C 
ENDROOT
BRANCH   1   2
ATOM      2  N   UNL     1      47.466   6.566  12.947  0.00  0.00    +0.000 N 
ATOM      3  C   UNL     1      47.969   7.737  13.466  0.00  0.00    +0.000 A 
ATOM      4  C   UNL     1      48.333   7.509  14.771  0.00  0.00    +0.000 A 
ATOM      5  C   UNL     1      48.032   6.156  15.072  0.00  0.00    +0.000 A 
ATOM      6  C   UNL     1      48.156   5.382  16.232  0.00  0.00    +0.000 A 
ATOM      7  CA  UNL     1      47.719   4.072  16.137  0.00  0.00    +0.000 A 
ATOM      8  N   UNL     1      47.188   3.492  15.016  0.00  0.00    +0.000 NA
ATOM      9  C   UNL     1      47.076   4.245  13.897  0.00  0.00    +0.000 A 
ATOM     10  C   UNL     1      47.492   5.576  13.917  0.00  0.00    +0.000 A 
BRANCH   7  11
ATOM     11  C   UNL     1      47.804   3.186  17.335  0.00  0.00    +0.000 C 
ATOM     12  O   UNL     1      48.832   2.865  17.906  0.00  0.00    +0.000 OA
BRANCH  11  13
ATOM     13  OXT UNL     1      46.565   2.781  17.714  0.00  0.00    +0.000 OA
ATOM     14  HXT UNL     1      46.352   1.946  17.229  0.00  0.00    +0.000 HD
ENDBRANCH  11  13
ENDBRANCH   7  11
ENDBRANCH   1   2
BRANCH   1  19
ATOM     15  C   UNL     1      43.931   4.055  10.982  0.00  0.00    +0.000 A 
ATOM     16  C   UNL     1      43.027   4.440  11.973  0.00  0.00    +0.000 A 
ATOM     17  C   UNL     1      43.301   5.539  12.787  0.00  0.00    +0.000 A 
ATOM     18  C   UNL     1      44.497   6.240  12.641  0.00  0.00    +0.000 A 
ATOM     19  C   UNL     1      45.441   5.844  11.683  0.00  0.00    +0.000 A 
ATOM     20  C   UNL     1      45.127   4.769  10.833  0.00  0.00    +0.000 A 
BRANCH  15  21
ATOM     21  O   UNL     1      43.768   2.996  10.124  0.00  0.00    +0.000 OA
BRANCH  21  22
ATOM     22  C   UNL     1      44.619   2.990   8.973  0.00  0.00    +0.000 C 
BRANCH  22  23
ATOM     23  C   UNL     1      45.206   1.589   8.770  0.00  0.00    +0.000 C 
BRANCH  23  24
ATOM     24  N   UNL     1      46.455   1.640   8.007  0.00  0.00    +0.000 NA
ATOM     25  H   UNL     1      47.118   2.247   8.487  0.00  0.00    +0.000 HD
ATOM     26  H   UNL     1      46.286   2.069   7.098  0.00  0.00    +0.000 HD
ENDBRANCH  23  24
ENDBRANCH  22  23
ENDBRANCH  21  22
ENDBRANCH  15  21
ENDBRANCH   1  19
TORSDOF 8
ENDMDL
MODEL 5
REMARK VINA RESULT:    -6.265      3.562      5.438
REMARK INTER + INTRA:          -9.525
REMARK INTER:                  -8.793
REMARK INTRA:                  -0.732
REMARK UNBOUND:                -0.696
REMARK  Name = 
REMARK  8 active torsions:
REMARK  status: ('A' for Active; 'I' for Inactive)
REMARK    1  A    between atoms: N_1  and  C_2
REMARK    2  A    between atoms: C_2  and  C_3
REMARK    3  A    between atoms: C_3  and  O_4
REMARK    4  A    between atoms: O_4  and  C_5
REMARK    5  A    between atoms: C_9  and  C_10
REMARK    6  A    between atoms: C_10  and  N_11
REMARK    7  A    between atoms: CA_16  and  C_17
REMARK    8  A    between atoms: C_17  and  OXT_19
REMARK                            x       y       z     vdW  Elec       q    Type
REMARK                         _______ _______ _______ _____ _____    ______ ____
ROOT
ATOM      1  C   UNL     1      48.666   6.944  14.233  0.00  0.00    +0.000 C 
ENDROOT
BRANCH   1   2
ATOM      2  N   UNL     1      47.325   6.983  13.657  0.00  0.00    +0.000 N 
ATOM      3  C   UNL     1      46.731   8.138  13.201  0.00  0.00    +0.000 A 
ATOM      4  C   UNL     1      45.573   7.797  12.546  0.00  0.00    +0.000 A 
ATOM      5  C   UNL     1      45.454   6.384  12.588  0.00  0.00    +0.000 A 
ATOM      6  C   UNL     1      44.512   5.486  12.070  0.00  0.00    +0.000 A 
ATOM      7  CA  UNL     1      44.762   4.144  12.303  0.00  0.00    +0.000 A 
ATOM      8  N   UNL     1      45.837   3.645  12.987  0.00  0.00    +0.000 NA
ATOM      9  C   UNL     1      46.741   4.519  13.488  0.00  0.00    +0.000 A 
ATOM     10  C   UNL     1      46.559   5.888  13.291  0.00  0.00    +0.000 A 
BRANCH   7  11
ATOM     11  C   UNL     1      43.813   3.123  11.772  0.00  0.00    +0.000 C 
ATOM     12  O   UNL     1      43.341   3.113  10.647  0.00  0.00    +0.000 OA
BRANCH  11  13
ATOM     13  OXT UNL     1      43.542   2.189  12.719  0.00  0.00    +0.000 OA
ATOM     14  HXT UNL     1      43.799   2.559  13.598  0.00  0.00    +0.000 HD
ENDBRANCH  11  13
ENDBRANCH   7  11
ENDBRANCH   1   2
BRANCH   1  19
ATOM     15  C   UNL     1      48.981   5.680  17.826  0.00  0.00    +0.000 A 
ATOM     16  C   UNL     1      49.082   6.886  18.522  0.00  0.00    +0.000 A 
ATOM     17  C   UNL     1      48.951   8.100  17.848  0.00  0.00    +0.000 A 
ATOM     18  C   UNL     1      48.755   8.120  16.468  0.00  0.00    +0.000 A 
ATOM     19  C   UNL     1      48.695   6.922  15.741  0.00  0.00    +0.000 A 
ATOM     20  C   UNL     1      48.773   5.705  16.441  0.00  0.00    +0.000 A 
BRANCH  15  21
ATOM     21  O   UNL     1      49.090   4.430  18.382  0.00  0.00    +0.000 OA
BRANCH  21  22
ATOM     22  C   UNL     1      48.688   3.340  17.546  0.00  0.00    +0.000 C 
BRANCH  22  23
ATOM     23  C   UNL     1      49.879   2.407  17.300  0.00  0.00    +0.000 C 
BRANCH  23  24
ATOM     24  N   UNL     1      49.759   1.716  16.015  0.00  0.00    +0.000 NA
ATOM     25  H   UNL     1      48.806   1.371  15.906  0.00  0.00    +0.000 HD
ATOM     26  H   UNL     1      50.359   0.892  16.010  0.00  0.00    +0.000 HD
ENDBRANCH  23  24
ENDBRANCH  22  23
ENDBRANCH  21  22
ENDBRANCH  15  21
ENDBRANCH   1  19
TORSDOF 8
ENDMDL
MODEL 6
REMARK VINA RESULT:    -5.841      4.231      8.822
REMARK INTER + INTRA:          -8.928
REMARK INTER:                  -8.334
REMARK INTRA:                  -0.594
REMARK UNBOUND:                -0.696
REMARK  Name = 
REMARK  8 active torsions:
REMARK  status: ('A' for Active; 'I' for Inactive)
REMARK    1  A    between atoms: N_1  and  C_2
REMARK    2  A    between atoms: C_2  and  C_3
REMARK    3  A    between atoms: C_3  and  O_4
REMARK    4  A    between atoms: O_4  and  C_5
REMARK    5  A    between atoms: C_9  and  C_10
REMARK    6  A    between atoms: C_10  and  N_11
REMARK    7  A    between atoms: CA_16  and  C_17
REMARK    8  A    between atoms: C_17  and  OXT_19
REMARK                            x       y       z     vdW  Elec       q    Type
REMARK                         _______ _______ _______ _____ _____    ______ ____
ROOT
ATOM      1  C   UNL     1      48.139   4.774  17.298  0.00  0.00    +0.000 C 
ENDROOT
BRANCH   1   2
ATOM      2  N   UNL     1      49.561   4.661  17.610  0.00  0.00    +0.000 N 
ATOM      3  C   UNL     1      50.276   5.650  18.243  0.00  0.00    +0.000 A 
ATOM      4  C   UNL     1      51.516   5.149  18.563  0.00  0.00    +0.000 A 
ATOM      5  C   UNL     1      51.561   3.801  18.123  0.00  0.00    +0.000 A 
ATOM      6  C   UNL     1      52.537   2.800  18.201  0.00  0.00    +0.000 A 
ATOM      7  CA  UNL     1      52.190   1.572  17.667  0.00  0.00    +0.000 A 
ATOM      8  N   UNL     1      50.991   1.272  17.080  0.00  0.00    +0.000 NA
ATOM      9  C   UNL     1      50.053   2.246  17.004  0.00  0.00    +0.000 A 
ATOM     10  C   UNL     1      50.329   3.510  17.525  0.00  0.00    +0.000 A 
BRANCH   7  11
ATOM     11  C   UNL     1      53.172   0.448  17.724  0.00  0.00    +0.000 C 
ATOM     12  O   UNL     1      54.251   0.423  17.157  0.00  0.00    +0.000 OA
BRANCH  11  13
ATOM     13  OXT UNL     1      52.699  -0.555  18.505  0.00  0.00    +0.000 OA
ATOM     14  HXT UNL     1      51.830  -0.270  18.881  0.00  0.00    +0.000 HD
ENDBRANCH  11  13
ENDBRANCH   7  11
ENDBRANCH   1   2
BRANCH   1  19
ATOM     15  C   UNL     1      46.522   4.633  13.837  0.00  0.00    +0.000 A 
ATOM     16  C   UNL     1      47.037   5.794  13.259  0.00  0.00    +0.000 A 
ATOM     17  C   UNL     1      47.976   6.565  13.944  0.00  0.00    +0.000 A 
ATOM     18  C   UNL     1      48.380   6.202  15.228  0.00  0.00    +0.000 A 
ATOM     19  C   UNL     1      47.843   5.065  15.848  0.00  0.00    +0.000 A 
ATOM     20  C   UNL     1      46.939   4.267  15.123  0.00  0.00    +0.000 A 
BRANCH  15  21
ATOM     21  O   UNL     1      45.599   3.798  13.259  0.00  0.00    +0.000 OA
BRANCH  21  22
ATOM     22  C   UNL     1      44.342   4.395  12.926  0.00  0.00    +0.000 C 
BRANCH  22  23
ATOM     23  C   UNL     1      43.582   3.493  11.947  0.00  0.00    +0.000 C 
BRANCH  23  24
ATOM     24  N   UNL     1      43.549   2.106  12.415  0.00  0.00    +0.000 NA
ATOM     25  H   UNL     1      44.198   1.548  11.861  0.00  0.00    +0.000 HD
ATOM     26  H   UNL     1      42.625   1.709  12.251  0.00  0.00    +0.000 HD
ENDBRANCH  23  24
ENDBRANCH  22  23
ENDBRANCH  21  22
ENDBRANCH  15  21
ENDBRANCH   1  19
TORSDOF 8
ENDMDL
MODEL 7
REMARK VINA RESULT:    -5.654      2.721      8.305
REMARK INTER + INTRA:          -8.664
REMARK INTER:                  -8.056
REMARK INTRA:                  -0.608
REMARK UNBOUND:                -0.696
REMARK  Name = 
REMARK  8 active torsions:
REMARK  status: ('A' for Active; 'I' for Inactive)
REMARK    1  A    between atoms: N_1  and  C_2
REMARK    2  A    between atoms: C_2  and  C_3
REMARK    3  A    between atoms: C_3  and  O_4
REMARK    4  A    between atoms: O_4  and  C_5
REMARK    5  A    between atoms: C_9  and  C_10
REMARK    6  A    between atoms: C_10  and  N_11
REMARK    7  A    between atoms: CA_16  and  C_17
REMARK    8  A    between atoms: C_17  and  OXT_19
REMARK                            x       y       z     vdW  Elec       q    Type
REMARK                         _______ _______ _______ _____ _____    ______ ____
ROOT
ATOM      1  C   UNL     1      46.319   3.672  13.484  0.00  0.00    +0.000 C 
ENDROOT
BRANCH   1   2
ATOM      2  N   UNL     1      47.192   4.681  14.076  0.00  0.00    +0.000 N 
ATOM      3  C   UNL     1      47.605   5.810  13.406  0.00  0.00    +0.000 A 
ATOM      4  C   UNL     1      48.239   6.636  14.303  0.00  0.00    +0.000 A 
ATOM      5  C   UNL     1      48.204   6.001  15.571  0.00  0.00    +0.000 A 
ATOM      6  C   UNL     1      48.657   6.375  16.842  0.00  0.00    +0.000 A 
ATOM      7  CA  UNL     1      48.408   5.475  17.864  0.00  0.00    +0.000 A 
ATOM      8  N   UNL     1      47.767   4.274  17.724  0.00  0.00    +0.000 NA
ATOM      9  C   UNL     1      47.335   3.917  16.492  0.00  0.00    +0.000 A 
ATOM     10  C   UNL     1      47.547   4.775  15.412  0.00  0.00    +0.000 A 
BRANCH   7  11
ATOM     11  C   UNL     1      48.848   5.807  19.251  0.00  0.00    +0.000 C 
ATOM     12  O   UNL     1      48.174   6.384  20.088  0.00  0.00    +0.000 OA
BRANCH  11  13
ATOM     13  OXT UNL     1      50.115   5.370  19.464  0.00  0.00    +0.000 OA
ATOM     14  HXT UNL     1      50.130   4.391  19.330  0.00  0.00    +0.000 HD
ENDBRANCH  11  13
ENDBRANCH   7  11
ENDBRANCH   1   2
BRANCH   1  19
ATOM     15  C   UNL     1      44.082   4.504  10.498  0.00  0.00    +0.000 A 
ATOM     16  C   UNL     1      42.941   4.978  11.147  0.00  0.00    +0.000 A 
ATOM     17  C   UNL     1      42.930   5.121  12.535  0.00  0.00    +0.000 A 
ATOM     18  C   UNL     1      44.045   4.756  13.288  0.00  0.00    +0.000 A 
ATOM     19  C   UNL     1      45.187   4.235  12.661  0.00  0.00    +0.000 A 
ATOM     20  C   UNL     1      45.204   4.149  11.258  0.00  0.00    +0.000 A 
BRANCH  15  21
ATOM     21  O   UNL     1      44.210   4.325   9.143  0.00  0.00    +0.000 OA
BRANCH  21  22
ATOM     22  C   UNL     1      45.540   4.429   8.624  0.00  0.00    +0.000 C 
BRANCH  22  23
ATOM     23  C   UNL     1      45.725   3.439   7.469  0.00  0.00    +0.000 C 
BRANCH  23  24
ATOM     24  N   UNL     1      46.634   3.971   6.451  0.00  0.00    +0.000 NA
ATOM     25  H   UNL     1      46.786   4.964   6.622  0.00  0.00    +0.000 HD
ATOM     26  H   UNL     1      46.196   3.907   5.532  0.00  0.00    +0.000 HD
ENDBRANCH  23  24
ENDBRANCH  22  23
ENDBRANCH  21  22
ENDBRANCH  15  21
ENDBRANCH   1  19
TORSDOF 8
ENDMDL
MODEL 8
REMARK VINA RESULT:    -5.624      4.093      5.645
REMARK INTER + INTRA:          -8.622
REMARK INTER:                  -7.999
REMARK INTRA:                  -0.624
REMARK UNBOUND:                -0.696
REMARK  Name = 
REMARK  8 active torsions:
REMARK  status: ('A' for Active; 'I' for Inactive)
REMARK    1  A    between atoms: N_1  and  C_2
REMARK    2  A    between atoms: C_2  and  C_3
REMARK    3  A    between atoms: C_3  and  O_4
REMARK    4  A    between atoms: O_4  and  C_5
REMARK    5  A    between atoms: C_9  and  C_10
REMARK    6  A    between atoms: C_10  and  N_11
REMARK    7  A    between atoms: CA_16  and  C_17
REMARK    8  A    between atoms: C_17  and  OXT_19
REMARK                            x       y       z     vdW  Elec       q    Type
REMARK                         _______ _______ _______ _____ _____    ______ ____
ROOT
ATOM      1  C   UNL     1      47.366   8.268  12.393  0.00  0.00    +0.000 C 
ENDROOT
BRANCH   1   2
ATOM      2  N   UNL     1      47.141   6.871  12.755  0.00  0.00    +0.000 N 
ATOM      3  C   UNL     1      47.535   6.329  13.956  0.00  0.00    +0.000 A 
ATOM      4  C   UNL     1      46.998   5.068  14.056  0.00  0.00    +0.000 A 
ATOM      5  C   UNL     1      46.237   4.830  12.883  0.00  0.00    +0.000 A 
ATOM      6  C   UNL     1      45.455   3.751  12.451  0.00  0.00    +0.000 A 
ATOM      7  CA  UNL     1      44.829   3.908  11.226  0.00  0.00    +0.000 A 
ATOM      8  N   UNL     1      44.919   5.015  10.426  0.00  0.00    +0.000 NA
ATOM      9  C   UNL     1      45.679   6.052  10.848  0.00  0.00    +0.000 A 
ATOM     10  C   UNL     1      46.339   5.969  12.075  0.00  0.00    +0.000 A 
BRANCH   7  11
ATOM     11  C   UNL     1      43.966   2.809  10.702  0.00  0.00    +0.000 C 
ATOM     12  O   UNL     1      44.193   2.148   9.702  0.00  0.00    +0.000 OA
BRANCH  11  13
ATOM     13  OXT UNL     1      42.882   2.636  11.499  0.00  0.00    +0.000 OA
ATOM     14  HXT UNL     1      43.063   1.876  12.104  0.00  0.00    +0.000 HD
ENDBRANCH  11  13
ENDBRANCH   7  11
ENDBRANCH   1   2
BRANCH   1  19
ATOM     15  C   UNL     1      50.933   8.008  11.043  0.00  0.00    +0.000 A 
ATOM     16  C   UNL     1      51.371   9.324  11.201  0.00  0.00    +0.000 A 
ATOM     17  C   UNL     1      50.556  10.266  11.829  0.00  0.00    +0.000 A 
ATOM     18  C   UNL     1      49.283   9.910  12.272  0.00  0.00    +0.000 A 
ATOM     19  C   UNL     1      48.803   8.606  12.083  0.00  0.00    +0.000 A 
ATOM     20  C   UNL     1      49.657   7.653  11.498  0.00  0.00    +0.000 A 
BRANCH  15  21
ATOM     21  O   UNL     1      51.646   6.999  10.446  0.00  0.00    +0.000 OA
BRANCH  21  22
ATOM     22  C   UNL     1      52.613   7.411   9.474  0.00  0.00    +0.000 C 
BRANCH  22  23
ATOM     23  C   UNL     1      53.816   6.463   9.504  0.00  0.00    +0.000 C 
BRANCH  23  24
ATOM     24  N   UNL     1      53.571   5.318  10.383  0.00  0.00    +0.000 NA
ATOM     25  H   UNL     1      52.735   5.493  10.940  0.00  0.00    +0.000 HD
ATOM     26  H   UNL     1      54.338   5.224  11.048  0.00  0.00    +0.000 HD
ENDBRANCH  23  24
ENDBRANCH  22  23
ENDBRANCH  21  22
ENDBRANCH  15  21
ENDBRANCH   1  19
TORSDOF 8
ENDMDL
MODEL 9
REMARK VINA RESULT:    -5.504      3.320      7.408
REMARK INTER + INTRA:          -8.452
REMARK INTER:                  -7.934
REMARK INTRA:                  -0.518
REMARK UNBOUND:                -0.696
REMARK  Name = 
REMARK  8 active torsions:
REMARK  status: ('A' for Active; 'I' for Inactive)
REMARK    1  A    between atoms: N_1  and  C_2
REMARK    2  A    between atoms: C_2  and  C_3
REMARK    3  A    between atoms: C_3  and  O_4
REMARK    4  A    between atoms: O_4  and  C_5
REMARK    5  A    between atoms: C_9  and  C_10
REMARK    6  A    between atoms: C_10  and  N_11
REMARK    7  A    between atoms: CA_16  and  C_17
REMARK    8  A    between atoms: C_17  and  OXT_19
REMARK                            x       y       z     vdW  Elec       q    Type
REMARK                         _______ _______ _______ _____ _____    ______ ____
ROOT
ATOM      1  C   UNL     1      48.739   7.879  12.531  0.00  0.00    +0.000 C 
ENDROOT
BRANCH   1   2
ATOM      2  N   UNL     1      49.030   7.691  13.950  0.00  0.00    +0.000 N 
ATOM      3  C   UNL     1      49.561   8.676  14.750  0.00  0.00    +0.000 A 
ATOM      4  C   UNL     1      49.518   8.243  16.053  0.00  0.00    +0.000 A 
ATOM      5  C   UNL     1      48.929   6.952  16.058  0.00  0.00    +0.000 A 
ATOM      6  C   UNL     1      48.608   6.051  17.081  0.00  0.00    +0.000 A 
ATOM      7  CA  UNL     1      48.002   4.872  16.681  0.00  0.00    +0.000 A 
ATOM      8  N   UNL     1      47.704   4.532  15.389  0.00  0.00    +0.000 NA
ATOM      9  C   UNL     1      48.022   5.407  14.406  0.00  0.00    +0.000 A 
ATOM     10  C   UNL     1      48.631   6.618  14.732  0.00  0.00    +0.000 A 
BRANCH   7  11
ATOM     11  C   UNL     1      47.615   3.864  17.712  0.00  0.00    +0.000 C 
ATOM     12  O   UNL     1      48.261   3.590  18.710  0.00  0.00    +0.000 OA
BRANCH  11  13
ATOM     13  OXT UNL     1      46.430   3.288  17.390  0.00  0.00    +0.000 OA
ATOM     14  HXT UNL     1      46.207   3.540  16.461  0.00  0.00    +0.000 HD
ENDBRANCH  11  13
ENDBRANCH   7  11
ENDBRANCH   1   2
BRANCH   1  19
ATOM     15  C   UNL     1      45.454   6.358  11.306  0.00  0.00    +0.000 A 
ATOM     16  C   UNL     1      44.535   7.291  11.791  0.00  0.00    +0.000 A 
ATOM     17  C   UNL     1      44.978   8.452  12.423  0.00  0.00    +0.000 A 
ATOM     18  C   UNL     1      46.342   8.674  12.609  0.00  0.00    +0.000 A 
ATOM     19  C   UNL     1      47.282   7.730  12.170  0.00  0.00    +0.000 A 
ATOM     20  C   UNL     1      46.823   6.591  11.486  0.00  0.00    +0.000 A 
BRANCH  15  21
ATOM     21  O   UNL     1      45.135   5.186  10.668  0.00  0.00    +0.000 OA
BRANCH  21  22
ATOM     22  C   UNL     1      44.803   4.084  11.519  0.00  0.00    +0.000 C 
BRANCH  22  23
ATOM     23  C   UNL     1      43.316   3.743  11.370  0.00  0.00    +0.000 C 
BRANCH  23  24
ATOM     24  N   UNL     1      43.062   2.329  11.657  0.00  0.00    +0.000 NA
ATOM     25  H   UNL     1      43.710   2.010  12.376  0.00  0.00    +0.000 HD
ATOM     26  H   UNL     1      43.262   1.769  10.829  0.00  0.00    +0.000 HD
ENDBRANCH  23  24
ENDBRANCH  22  23
ENDBRANCH  21  22
ENDBRANCH  15  21
ENDBRANCH   1  19
TORSDOF 8
ENDMDL
