MODEL 1
REMARK VINA RESULT:    -8.112      0.000      0.000
REMARK INTER + INTRA:         -11.128
REMARK INTER:                 -10.483
REMARK INTRA:                  -0.645
REMARK UNBOUND:                -0.645
REMARK  Name = 
REMARK  5 active torsions:
REMARK  status: ('A' for Active; 'I' for Inactive)
REMARK    1  A    between atoms: C_2  and  C_3
REMARK    2  A    between atoms: C_6  and  N_7
REMARK    3  A    between atoms: N_7  and  C_8
REMARK    4  A    between atoms: C_8  and  C_9
REMARK    5  A    between atoms: C_13  and  N_14
REMARK                            x       y       z     vdW  Elec       q    Type
REMARK                         _______ _______ _______ _____ _____    ______ ____
ROOT
ATOM      1  C   UNL     1      43.786   5.070  11.160  0.00  0.00    +0.000 C 
ATOM      2  C   UNL     1      43.101   4.142  12.134  0.00  0.00    +0.000 C 
ATOM      3  C   UNL     1      42.381   5.366  11.679  0.00  0.00    +0.000 C 
ENDROOT
BRANCH   1   4
ATOM      4  C   UNL     1      44.911   6.010  11.575  0.00  0.00    +0.000 A 
ATOM      5  C   UNL     1      44.891   7.368  11.245  0.00  0.00    +0.000 A 
ATOM      6  C   UNL     1      45.675   8.277  11.957  0.00  0.00    +0.000 A 
ATOM      7  C   UNL     1      46.552   7.832  12.955  0.00  0.00    +0.000 A 
ATOM      8  C   UNL     1      46.712   6.471  13.227  0.00  0.00    +0.000 A 
ATOM      9  C   UNL     1      45.859   5.597  12.533  0.00  0.00    +0.000 A 
BRANCH   8  10
ATOM     10  N   UNL     1      47.581   5.979  14.175  0.00  0.00    +0.000 N 
ATOM     11  C   UNL     1      47.493   4.583  14.640  0.00  0.00    +0.000 C 
ATOM     12  C   UNL     1      47.625   4.567  16.168  0.00  0.00    +0.000 C 
ATOM     13  O   UNL     1      48.864   5.169  16.583  0.00  0.00    +0.000 OA
ATOM     14  C   UNL     1      48.941   6.533  16.127  0.00  0.00    +0.000 C 
ATOM     15  C   UNL     1      48.823   6.643  14.591  0.00  0.00    +0.000 C 
ENDBRANCH   8  10
ENDBRANCH   1   4
BRANCH   1  16
ATOM     16  N   UNL     1      43.848   4.808   9.711  0.00  0.00    +0.000 N 
ATOM     17  H   UNL     1      43.724   5.635   9.126  0.00  0.00    +0.000 HD
BRANCH  16  21
ATOM     18  C   UNL     1      46.651   2.726   7.575  0.00  0.00    +0.000 A 
ATOM     19  C   UNL     1      46.538   4.100   7.516  0.00  0.00    +0.000 A 
ATOM     20  N   UNL     1      45.647   4.791   8.264  0.00  0.00    +0.000 NA
ATOM     21  C   UNL     1      44.846   4.069   9.079  0.00  0.00    +0.000 A 
ATOM     22  C   UNL     1      44.990   2.685   9.152  0.00  0.00    +0.000 A 
ATOM     23  N   UNL     1      45.887   1.980   8.410  0.00  0.00    +0.000 NA
BRANCH  18  25
ATOM     24  N   UNL     1      48.349   1.493   6.060  0.00  0.00    +0.000 NA
ATOM     25  C   UNL     1      47.571   2.030   6.723  0.00  0.00    +0.000 C 
ENDBRANCH  18  25
ENDBRANCH  16  21
ENDBRANCH   1  16
TORSDOF 5
ENDMDL
MODEL 2
REMARK VINA RESULT:    -7.578      2.003      2.891
REMARK INTER + INTRA:         -10.438
REMARK INTER:                  -9.689
REMARK INTRA:                  -0.749
REMARK UNBOUND:                -0.645
REMARK  Name = 
REMARK  5 active torsions:
REMARK  status: ('A' for Active; 'I' for Inactive)
REMARK    1  A    between atoms: C_2  and  C_3
REMARK    2  A    between atoms: C_6  and  N_7
REMARK    3  A    between atoms: N_7  and  C_8
REMARK    4  A    between atoms: C_8  and  C_9
REMARK    5  A    between atoms: C_13  and  N_14
REMARK                            x       y       z     vdW  Elec       q    Type
REMARK                         _______ _______ _______ _____ _____    ______ ____
ROOT
ATOM      1  C   UNL     1      43.966   4.938  11.313  0.00  0.00    +0.000 C 
ATOM      2  C   UNL     1      42.895   3.961  11.733  0.00  0.00    +0.000 C 
ATOM      3  C   UNL     1      42.559   5.411  11.668  0.00  0.00    +0.000 C 
ENDROOT
BRANCH   1   4
ATOM      4  C   UNL     1      45.109   5.349  12.233  0.00  0.00    +0.000 A 
ATOM      5  C   UNL     1      45.629   4.474  13.192  0.00  0.00    +0.000 A 
ATOM      6  C   UNL     1      46.901   4.689  13.724  0.00  0.00    +0.000 A 
ATOM      7  C   UNL     1      47.640   5.824  13.367  0.00  0.00    +0.000 A 
ATOM      8  C   UNL     1      47.108   6.800  12.521  0.00  0.00    +0.000 A 
ATOM      9  C   UNL     1      45.853   6.515  11.959  0.00  0.00    +0.000 A 
BRANCH   8  10
ATOM     10  N   UNL     1      47.779   7.949  12.163  0.00  0.00    +0.000 N 
ATOM     11  C   UNL     1      49.065   7.889  11.445  0.00  0.00    +0.000 C 
ATOM     12  C   UNL     1      50.031   8.893  12.087  0.00  0.00    +0.000 C 
ATOM     13  O   UNL     1      49.486  10.224  12.054  0.00  0.00    +0.000 OA
ATOM     14  C   UNL     1      48.232  10.273  12.760  0.00  0.00    +0.000 C 
ATOM     15  C   UNL     1      47.192   9.294  12.174  0.00  0.00    +0.000 C 
ENDBRANCH   8  10
ENDBRANCH   1   4
BRANCH   1  16
ATOM     16  N   UNL     1      44.339   5.163   9.906  0.00  0.00    +0.000 N 
ATOM     17  H   UNL     1      44.637   6.116   9.694  0.00  0.00    +0.000 HD
BRANCH  16  21
ATOM     18  C   UNL     1      46.733   2.895   7.481  0.00  0.00    +0.000 A 
ATOM     19  C   UNL     1      46.809   4.272   7.525  0.00  0.00    +0.000 A 
ATOM     20  N   UNL     1      46.054   5.017   8.367  0.00  0.00    +0.000 NA
ATOM     21  C   UNL     1      45.197   4.347   9.170  0.00  0.00    +0.000 A 
ATOM     22  C   UNL     1      45.152   2.955   9.137  0.00  0.00    +0.000 A 
ATOM     23  N   UNL     1      45.910   2.196   8.301  0.00  0.00    +0.000 NA
BRANCH  18  25
ATOM     24  N   UNL     1      48.170   1.541   5.807  0.00  0.00    +0.000 NA
ATOM     25  C   UNL     1      47.511   2.150   6.533  0.00  0.00    +0.000 C 
ENDBRANCH  18  25
ENDBRANCH  16  21
ENDBRANCH   1  16
TORSDOF 5
ENDMDL
MODEL 3
REMARK VINA RESULT:    -7.359      1.111      1.570
REMARK INTER + INTRA:         -10.155
REMARK INTER:                  -9.544
REMARK INTRA:                  -0.610
REMARK UNBOUND:                -0.645
REMARK  Name = 
REMARK  5 active torsions:
REMARK  status: ('A' for Active; 'I' for Inactive)
REMARK    1  A    between atoms: C_2  and  C_3
REMARK    2  A    between atoms: C_6  and  N_7
REMARK    3  A    between atoms: N_7  and  C_8
REMARK    4  A    between atoms: C_8  and  C_9
REMARK    5  A    between atoms: C_13  and  N_14
REMARK                            x       y       z     vdW  Elec       q    Type
REMARK                         _______ _______ _______ _____ _____    ______ ____
ROOT
ATOM      1  C   UNL     1      44.404   4.374  11.702  0.00  0.00    +0.000 C 
ATOM      2  C   UNL     1      44.531   3.258  12.710  0.00  0.00    +0.000 C 
ATOM      3  C   UNL     1      43.309   4.112  12.732  0.00  0.00    +0.000 C 
ENDROOT
BRANCH   1   4
ATOM      4  C   UNL     1      45.191   5.674  11.814  0.00  0.00    +0.000 A 
ATOM      5  C   UNL     1      44.640   6.901  11.430  0.00  0.00    +0.000 A 
ATOM      6  C   UNL     1      45.180   8.095  11.908  0.00  0.00    +0.000 A 
ATOM      7  C   UNL     1      46.327   8.087  12.711  0.00  0.00    +0.000 A 
ATOM      8  C   UNL     1      46.997   6.898  13.008  0.00  0.00    +0.000 A 
ATOM      9  C   UNL     1      46.386   5.715  12.561  0.00  0.00    +0.000 A 
BRANCH   8  10
ATOM     10  N   UNL     1      48.145   6.837  13.766  0.00  0.00    +0.000 N 
ATOM     11  C   UNL     1      48.233   5.962  14.949  0.00  0.00    +0.000 C 
ATOM     12  C   UNL     1      48.889   6.749  16.092  0.00  0.00    +0.000 C 
ATOM     13  O   UNL     1      50.191   7.223  15.707  0.00  0.00    +0.000 OA
ATOM     14  C   UNL     1      50.096   8.079  14.552  0.00  0.00    +0.000 C 
ATOM     15  C   UNL     1      49.450   7.363  13.346  0.00  0.00    +0.000 C 
ENDBRANCH   8  10
ENDBRANCH   1   4
BRANCH   1  16
ATOM     16  N   UNL     1      43.984   4.152  10.307  0.00  0.00    +0.000 N 
ATOM     17  H   UNL     1      43.484   4.936   9.886  0.00  0.00    +0.000 HD
BRANCH  16  21
ATOM     18  C   UNL     1      46.600   2.612   7.562  0.00  0.00    +0.000 A 
ATOM     19  C   UNL     1      45.871   1.818   8.424  0.00  0.00    +0.000 A 
ATOM     20  N   UNL     1      44.967   2.325   9.294  0.00  0.00    +0.000 NA
ATOM     21  C   UNL     1      44.810   3.668   9.295  0.00  0.00    +0.000 A 
ATOM     22  C   UNL     1      45.530   4.456   8.399  0.00  0.00    +0.000 A 
ATOM     23  N   UNL     1      46.436   3.957   7.515  0.00  0.00    +0.000 NA
BRANCH  18  25
ATOM     24  N   UNL     1      48.347   1.555   5.971  0.00  0.00    +0.000 NA
ATOM     25  C   UNL     1      47.588   2.036   6.696  0.00  0.00    +0.000 C 
ENDBRANCH  18  25
ENDBRANCH  16  21
ENDBRANCH   1  16
TORSDOF 5
ENDMDL
MODEL 4
REMARK VINA RESULT:    -6.972      3.235      4.910
REMARK INTER + INTRA:          -9.655
REMARK INTER:                  -9.004
REMARK INTRA:                  -0.651
REMARK UNBOUND:                -0.645
REMARK  Name = 
REMARK  5 active torsions:
REMARK  status: ('A' for Active; 'I' for Inactive)
REMARK    1  A    between atoms: C_2  and  C_3
REMARK    2  A    between atoms: C_6  and  N_7
REMARK    3  A    between atoms: N_7  and  C_8
REMARK    4  A    between atoms: C_8  and  C_9
REMARK    5  A    between atoms: C_13  and  N_14
REMARK                            x       y       z     vdW  Elec       q    Type
REMARK                         _______ _______ _______ _____ _____    ______ ____
ROOT
ATOM      1  C   UNL     1      44.371   4.989  11.662  0.00  0.00    +0.000 C 
ATOM      2  C   UNL     1      44.802   3.793  12.476  0.00  0.00    +0.000 C 
ATOM      3  C   UNL     1      43.387   4.254  12.568  0.00  0.00    +0.000 C 
ENDROOT
BRANCH   1   4
ATOM      4  C   UNL     1      44.754   6.416  12.034  0.00  0.00    +0.000 A 
ATOM      5  C   UNL     1      45.931   6.701  12.733  0.00  0.00    +0.000 A 
ATOM      6  C   UNL     1      46.472   7.987  12.705  0.00  0.00    +0.000 A 
ATOM      7  C   UNL     1      45.804   9.026  12.046  0.00  0.00    +0.000 A 
ATOM      8  C   UNL     1      44.556   8.825  11.451  0.00  0.00    +0.000 A 
ATOM      9  C   UNL     1      44.078   7.505  11.447  0.00  0.00    +0.000 A 
BRANCH   8  10
ATOM     10  N   UNL     1      43.844   9.819  10.817  0.00  0.00    +0.000 N 
ATOM     11  C   UNL     1      42.581  10.330  11.381  0.00  0.00    +0.000 C 
ATOM     12  C   UNL     1      41.554  10.453  10.248  0.00  0.00    +0.000 C 
ATOM     13  O   UNL     1      42.039  11.319   9.207  0.00  0.00    +0.000 OA
ATOM     14  C   UNL     1      43.270  10.811   8.660  0.00  0.00    +0.000 C 
ATOM     15  C   UNL     1      44.369  10.661   9.735  0.00  0.00    +0.000 C 
ENDBRANCH   8  10
ENDBRANCH   1   4
BRANCH   1  16
ATOM     16  N   UNL     1      44.045   4.907  10.227  0.00  0.00    +0.000 N 
ATOM     17  H   UNL     1      43.775   5.796   9.804  0.00  0.00    +0.000 HD
BRANCH  16  21
ATOM     18  C   UNL     1      46.500   2.896   7.643  0.00  0.00    +0.000 A 
ATOM     19  C   UNL     1      45.548   2.260   8.412  0.00  0.00    +0.000 A 
ATOM     20  N   UNL     1      44.701   2.933   9.226  0.00  0.00    +0.000 NA
ATOM     21  C   UNL     1      44.833   4.278   9.267  0.00  0.00    +0.000 A 
ATOM     22  C   UNL     1      45.780   4.910   8.462  0.00  0.00    +0.000 A 
ATOM     23  N   UNL     1      46.632   4.245   7.636  0.00  0.00    +0.000 NA
BRANCH  18  25
ATOM     24  N   UNL     1      48.190   1.556   6.211  0.00  0.00    +0.000 NA
ATOM     25  C   UNL     1      47.415   2.139   6.838  0.00  0.00    +0.000 C 
ENDBRANCH  18  25
ENDBRANCH  16  21
ENDBRANCH   1  16
TORSDOF 5
ENDMDL
MODEL 5
REMARK VINA RESULT:    -6.598      3.124      7.295
REMARK INTER + INTRA:          -9.172
REMARK INTER:                  -8.587
REMARK INTRA:                  -0.585
REMARK UNBOUND:                -0.645
REMARK  Name = 
REMARK  5 active torsions:
REMARK  status: ('A' for Active; 'I' for Inactive)
REMARK    1  A    between atoms: C_2  and  C_3
REMARK    2  A    between atoms: C_6  and  N_7
REMARK    3  A    between atoms: N_7  and  C_8
REMARK    4  A    between atoms: C_8  and  C_9
REMARK    5  A    between atoms: C_13  and  N_14
REMARK                            x       y       z     vdW  Elec       q    Type
REMARK                         _______ _______ _______ _____ _____    ______ ____
ROOT
ATOM      1  C   UNL     1      46.669   5.488  13.609  0.00  0.00    +0.000 C 
ATOM      2  C   UNL     1      47.916   5.981  12.915  0.00  0.00    +0.000 C 
ATOM      3  C   UNL     1      46.902   6.977  13.364  0.00  0.00    +0.000 C 
ENDROOT
BRANCH   1   4
ATOM      4  C   UNL     1      45.526   4.813  12.862  0.00  0.00    +0.000 A 
ATOM      5  C   UNL     1      44.198   4.947  13.278  0.00  0.00    +0.000 A 
ATOM      6  C   UNL     1      43.153   4.692  12.389  0.00  0.00    +0.000 A 
ATOM      7  C   UNL     1      43.416   4.221  11.097  0.00  0.00    +0.000 A 
ATOM      8  C   UNL     1      44.718   3.938  10.678  0.00  0.00    +0.000 A 
ATOM      9  C   UNL     1      45.743   4.268  11.579  0.00  0.00    +0.000 A 
BRANCH   8  10
ATOM     10  N   UNL     1      45.029   3.446   9.430  0.00  0.00    +0.000 N 
ATOM     11  C   UNL     1      44.811   2.027   9.094  0.00  0.00    +0.000 C 
ATOM     12  C   UNL     1      46.046   1.506   8.348  0.00  0.00    +0.000 C 
ATOM     13  O   UNL     1      46.296   2.281   7.163  0.00  0.00    +0.000 OA
ATOM     14  C   UNL     1      46.511   3.665   7.501  0.00  0.00    +0.000 C 
ATOM     15  C   UNL     1      45.308   4.276   8.252  0.00  0.00    +0.000 C 
ENDBRANCH   8  10
ENDBRANCH   1   4
BRANCH   1  16
ATOM     16  N   UNL     1      46.641   5.110  15.033  0.00  0.00    +0.000 N 
ATOM     17  H   UNL     1      45.724   4.818  15.375  0.00  0.00    +0.000 HD
BRANCH  16  21
ATOM     18  C   UNL     1      49.528   2.742  16.709  0.00  0.00    +0.000 A 
ATOM     19  C   UNL     1      49.345   4.061  17.068  0.00  0.00    +0.000 A 
ATOM     20  N   UNL     1      48.356   4.827  16.553  0.00  0.00    +0.000 NA
ATOM     21  C   UNL     1      47.544   4.242  15.643  0.00  0.00    +0.000 A 
ATOM     22  C   UNL     1      47.721   2.900  15.311  0.00  0.00    +0.000 A 
ATOM     23  N   UNL     1      48.707   2.119  15.828  0.00  0.00    +0.000 NA
BRANCH  18  25
ATOM     24  N   UNL     1      51.478   1.359  17.701  0.00  0.00    +0.000 NA
ATOM     25  C   UNL     1      50.625   1.985  17.238  0.00  0.00    +0.000 C 
ENDBRANCH  18  25
ENDBRANCH  16  21
ENDBRANCH   1  16
TORSDOF 5
ENDMDL
MODEL 6
REMARK VINA RESULT:    -6.078      3.439      7.384
REMARK INTER + INTRA:          -8.500
REMARK INTER:                  -8.267
REMARK INTRA:                  -0.233
REMARK UNBOUND:                -0.645
REMARK  Name = 
REMARK  5 active torsions:
REMARK  status: ('A' for Active; 'I' for Inactive)
REMARK    1  A    between atoms: C_2  and  C_3
REMARK    2  A    between atoms: C_6  and  N_7
REMARK    3  A    between atoms: N_7  and  C_8
REMARK    4  A    between atoms: C_8  and  C_9
REMARK    5  A    between atoms: C_13  and  N_14
REMARK                            x       y       z     vdW  Elec       q    Type
REMARK                         _______ _______ _______ _____ _____    ______ ____
ROOT
ATOM      1  C   UNL     1      48.593   6.897  15.253  0.00  0.00    +0.000 C 
ATOM      2  C   UNL     1      50.014   7.384  15.395  0.00  0.00    +0.000 C 
ATOM      3  C   UNL     1      48.911   8.208  15.966  0.00  0.00    +0.000 C 
ENDROOT
BRANCH   1   4
ATOM      4  C   UNL     1      47.828   6.968  13.937  0.00  0.00    +0.000 A 
ATOM      5  C   UNL     1      48.350   7.629  12.821  0.00  0.00    +0.000 A 
ATOM      6  C   UNL     1      47.864   7.345  11.544  0.00  0.00    +0.000 A 
ATOM      7  C   UNL     1      46.795   6.457  11.371  0.00  0.00    +0.000 A 
ATOM      8  C   UNL     1      46.147   5.877  12.464  0.00  0.00    +0.000 A 
ATOM      9  C   UNL     1      46.707   6.139  13.725  0.00  0.00    +0.000 A 
BRANCH   8  10
ATOM     10  N   UNL     1      45.073   5.023  12.350  0.00  0.00    +0.000 N 
ATOM     11  C   UNL     1      45.267   3.578  12.132  0.00  0.00    +0.000 C 
ATOM     12  C   UNL     1      44.289   3.112  11.045  0.00  0.00    +0.000 C 
ATOM     13  O   UNL     1      42.930   3.396  11.421  0.00  0.00    +0.000 OA
ATOM     14  C   UNL     1      42.749   4.810  11.629  0.00  0.00    +0.000 C 
ATOM     15  C   UNL     1      43.693   5.366  12.718  0.00  0.00    +0.000 C 
ENDBRANCH   8  10
ENDBRANCH   1   4
BRANCH   1  16
ATOM     16  N   UNL     1      48.008   5.864  16.126  0.00  0.00    +0.000 N 
ATOM     17  H   UNL     1      47.080   5.547  15.843  0.00  0.00    +0.000 HD
BRANCH  16  21
ATOM     18  C   UNL     1      50.194   2.568  17.182  0.00  0.00    +0.000 A 
ATOM     19  C   UNL     1      50.577   3.853  17.508  0.00  0.00    +0.000 A 
ATOM     20  N   UNL     1      49.826   4.937  17.206  0.00  0.00    +0.000 NA
ATOM     21  C   UNL     1      48.668   4.711  16.547  0.00  0.00    +0.000 A 
ATOM     22  C   UNL     1      48.278   3.407  16.249  0.00  0.00    +0.000 A 
ATOM     23  N   UNL     1      49.020   2.309  16.554  0.00  0.00    +0.000 NA
BRANCH  18  25
ATOM     24  N   UNL     1      51.768   0.588  17.728  0.00  0.00    +0.000 NA
ATOM     25  C   UNL     1      51.048   1.454  17.472  0.00  0.00    +0.000 C 
ENDBRANCH  18  25
ENDBRANCH  16  21
ENDBRANCH   1  16
TORSDOF 5
ENDMDL
MODEL 7
REMARK VINA RESULT:    -6.026      2.921      6.941
REMARK INTER + INTRA:          -8.433
REMARK INTER:                  -8.533
REMARK INTRA:                   0.100
REMARK UNBOUND:                -0.645
REMARK  Name = 
REMARK  5 active torsions:
REMARK  status: ('A' for Active; 'I' for Inactive)
REMARK    1  A    between atoms: C_2  and  C_3
REMARK    2  A    between atoms: C_6  and  N_7
REMARK    3  A    between atoms: N_7  and  C_8
REMARK    4  A    between atoms: C_8  and  C_9
REMARK    5  A    between atoms: C_13  and  N_14
REMARK                            x       y       z     vdW  Elec       q    Type
REMARK                         _______ _______ _______ _____ _____    ______ ____
ROOT
ATOM      1  C   UNL     1      48.535   7.857  12.605  0.00  0.00    +0.000 C 
ATOM      2  C   UNL     1      49.498   7.428  11.523  0.00  0.00    +0.000 C 
ATOM      3  C   UNL     1      49.368   8.880  11.836  0.00  0.00    +0.000 C 
ENDROOT
BRANCH   1   4
ATOM      4  C   UNL     1      47.025   7.870  12.401  0.00  0.00    +0.000 A 
ATOM      5  C   UNL     1      46.292   9.060  12.425  0.00  0.00    +0.000 A 
ATOM      6  C   UNL     1      45.026   9.118  11.842  0.00  0.00    +0.000 A 
ATOM      7  C   UNL     1      44.439   7.969  11.298  0.00  0.00    +0.000 A 
ATOM      8  C   UNL     1      45.071   6.726  11.373  0.00  0.00    +0.000 A 
ATOM      9  C   UNL     1      46.368   6.722  11.910  0.00  0.00    +0.000 A 
BRANCH   8  10
ATOM     10  N   UNL     1      44.525   5.560  10.882  0.00  0.00    +0.000 N 
ATOM     11  C   UNL     1      43.146   5.162  11.221  0.00  0.00    +0.000 C 
ATOM     12  C   UNL     1      43.141   3.668  11.571  0.00  0.00    +0.000 C 
ATOM     13  O   UNL     1      43.648   2.883  10.478  0.00  0.00    +0.000 OA
ATOM     14  C   UNL     1      44.996   3.276  10.156  0.00  0.00    +0.000 C 
ATOM     15  C   UNL     1      45.094   4.772   9.783  0.00  0.00    +0.000 C 
ENDBRANCH   8  10
ENDBRANCH   1   4
BRANCH   1  16
ATOM     16  N   UNL     1      48.855   7.777  14.040  0.00  0.00    +0.000 N 
ATOM     17  H   UNL     1      48.574   8.595  14.582  0.00  0.00    +0.000 HD
BRANCH  16  21
ATOM     18  C   UNL     1      47.704   4.618  16.374  0.00  0.00    +0.000 A 
ATOM     19  C   UNL     1      47.539   4.632  15.005  0.00  0.00    +0.000 A 
ATOM     20  N   UNL     1      47.969   5.653  14.229  0.00  0.00    +0.000 NA
ATOM     21  C   UNL     1      48.568   6.688  14.860  0.00  0.00    +0.000 A 
ATOM     22  C   UNL     1      48.756   6.648  16.241  0.00  0.00    +0.000 A 
ATOM     23  N   UNL     1      48.334   5.624  17.030  0.00  0.00    +0.000 NA
BRANCH  18  25
ATOM     24  N   UNL     1      46.770   2.642  17.760  0.00  0.00    +0.000 NA
ATOM     25  C   UNL     1      47.182   3.540  17.164  0.00  0.00    +0.000 C 
ENDBRANCH  18  25
ENDBRANCH  16  21
ENDBRANCH   1  16
TORSDOF 5
ENDMDL
MODEL 8
REMARK VINA RESULT:    -5.812      3.157      7.311
REMARK INTER + INTRA:          -8.155
REMARK INTER:                  -7.768
REMARK INTRA:                  -0.387
REMARK UNBOUND:                -0.645
REMARK  Name = 
REMARK  5 active torsions:
REMARK  status: ('A' for Active; 'I' for Inactive)
REMARK    1  A    between atoms: C_2  and  C_3
REMARK    2  A    between atoms: C_6  and  N_7
REMARK    3  A    between atoms: N_7  and  C_8
REMARK    4  A    between atoms: C_8  and  C_9
REMARK    5  A    between atoms: C_13  and  N_14
REMARK                            x       y       z     vdW  Elec       q    Type
REMARK                         _______ _______ _______ _____ _____    ______ ____
ROOT
ATOM      1  C   UNL     1      47.995   7.555  13.329  0.00  0.00    +0.000 C 
ATOM      2  C   UNL     1      49.065   6.895  12.493  0.00  0.00    +0.000 C 
ATOM      3  C   UNL     1      49.028   8.383  12.570  0.00  0.00    +0.000 C 
ENDROOT
BRANCH   1   4
ATOM      4  C   UNL     1      46.541   7.644  12.880  0.00  0.00    +0.000 A 
ATOM      5  C   UNL     1      45.951   8.867  12.546  0.00  0.00    +0.000 A 
ATOM      6  C   UNL     1      44.797   8.900  11.761  0.00  0.00    +0.000 A 
ATOM      7  C   UNL     1      44.171   7.712  11.366  0.00  0.00    +0.000 A 
ATOM      8  C   UNL     1      44.641   6.467  11.789  0.00  0.00    +0.000 A 
ATOM      9  C   UNL     1      45.838   6.474  12.523  0.00  0.00    +0.000 A 
BRANCH   8  10
ATOM     10  N   UNL     1      44.045   5.271  11.455  0.00  0.00    +0.000 N 
ATOM     11  C   UNL     1      43.186   4.552  12.414  0.00  0.00    +0.000 C 
ATOM     12  C   UNL     1      43.555   3.063  12.380  0.00  0.00    +0.000 C 
ATOM     13  O   UNL     1      43.405   2.527  11.054  0.00  0.00    +0.000 OA
ATOM     14  C   UNL     1      44.249   3.232  10.125  0.00  0.00    +0.000 C 
ATOM     15  C   UNL     1      43.941   4.745  10.088  0.00  0.00    +0.000 C 
ENDBRANCH   8  10
ENDBRANCH   1   4
BRANCH   1  16
ATOM     16  N   UNL     1      48.084   7.677  14.794  0.00  0.00    +0.000 N 
ATOM     17  H   UNL     1      47.193   7.859  15.258  0.00  0.00    +0.000 HD
BRANCH  16  21
ATOM     18  C   UNL     1      50.258   5.021  17.024  0.00  0.00    +0.000 A 
ATOM     19  C   UNL     1      50.720   6.283  16.709  0.00  0.00    +0.000 A 
ATOM     20  N   UNL     1      49.977   7.179  16.017  0.00  0.00    +0.000 NA
ATOM     21  C   UNL     1      48.746   6.779  15.629  0.00  0.00    +0.000 A 
ATOM     22  C   UNL     1      48.280   5.513  15.979  0.00  0.00    +0.000 A 
ATOM     23  N   UNL     1      49.014   4.607  16.679  0.00  0.00    +0.000 NA
BRANCH  18  25
ATOM     24  N   UNL     1      51.766   3.295  18.226  0.00  0.00    +0.000 NA
ATOM     25  C   UNL     1      51.100   4.084  17.709  0.00  0.00    +0.000 C 
ENDBRANCH  18  25
ENDBRANCH  16  21
ENDBRANCH   1  16
TORSDOF 5
ENDMDL
MODEL 9
REMARK VINA RESULT:    -5.657      3.202      5.034
REMARK INTER + INTRA:          -7.956
REMARK INTER:                  -7.946
REMARK INTRA:                  -0.010
REMARK UNBOUND:                -0.645
REMARK  Name = 
REMARK  5 active torsions:
REMARK  status: ('A' for Active; 'I' for Inactive)
REMARK    1  A    between atoms: C_2  and  C_3
REMARK    2  A    between atoms: C_6  and  N_7
REMARK    3  A    between atoms: N_7  and  C_8
REMARK    4  A    between atoms: C_8  and  C_9
REMARK    5  A    between atoms: C_13  and  N_14
REMARK                            x       y       z     vdW  Elec       q    Type
REMARK                         _______ _______ _______ _____ _____    ______ ____
ROOT
ATOM      1  C   UNL     1      47.736   7.984  13.153  0.00  0.00    +0.000 C 
ATOM      2  C   UNL     1      48.283   8.810  12.014  0.00  0.00    +0.000 C 
ATOM      3  C   UNL     1      48.429   7.327  11.961  0.00  0.00    +0.000 C 
ENDROOT
BRANCH   1   4
ATOM      4  C   UNL     1      48.423   7.902  14.510  0.00  0.00    +0.000 A 
ATOM      5  C   UNL     1      48.695   9.047  15.265  0.00  0.00    +0.000 A 
ATOM      6  C   UNL     1      48.929   8.946  16.637  0.00  0.00    +0.000 A 
ATOM      7  C   UNL     1      48.975   7.694  17.261  0.00  0.00    +0.000 A 
ATOM      8  C   UNL     1      48.848   6.512  16.528  0.00  0.00    +0.000 A 
ATOM      9  C   UNL     1      48.552   6.658  15.164  0.00  0.00    +0.000 A 
BRANCH   8  10
ATOM     10  N   UNL     1      48.917   5.255  17.088  0.00  0.00    +0.000 N 
ATOM     11  C   UNL     1      50.078   4.842  17.896  0.00  0.00    +0.000 C 
ATOM     12  C   UNL     1      50.490   3.426  17.474  0.00  0.00    +0.000 C 
ATOM     13  O   UNL     1      49.398   2.503  17.636  0.00  0.00    +0.000 OA
ATOM     14  C   UNL     1      48.269   2.913  16.840  0.00  0.00    +0.000 C 
ATOM     15  C   UNL     1      47.781   4.332  17.205  0.00  0.00    +0.000 C 
ENDBRANCH   8  10
ENDBRANCH   1   4
BRANCH   1  16
ATOM     16  N   UNL     1      46.309   7.641  13.282  0.00  0.00    +0.000 N 
ATOM     17  H   UNL     1      45.669   8.361  12.943  0.00  0.00    +0.000 HD
BRANCH  16  21
ATOM     18  C   UNL     1      44.351   4.239  12.124  0.00  0.00    +0.000 A 
ATOM     19  C   UNL     1      44.300   5.411  11.399  0.00  0.00    +0.000 A 
ATOM     20  N   UNL     1      44.991   6.519  11.754  0.00  0.00    +0.000 NA
ATOM     21  C   UNL     1      45.740   6.436  12.877  0.00  0.00    +0.000 A 
ATOM     22  C   UNL     1      45.806   5.237  13.584  0.00  0.00    +0.000 A 
ATOM     23  N   UNL     1      45.122   4.115  13.233  0.00  0.00    +0.000 NA
BRANCH  18  25
ATOM     24  N   UNL     1      42.958   2.166  11.446  0.00  0.00    +0.000 NA
ATOM     25  C   UNL     1      43.557   3.107  11.742  0.00  0.00    +0.000 C 
ENDBRANCH  18  25
ENDBRANCH  16  21
ENDBRANCH   1  16
TORSDOF 5
ENDMDL
