MODEL 1
REMARK VINA RESULT:    -8.115      0.000      0.000
REMARK INTER + INTRA:         -12.096
REMARK INTER:                 -10.962
REMARK INTRA:                  -1.134
REMARK UNBOUND:                -1.134
REMARK  Name = 
REMARK  6 active torsions:
REMARK  status: ('A' for Active; 'I' for Inactive)
REMARK    1  A    between atoms: C_2  and  C_25
REMARK    2  A    between atoms: N_3  and  C_4
REMARK    3  A    between atoms: C_4  and  C_5
REMARK    4  A    between atoms: C_8  and  C_9
REMARK    5  A    between atoms: C_9  and  N_10
REMARK    6  A    between atoms: C_11  and  C_13
REMARK                            x       y       z     vdW  Elec       q    Type
REMARK                         _______ _______ _______ _____ _____    ______ ____
ROOT
ATOM      1  C   UNL     1      44.969   5.908  10.940  0.00  0.00    +0.000 A 
ATOM      2  C   UNL     1      44.338   6.623  11.967  0.00  0.00    +0.000 A 
ATOM      3  C   UNL     1      45.082   7.416  12.849  0.00  0.00    +0.000 A 
ATOM      4  C   UNL     1      46.472   7.529  12.709  0.00  0.00    +0.000 A 
ATOM      5  C   UNL     1      47.102   6.811  11.684  0.00  0.00    +0.000 A 
ATOM      6  C   UNL     1      46.360   6.019  10.803  0.00  0.00    +0.000 A 
ENDROOT
BRANCH   1   7
ATOM      7  C   UNL     1      44.179   5.004  10.032  0.00  0.00    +0.000 C 
BRANCH   7  10
ATOM      8  O   UNL     1      44.446   2.211   9.972  0.00  0.00    +0.000 OA
ATOM      9  C   UNL     1      45.042   2.902   9.157  0.00  0.00    +0.000 C 
ATOM     10  N   UNL     1      44.991   4.276   9.091  0.00  0.00    +0.000 N 
ATOM     11  H   UNL     1      45.520   4.749   8.364  0.00  0.00    +0.000 HD
BRANCH   9  12
ATOM     12  C   UNL     1      45.912   2.238   8.125  0.00  0.00    +0.000 C 
ATOM     13  C   UNL     1      46.389   2.945   6.927  0.00  0.00    +0.000 C 
ATOM     14  C   UNL     1      47.184   1.965   6.261  0.00  0.00    +0.000 C 
ATOM     15  C   UNL     1      47.119   0.869   7.033  0.00  0.00    +0.000 C 
ATOM     16  N   UNL     1      46.347   0.999   8.181  0.00  0.00    +0.000 NA
ENDBRANCH   9  12
ENDBRANCH   7  10
ENDBRANCH   1   7
BRANCH   4  17
ATOM     17  C   UNL     1      47.284   8.365  13.665  0.00  0.00    +0.000 C 
BRANCH  17  18
ATOM     18  N   UNL     1      47.674   7.601  14.825  0.00  0.00    +0.000 N 
ATOM     19  C   UNL     1      48.886   6.962  14.884  0.00  0.00    +0.000 C 
ATOM     20  O   UNL     1      49.717   7.053  13.984  0.00  0.00    +0.000 OA
ATOM     21  H   UNL     1      46.935   7.330  15.464  0.00  0.00    +0.000 HD
BRANCH  19  22
ATOM     22  C   UNL     1      49.167   6.202  16.111  0.00  0.00    +0.000 A 
ATOM     23  C   UNL     1      50.235   6.571  16.920  0.00  0.00    +0.000 A 
ATOM     24  S   UNL     1      50.389   5.620  18.328  0.00  0.00    +0.000 S 
ATOM     25  C   UNL     1      49.067   4.647  17.881  0.00  0.00    +0.000 A 
ATOM     26  N   UNL     1      48.673   3.604  18.659  0.00  0.00    +0.000 NA
ATOM     27  C   UNL     1      47.677   2.933  18.187  0.00  0.00    +0.000 A 
ATOM     28  N   UNL     1      47.036   3.211  17.009  0.00  0.00    +0.000 N 
ATOM     29  C   UNL     1      47.382   4.270  16.202  0.00  0.00    +0.000 A 
ATOM     30  O   UNL     1      46.764   4.514  15.172  0.00  0.00    +0.000 OA
ATOM     31  C   UNL     1      48.504   5.053  16.684  0.00  0.00    +0.000 A 
ATOM     32  H   UNL     1      46.256   2.651  16.698  0.00  0.00    +0.000 HD
ENDBRANCH  19  22
ENDBRANCH  17  18
ENDBRANCH   4  17
TORSDOF 6
ENDMDL
MODEL 2
REMARK VINA RESULT:    -7.168      2.027      2.259
REMARK INTER + INTRA:         -10.817
REMARK INTER:                  -9.895
REMARK INTRA:                  -0.922
REMARK UNBOUND:                -1.134
REMARK  Name = 
REMARK  6 active torsions:
REMARK  status: ('A' for Active; 'I' for Inactive)
REMARK    1  A    between atoms: C_2  and  C_25
REMARK    2  A    between atoms: N_3  and  C_4
REMARK    3  A    between atoms: C_4  and  C_5
REMARK    4  A    between atoms: C_8  and  C_9
REMARK    5  A    between atoms: C_9  and  N_10
REMARK    6  A    between atoms: C_11  and  C_13
REMARK                            x       y       z     vdW  Elec       q    Type
REMARK                         _______ _______ _______ _____ _____    ______ ____
ROOT
ATOM      1  C   UNL     1      45.362   5.759  11.667  0.00  0.00    +0.000 A 
ATOM      2  C   UNL     1      46.111   4.980  12.560  0.00  0.00    +0.000 A 
ATOM      3  C   UNL     1      47.090   5.565  13.372  0.00  0.00    +0.000 A 
ATOM      4  C   UNL     1      47.326   6.946  13.325  0.00  0.00    +0.000 A 
ATOM      5  C   UNL     1      46.579   7.723  12.430  0.00  0.00    +0.000 A 
ATOM      6  C   UNL     1      45.601   7.140  11.619  0.00  0.00    +0.000 A 
ENDROOT
BRANCH   1   7
ATOM      7  C   UNL     1      44.356   5.123  10.746  0.00  0.00    +0.000 C 
BRANCH   7  10
ATOM      8  O   UNL     1      45.835   5.189   8.362  0.00  0.00    +0.000 OA
ATOM      9  C   UNL     1      45.572   4.117   8.893  0.00  0.00    +0.000 C 
ATOM     10  N   UNL     1      44.854   3.961  10.057  0.00  0.00    +0.000 N 
ATOM     11  H   UNL     1      44.703   3.022  10.414  0.00  0.00    +0.000 HD
BRANCH   9  12
ATOM     12  C   UNL     1      46.054   2.843   8.254  0.00  0.00    +0.000 C 
ATOM     13  C   UNL     1      46.861   2.838   7.025  0.00  0.00    +0.000 C 
ATOM     14  C   UNL     1      47.111   1.451   6.802  0.00  0.00    +0.000 C 
ATOM     15  C   UNL     1      46.493   0.811   7.807  0.00  0.00    +0.000 C 
ATOM     16  N   UNL     1      45.834   1.632   8.713  0.00  0.00    +0.000 NA
ENDBRANCH   9  12
ENDBRANCH   7  10
ENDBRANCH   1   7
BRANCH   4  17
ATOM     17  C   UNL     1      48.390   7.582  14.182  0.00  0.00    +0.000 C 
BRANCH  17  18
ATOM     18  N   UNL     1      48.193   7.270  15.577  0.00  0.00    +0.000 N 
ATOM     19  C   UNL     1      48.751   8.039  16.567  0.00  0.00    +0.000 C 
ATOM     20  O   UNL     1      49.393   9.056  16.318  0.00  0.00    +0.000 OA
ATOM     21  H   UNL     1      47.869   6.335  15.796  0.00  0.00    +0.000 HD
BRANCH  19  22
ATOM     22  C   UNL     1      48.493   7.616  17.950  0.00  0.00    +0.000 A 
ATOM     23  C   UNL     1      48.000   8.533  18.871  0.00  0.00    +0.000 A 
ATOM     24  S   UNL     1      47.708   7.866  20.413  0.00  0.00    +0.000 S 
ATOM     25  C   UNL     1      48.279   6.341  19.922  0.00  0.00    +0.000 A 
ATOM     26  N   UNL     1      48.323   5.298  20.794  0.00  0.00    +0.000 NA
ATOM     27  C   UNL     1      48.805   4.208  20.297  0.00  0.00    +0.000 A 
ATOM     28  N   UNL     1      49.245   4.065  19.008  0.00  0.00    +0.000 N 
ATOM     29  C   UNL     1      49.196   5.083  18.085  0.00  0.00    +0.000 A 
ATOM     30  O   UNL     1      49.564   4.911  16.928  0.00  0.00    +0.000 OA
ATOM     31  C   UNL     1      48.670   6.335  18.595  0.00  0.00    +0.000 A 
ATOM     32  H   UNL     1      49.605   3.182  18.678  0.00  0.00    +0.000 HD
ENDBRANCH  19  22
ENDBRANCH  17  18
ENDBRANCH   4  17
TORSDOF 6
ENDMDL
MODEL 3
REMARK VINA RESULT:    -7.034      4.709      9.553
REMARK INTER + INTRA:         -10.636
REMARK INTER:                  -9.851
REMARK INTRA:                  -0.785
REMARK UNBOUND:                -1.134
REMARK  Name = 
REMARK  6 active torsions:
REMARK  status: ('A' for Active; 'I' for Inactive)
REMARK    1  A    between atoms: C_2  and  C_25
REMARK    2  A    between atoms: N_3  and  C_4
REMARK    3  A    between atoms: C_4  and  C_5
REMARK    4  A    between atoms: C_8  and  C_9
REMARK    5  A    between atoms: C_9  and  N_10
REMARK    6  A    between atoms: C_11  and  C_13
REMARK                            x       y       z     vdW  Elec       q    Type
REMARK                         _______ _______ _______ _____ _____    ______ ____
ROOT
ATOM      1  C   UNL     1      51.346   3.080  17.750  0.00  0.00    +0.000 A 
ATOM      2  C   UNL     1      50.660   4.273  18.017  0.00  0.00    +0.000 A 
ATOM      3  C   UNL     1      49.293   4.390  17.735  0.00  0.00    +0.000 A 
ATOM      4  C   UNL     1      48.579   3.309  17.201  0.00  0.00    +0.000 A 
ATOM      5  C   UNL     1      49.266   2.119  16.932  0.00  0.00    +0.000 A 
ATOM      6  C   UNL     1      50.631   2.001  17.213  0.00  0.00    +0.000 A 
ENDROOT
BRANCH   1   7
ATOM      7  C   UNL     1      52.828   2.973  17.991  0.00  0.00    +0.000 C 
BRANCH   7  10
ATOM      8  O   UNL     1      54.897   1.278  17.141  0.00  0.00    +0.000 OA
ATOM      9  C   UNL     1      54.255   1.007  18.147  0.00  0.00    +0.000 C 
ATOM     10  N   UNL     1      53.220   1.758  18.657  0.00  0.00    +0.000 N 
ATOM     11  H   UNL     1      52.762   1.443  19.507  0.00  0.00    +0.000 HD
BRANCH   9  12
ATOM     12  C   UNL     1      54.592  -0.239  18.920  0.00  0.00    +0.000 C 
ATOM     13  C   UNL     1      54.569  -1.575  18.304  0.00  0.00    +0.000 C 
ATOM     14  C   UNL     1      54.973  -2.435  19.368  0.00  0.00    +0.000 C 
ATOM     15  C   UNL     1      55.177  -1.627  20.421  0.00  0.00    +0.000 C 
ATOM     16  N   UNL     1      54.951  -0.278  20.183  0.00  0.00    +0.000 NA
ENDBRANCH   9  12
ENDBRANCH   7  10
ENDBRANCH   1   7
BRANCH   4  17
ATOM     17  C   UNL     1      47.112   3.432  16.876  0.00  0.00    +0.000 C 
BRANCH  17  18
ATOM     18  N   UNL     1      46.881   4.447  15.877  0.00  0.00    +0.000 N 
ATOM     19  C   UNL     1      47.015   4.175  14.539  0.00  0.00    +0.000 C 
ATOM     20  O   UNL     1      47.280   3.049  14.125  0.00  0.00    +0.000 OA
ATOM     21  H   UNL     1      46.886   5.410  16.192  0.00  0.00    +0.000 HD
BRANCH  19  22
ATOM     22  C   UNL     1      46.769   5.291  13.615  0.00  0.00    +0.000 A 
ATOM     23  C   UNL     1      47.801   6.168  13.304  0.00  0.00    +0.000 A 
ATOM     24  S   UNL     1      47.361   7.373  12.180  0.00  0.00    +0.000 S 
ATOM     25  C   UNL     1      45.761   6.800  12.109  0.00  0.00    +0.000 A 
ATOM     26  N   UNL     1      44.833   7.416  11.329  0.00  0.00    +0.000 NA
ATOM     27  C   UNL     1      43.653   6.895  11.392  0.00  0.00    +0.000 A 
ATOM     28  N   UNL     1      43.318   5.813  12.162  0.00  0.00    +0.000 N 
ATOM     29  C   UNL     1      44.228   5.142  12.945  0.00  0.00    +0.000 A 
ATOM     30  O   UNL     1      43.903   4.153  13.594  0.00  0.00    +0.000 OA
ATOM     31  C   UNL     1      45.569   5.693  12.917  0.00  0.00    +0.000 A 
ATOM     32  H   UNL     1      42.377   5.447  12.161  0.00  0.00    +0.000 HD
ENDBRANCH  19  22
ENDBRANCH  17  18
ENDBRANCH   4  17
TORSDOF 6
ENDMDL
MODEL 4
REMARK VINA RESULT:    -6.871      2.396      2.837
REMARK INTER + INTRA:         -10.415
REMARK INTER:                  -9.498
REMARK INTRA:                  -0.917
REMARK UNBOUND:                -1.134
REMARK  Name = 
REMARK  6 active torsions:
REMARK  status: ('A' for Active; 'I' for Inactive)
REMARK    1  A    between atoms: C_2  and  C_25
REMARK    2  A    between atoms: N_3  and  C_4
REMARK    3  A    between atoms: C_4  and  C_5
REMARK    4  A    between atoms: C_8  and  C_9
REMARK    5  A    between atoms: C_9  and  N_10
REMARK    6  A    between atoms: C_11  and  C_13
REMARK                            x       y       z     vdW  Elec       q    Type
REMARK                         _______ _______ _______ _____ _____    ______ ____
ROOT
ATOM      1  C   UNL     1      45.515   6.571  11.313  0.00  0.00    +0.000 A 
ATOM      2  C   UNL     1      44.932   7.625  12.030  0.00  0.00    +0.000 A 
ATOM      3  C   UNL     1      45.692   8.390  12.923  0.00  0.00    +0.000 A 
ATOM      4  C   UNL     1      47.058   8.131  13.101  0.00  0.00    +0.000 A 
ATOM      5  C   UNL     1      47.639   7.076  12.386  0.00  0.00    +0.000 A 
ATOM      6  C   UNL     1      46.880   6.311  11.495  0.00  0.00    +0.000 A 
ENDROOT
BRANCH   1   7
ATOM      7  C   UNL     1      44.685   5.706  10.403  0.00  0.00    +0.000 C 
BRANCH   7  10
ATOM      8  O   UNL     1      44.165   3.133   9.410  0.00  0.00    +0.000 OA
ATOM      9  C   UNL     1      45.096   3.789   8.960  0.00  0.00    +0.000 C 
ATOM     10  N   UNL     1      45.447   5.055   9.369  0.00  0.00    +0.000 N 
ATOM     11  H   UNL     1      46.234   5.512   8.917  0.00  0.00    +0.000 HD
BRANCH   9  12
ATOM     12  C   UNL     1      45.950   3.201   7.871  0.00  0.00    +0.000 C 
ATOM     13  C   UNL     1      46.438   1.813   7.918  0.00  0.00    +0.000 C 
ATOM     14  C   UNL     1      47.164   1.678   6.697  0.00  0.00    +0.000 C 
ATOM     15  C   UNL     1      47.065   2.871   6.090  0.00  0.00    +0.000 C 
ATOM     16  N   UNL     1      46.331   3.827   6.780  0.00  0.00    +0.000 NA
ENDBRANCH   9  12
ENDBRANCH   7  10
ENDBRANCH   1   7
BRANCH   4  17
ATOM     17  C   UNL     1      47.881   8.937  14.074  0.00  0.00    +0.000 C 
BRANCH  17  18
ATOM     18  N   UNL     1      47.820   8.374  15.401  0.00  0.00    +0.000 N 
ATOM     19  C   UNL     1      48.872   7.667  15.926  0.00  0.00    +0.000 C 
ATOM     20  O   UNL     1      49.931   7.527  15.319  0.00  0.00    +0.000 OA
ATOM     21  H   UNL     1      46.901   8.282  15.818  0.00  0.00    +0.000 HD
BRANCH  19  22
ATOM     22  C   UNL     1      48.689   7.128  17.281  0.00  0.00    +0.000 A 
ATOM     23  C   UNL     1      48.980   5.794  17.537  0.00  0.00    +0.000 A 
ATOM     24  S   UNL     1      48.763   5.346  19.168  0.00  0.00    +0.000 S 
ATOM     25  C   UNL     1      48.221   6.905  19.581  0.00  0.00    +0.000 A 
ATOM     26  N   UNL     1      47.840   7.198  20.854  0.00  0.00    +0.000 NA
ATOM     27  C   UNL     1      47.424   8.408  21.020  0.00  0.00    +0.000 A 
ATOM     28  N   UNL     1      47.356   9.353  20.031  0.00  0.00    +0.000 N 
ATOM     29  C   UNL     1      47.754   9.111  18.737  0.00  0.00    +0.000 A 
ATOM     30  O   UNL     1      47.715   9.992  17.884  0.00  0.00    +0.000 OA
ATOM     31  C   UNL     1      48.224   7.761  18.494  0.00  0.00    +0.000 A 
ATOM     32  H   UNL     1      47.028  10.287  20.228  0.00  0.00    +0.000 HD
ENDBRANCH  19  22
ENDBRANCH  17  18
ENDBRANCH   4  17
TORSDOF 6
ENDMDL
MODEL 5
REMARK VINA RESULT:    -6.790      4.704      9.375
REMARK INTER + INTRA:         -10.306
REMARK INTER:                  -9.226
REMARK INTRA:                  -1.079
REMARK UNBOUND:                -1.134
REMARK  Name = 
REMARK  6 active torsions:
REMARK  status: ('A' for Active; 'I' for Inactive)
REMARK    1  A    between atoms: C_2  and  C_25
REMARK    2  A    between atoms: N_3  and  C_4
REMARK    3  A    between atoms: C_4  and  C_5
REMARK    4  A    between atoms: C_8  and  C_9
REMARK    5  A    between atoms: C_9  and  N_10
REMARK    6  A    between atoms: C_11  and  C_13
REMARK                            x       y       z     vdW  Elec       q    Type
REMARK                         _______ _______ _______ _____ _____    ______ ____
ROOT
ATOM      1  C   UNL     1      51.332   3.015  17.842  0.00  0.00    +0.000 A 
ATOM      2  C   UNL     1      50.714   4.230  18.170  0.00  0.00    +0.000 A 
ATOM      3  C   UNL     1      49.369   4.457  17.853  0.00  0.00    +0.000 A 
ATOM      4  C   UNL     1      48.607   3.465  17.221  0.00  0.00    +0.000 A 
ATOM      5  C   UNL     1      49.226   2.252  16.891  0.00  0.00    +0.000 A 
ATOM      6  C   UNL     1      50.569   2.025  17.208  0.00  0.00    +0.000 A 
ENDROOT
BRANCH   1   7
ATOM      7  C   UNL     1      52.793   2.793  18.123  0.00  0.00    +0.000 C 
BRANCH   7  10
ATOM      8  O   UNL     1      54.904   1.260  17.087  0.00  0.00    +0.000 OA
ATOM      9  C   UNL     1      54.172   0.793  17.950  0.00  0.00    +0.000 C 
ATOM     10  N   UNL     1      53.108   1.447  18.529  0.00  0.00    +0.000 N 
ATOM     11  H   UNL     1      52.572   0.966  19.246  0.00  0.00    +0.000 HD
BRANCH   9  12
ATOM     12  C   UNL     1      54.420  -0.604  18.447  0.00  0.00    +0.000 C 
ATOM     13  C   UNL     1      54.851  -1.690  17.553  0.00  0.00    +0.000 C 
ATOM     14  C   UNL     1      54.990  -2.805  18.434  0.00  0.00    +0.000 C 
ATOM     15  C   UNL     1      54.661  -2.341  19.650  0.00  0.00    +0.000 C 
ATOM     16  N   UNL     1      54.305  -1.000  19.695  0.00  0.00    +0.000 NA
ENDBRANCH   9  12
ENDBRANCH   7  10
ENDBRANCH   1   7
BRANCH   4  17
ATOM     17  C   UNL     1      47.164   3.708  16.858  0.00  0.00    +0.000 C 
BRANCH  17  18
ATOM     18  N   UNL     1      47.049   4.668  15.787  0.00  0.00    +0.000 N 
ATOM     19  C   UNL     1      47.117   4.283  14.473  0.00  0.00    +0.000 C 
ATOM     20  O   UNL     1      47.221   3.105  14.143  0.00  0.00    +0.000 OA
ATOM     21  H   UNL     1      47.188   5.643  16.029  0.00  0.00    +0.000 HD
BRANCH  19  22
ATOM     22  C   UNL     1      47.001   5.352  13.470  0.00  0.00    +0.000 A 
ATOM     23  C   UNL     1      46.005   5.284  12.503  0.00  0.00    +0.000 A 
ATOM     24  S   UNL     1      45.979   6.627  11.452  0.00  0.00    +0.000 S 
ATOM     25  C   UNL     1      47.330   7.322  12.216  0.00  0.00    +0.000 A 
ATOM     26  N   UNL     1      47.851   8.500  11.779  0.00  0.00    +0.000 NA
ATOM     27  C   UNL     1      48.892   8.896  12.431  0.00  0.00    +0.000 A 
ATOM     28  N   UNL     1      49.458   8.225  13.482  0.00  0.00    +0.000 N 
ATOM     29  C   UNL     1      48.952   7.045  13.975  0.00  0.00    +0.000 A 
ATOM     30  O   UNL     1      49.462   6.488  14.942  0.00  0.00    +0.000 OA
ATOM     31  C   UNL     1      47.784   6.549  13.271  0.00  0.00    +0.000 A 
ATOM     32  H   UNL     1      50.270   8.593  13.957  0.00  0.00    +0.000 HD
ENDBRANCH  19  22
ENDBRANCH  17  18
ENDBRANCH   4  17
TORSDOF 6
ENDMDL
MODEL 6
REMARK VINA RESULT:    -6.591      3.683      8.392
REMARK INTER + INTRA:         -10.037
REMARK INTER:                  -9.127
REMARK INTRA:                  -0.909
REMARK UNBOUND:                -1.134
REMARK  Name = 
REMARK  6 active torsions:
REMARK  status: ('A' for Active; 'I' for Inactive)
REMARK    1  A    between atoms: C_2  and  C_25
REMARK    2  A    between atoms: N_3  and  C_4
REMARK    3  A    between atoms: C_4  and  C_5
REMARK    4  A    between atoms: C_8  and  C_9
REMARK    5  A    between atoms: C_9  and  N_10
REMARK    6  A    between atoms: C_11  and  C_13
REMARK                            x       y       z     vdW  Elec       q    Type
REMARK                         _______ _______ _______ _____ _____    ______ ____
ROOT
ATOM      1  C   UNL     1      48.958   4.872  17.347  0.00  0.00    +0.000 A 
ATOM      2  C   UNL     1      49.681   5.995  16.923  0.00  0.00    +0.000 A 
ATOM      3  C   UNL     1      49.345   6.657  15.736  0.00  0.00    +0.000 A 
ATOM      4  C   UNL     1      48.264   6.223  14.958  0.00  0.00    +0.000 A 
ATOM      5  C   UNL     1      47.543   5.098  15.381  0.00  0.00    +0.000 A 
ATOM      6  C   UNL     1      47.878   4.437  16.566  0.00  0.00    +0.000 A 
ENDROOT
BRANCH   1   7
ATOM      7  C   UNL     1      49.358   4.120  18.588  0.00  0.00    +0.000 C 
BRANCH   7  10
ATOM      8  O   UNL     1      50.181   1.933  17.033  0.00  0.00    +0.000 OA
ATOM      9  C   UNL     1      50.988   2.523  17.739  0.00  0.00    +0.000 C 
ATOM     10  N   UNL     1      50.701   3.602  18.544  0.00  0.00    +0.000 N 
ATOM     11  H   UNL     1      51.453   4.022  19.082  0.00  0.00    +0.000 HD
BRANCH   9  12
ATOM     12  C   UNL     1      52.420   2.064  17.759  0.00  0.00    +0.000 C 
ATOM     13  C   UNL     1      52.788   0.640  17.754  0.00  0.00    +0.000 C 
ATOM     14  C   UNL     1      54.215   0.669  17.748  0.00  0.00    +0.000 C 
ATOM     15  C   UNL     1      54.545   1.970  17.755  0.00  0.00    +0.000 C 
ATOM     16  N   UNL     1      53.471   2.852  17.764  0.00  0.00    +0.000 NA
ENDBRANCH   9  12
ENDBRANCH   7  10
ENDBRANCH   1   7
BRANCH   4  17
ATOM     17  C   UNL     1      47.906   6.917  13.669  0.00  0.00    +0.000 C 
BRANCH  17  18
ATOM     18  N   UNL     1      47.239   6.018  12.759  0.00  0.00    +0.000 N 
ATOM     19  C   UNL     1      46.303   6.472  11.864  0.00  0.00    +0.000 C 
ATOM     20  O   UNL     1      46.030   7.664  11.754  0.00  0.00    +0.000 OA
ATOM     21  H   UNL     1      47.278   5.029  12.981  0.00  0.00    +0.000 HD
BRANCH  19  22
ATOM     22  C   UNL     1      45.680   5.460  10.998  0.00  0.00    +0.000 A 
ATOM     23  C   UNL     1      45.793   5.572   9.618  0.00  0.00    +0.000 A 
ATOM     24  S   UNL     1      45.059   4.291   8.764  0.00  0.00    +0.000 S 
ATOM     25  C   UNL     1      44.516   3.569  10.206  0.00  0.00    +0.000 A 
ATOM     26  N   UNL     1      43.784   2.423  10.181  0.00  0.00    +0.000 NA
ATOM     27  C   UNL     1      43.414   2.002  11.343  0.00  0.00    +0.000 A 
ATOM     28  N   UNL     1      43.712   2.619  12.529  0.00  0.00    +0.000 N 
ATOM     29  C   UNL     1      44.471   3.763  12.606  0.00  0.00    +0.000 A 
ATOM     30  O   UNL     1      44.751   4.269  13.687  0.00  0.00    +0.000 OA
ATOM     31  C   UNL     1      44.906   4.285  11.324  0.00  0.00    +0.000 A 
ATOM     32  H   UNL     1      43.399   2.233  13.408  0.00  0.00    +0.000 HD
ENDBRANCH  19  22
ENDBRANCH  17  18
ENDBRANCH   4  17
TORSDOF 6
ENDMDL
MODEL 7
REMARK VINA RESULT:    -6.240      1.791      2.435
REMARK INTER + INTRA:          -9.563
REMARK INTER:                  -8.540
REMARK INTRA:                  -1.023
REMARK UNBOUND:                -1.134
REMARK  Name = 
REMARK  6 active torsions:
REMARK  status: ('A' for Active; 'I' for Inactive)
REMARK    1  A    between atoms: C_2  and  C_25
REMARK    2  A    between atoms: N_3  and  C_4
REMARK    3  A    between atoms: C_4  and  C_5
REMARK    4  A    between atoms: C_8  and  C_9
REMARK    5  A    between atoms: C_9  and  N_10
REMARK    6  A    between atoms: C_11  and  C_13
REMARK                            x       y       z     vdW  Elec       q    Type
REMARK                         _______ _______ _______ _____ _____    ______ ____
ROOT
ATOM      1  C   UNL     1      46.283   7.609  12.106  0.00  0.00    +0.000 A 
ATOM      2  C   UNL     1      46.279   8.517  13.173  0.00  0.00    +0.000 A 
ATOM      3  C   UNL     1      47.466   8.845  13.839  0.00  0.00    +0.000 A 
ATOM      4  C   UNL     1      48.687   8.287  13.436  0.00  0.00    +0.000 A 
ATOM      5  C   UNL     1      48.690   7.377  12.371  0.00  0.00    +0.000 A 
ATOM      6  C   UNL     1      47.505   7.049  11.706  0.00  0.00    +0.000 A 
ENDROOT
BRANCH   1   7
ATOM      7  C   UNL     1      44.999   7.206  11.431  0.00  0.00    +0.000 C 
BRANCH   7  10
ATOM      8  O   UNL     1      44.056   4.600  11.877  0.00  0.00    +0.000 OA
ATOM      9  C   UNL     1      44.641   4.872  10.837  0.00  0.00    +0.000 C 
ATOM     10  N   UNL     1      45.148   6.109  10.509  0.00  0.00    +0.000 N 
ATOM     11  H   UNL     1      45.608   6.225   9.611  0.00  0.00    +0.000 HD
BRANCH   9  12
ATOM     12  C   UNL     1      44.842   3.797   9.804  0.00  0.00    +0.000 C 
ATOM     13  C   UNL     1      45.359   4.088   8.458  0.00  0.00    +0.000 C 
ATOM     14  C   UNL     1      45.414   2.803   7.842  0.00  0.00    +0.000 C 
ATOM     15  C   UNL     1      44.968   1.942   8.771  0.00  0.00    +0.000 C 
ATOM     16  N   UNL     1      44.607   2.517   9.983  0.00  0.00    +0.000 NA
ENDBRANCH   9  12
ENDBRANCH   7  10
ENDBRANCH   1   7
BRANCH   4  17
ATOM     17  C   UNL     1      49.968   8.619  14.159  0.00  0.00    +0.000 C 
BRANCH  17  18
ATOM     18  N   UNL     1      49.991   8.032  15.477  0.00  0.00    +0.000 N 
ATOM     19  C   UNL     1      51.105   7.390  15.954  0.00  0.00    +0.000 C 
ATOM     20  O   UNL     1      52.150   7.332  15.310  0.00  0.00    +0.000 OA
ATOM     21  H   UNL     1      49.095   7.872  15.923  0.00  0.00    +0.000 HD
BRANCH  19  22
ATOM     22  C   UNL     1      51.006   6.819  17.305  0.00  0.00    +0.000 A 
ATOM     23  C   UNL     1      51.899   7.222  18.290  0.00  0.00    +0.000 A 
ATOM     24  S   UNL     1      51.612   6.504  19.810  0.00  0.00    +0.000 S 
ATOM     25  C   UNL     1      50.317   5.588  19.195  0.00  0.00    +0.000 A 
ATOM     26  N   UNL     1      49.632   4.724  19.991  0.00  0.00    +0.000 NA
ATOM     27  C   UNL     1      48.695   4.074  19.388  0.00  0.00    +0.000 A 
ATOM     28  N   UNL     1      48.377   4.210  18.063  0.00  0.00    +0.000 N 
ATOM     29  C   UNL     1      49.024   5.090  17.226  0.00  0.00    +0.000 A 
ATOM     30  O   UNL     1      48.690   5.214  16.053  0.00  0.00    +0.000 OA
ATOM     31  C   UNL     1      50.095   5.841  17.852  0.00  0.00    +0.000 A 
ATOM     32  H   UNL     1      47.625   3.677  17.652  0.00  0.00    +0.000 HD
ENDBRANCH  19  22
ENDBRANCH  17  18
ENDBRANCH   4  17
TORSDOF 6
ENDMDL
MODEL 8
REMARK VINA RESULT:    -6.130      3.135      8.380
REMARK INTER + INTRA:          -9.415
REMARK INTER:                  -8.546
REMARK INTRA:                  -0.868
REMARK UNBOUND:                -1.134
REMARK  Name = 
REMARK  6 active torsions:
REMARK  status: ('A' for Active; 'I' for Inactive)
REMARK    1  A    between atoms: C_2  and  C_25
REMARK    2  A    between atoms: N_3  and  C_4
REMARK    3  A    between atoms: C_4  and  C_5
REMARK    4  A    between atoms: C_8  and  C_9
REMARK    5  A    between atoms: C_9  and  N_10
REMARK    6  A    between atoms: C_11  and  C_13
REMARK                            x       y       z     vdW  Elec       q    Type
REMARK                         _______ _______ _______ _____ _____    ______ ____
ROOT
ATOM      1  C   UNL     1      49.704   7.996  15.290  0.00  0.00    +0.000 A 
ATOM      2  C   UNL     1      48.390   8.484  15.313  0.00  0.00    +0.000 A 
ATOM      3  C   UNL     1      47.603   8.474  14.156  0.00  0.00    +0.000 A 
ATOM      4  C   UNL     1      48.105   7.955  12.955  0.00  0.00    +0.000 A 
ATOM      5  C   UNL     1      49.420   7.470  12.932  0.00  0.00    +0.000 A 
ATOM      6  C   UNL     1      50.207   7.480  14.088  0.00  0.00    +0.000 A 
ENDROOT
BRANCH   1   7
ATOM      7  C   UNL     1      50.574   8.066  16.516  0.00  0.00    +0.000 C 
BRANCH   7  10
ATOM      8  O   UNL     1      49.322   5.736  17.455  0.00  0.00    +0.000 OA
ATOM      9  C   UNL     1      50.532   5.751  17.269  0.00  0.00    +0.000 C 
ATOM     10  N   UNL     1      51.254   6.832  16.816  0.00  0.00    +0.000 N 
ATOM     11  H   UNL     1      52.256   6.730  16.687  0.00  0.00    +0.000 HD
BRANCH   9  12
ATOM     12  C   UNL     1      51.333   4.509  17.546  0.00  0.00    +0.000 C 
ATOM     13  C   UNL     1      50.742   3.163  17.482  0.00  0.00    +0.000 C 
ATOM     14  C   UNL     1      51.844   2.306  17.779  0.00  0.00    +0.000 C 
ATOM     15  C   UNL     1      52.889   3.125  17.979  0.00  0.00    +0.000 C 
ATOM     16  N   UNL     1      52.612   4.479  17.847  0.00  0.00    +0.000 NA
ENDBRANCH   9  12
ENDBRANCH   7  10
ENDBRANCH   1   7
BRANCH   4  17
ATOM     17  C   UNL     1      47.272   7.957  11.699  0.00  0.00    +0.000 C 
BRANCH  17  18
ATOM     18  N   UNL     1      46.644   6.675  11.486  0.00  0.00    +0.000 N 
ATOM     19  C   UNL     1      45.285   6.519  11.587  0.00  0.00    +0.000 C 
ATOM     20  O   UNL     1      44.535   7.467  11.806  0.00  0.00    +0.000 OA
ATOM     21  H   UNL     1      47.244   5.858  11.530  0.00  0.00    +0.000 HD
BRANCH  19  22
ATOM     22  C   UNL     1      44.762   5.164  11.364  0.00  0.00    +0.000 A 
ATOM     23  C   UNL     1      44.051   4.526  12.372  0.00  0.00    +0.000 A 
ATOM     24  S   UNL     1      43.471   2.983  11.931  0.00  0.00    +0.000 S 
ATOM     25  C   UNL     1      44.196   3.089  10.396  0.00  0.00    +0.000 A 
ATOM     26  N   UNL     1      44.101   2.065   9.506  0.00  0.00    +0.000 NA
ATOM     27  C   UNL     1      44.721   2.267   8.393  0.00  0.00    +0.000 A 
ATOM     28  N   UNL     1      45.426   3.401   8.086  0.00  0.00    +0.000 N 
ATOM     29  C   UNL     1      45.529   4.472   8.943  0.00  0.00    +0.000 A 
ATOM     30  O   UNL     1      46.137   5.487   8.622  0.00  0.00    +0.000 OA
ATOM     31  C   UNL     1      44.855   4.293  10.215  0.00  0.00    +0.000 A 
ATOM     32  H   UNL     1      45.884   3.501   7.192  0.00  0.00    +0.000 HD
ENDBRANCH  19  22
ENDBRANCH  17  18
ENDBRANCH   4  17
TORSDOF 6
ENDMDL
MODEL 9
REMARK VINA RESULT:    -5.593      3.806      8.600
REMARK INTER + INTRA:          -8.689
REMARK INTER:                  -7.598
REMARK INTRA:                  -1.092
REMARK UNBOUND:                -1.134
REMARK  Name = 
REMARK  6 active torsions:
REMARK  status: ('A' for Active; 'I' for Inactive)
REMARK    1  A    between atoms: C_2  and  C_25
REMARK    2  A    between atoms: N_3  and  C_4
REMARK    3  A    between atoms: C_4  and  C_5
REMARK    4  A    between atoms: C_8  and  C_9
REMARK    5  A    between atoms: C_9  and  N_10
REMARK    6  A    between atoms: C_11  and  C_13
REMARK                            x       y       z     vdW  Elec       q    Type
REMARK                         _______ _______ _______ _____ _____    ______ ____
ROOT
ATOM      1  C   UNL     1      50.628   5.766  18.671  0.00  0.00    +0.000 A 
ATOM      2  C   UNL     1      49.299   5.600  18.257  0.00  0.00    +0.000 A 
ATOM      3  C   UNL     1      48.699   6.520  17.389  0.00  0.00    +0.000 A 
ATOM      4  C   UNL     1      49.422   7.615  16.899  0.00  0.00    +0.000 A 
ATOM      5  C   UNL     1      50.750   7.783  17.315  0.00  0.00    +0.000 A 
ATOM      6  C   UNL     1      51.350   6.864  18.181  0.00  0.00    +0.000 A 
ENDROOT
BRANCH   1   7
ATOM      7  C   UNL     1      51.254   4.814  19.654  0.00  0.00    +0.000 C 
BRANCH   7  10
ATOM      8  O   UNL     1      53.982   4.320  19.214  0.00  0.00    +0.000 OA
ATOM      9  C   UNL     1      53.146   3.488  18.885  0.00  0.00    +0.000 C 
ATOM     10  N   UNL     1      51.785   3.621  19.048  0.00  0.00    +0.000 N 
ATOM     11  H   UNL     1      51.182   2.861  18.747  0.00  0.00    +0.000 HD
BRANCH   9  12
ATOM     12  C   UNL     1      53.599   2.203  18.249  0.00  0.00    +0.000 C 
ATOM     13  C   UNL     1      54.740   2.145  17.323  0.00  0.00    +0.000 C 
ATOM     14  C   UNL     1      54.828   0.759  16.996  0.00  0.00    +0.000 C 
ATOM     15  C   UNL     1      53.834   0.168  17.677  0.00  0.00    +0.000 C 
ATOM     16  N   UNL     1      53.061   1.022  18.453  0.00  0.00    +0.000 NA
ENDBRANCH   9  12
ENDBRANCH   7  10
ENDBRANCH   1   7
BRANCH   4  17
ATOM     17  C   UNL     1      48.779   8.622  15.979  0.00  0.00    +0.000 C 
BRANCH  17  18
ATOM     18  N   UNL     1      47.773   8.004  15.150  0.00  0.00    +0.000 N 
ATOM     19  C   UNL     1      47.893   7.975  13.783  0.00  0.00    +0.000 C 
ATOM     20  O   UNL     1      48.882   8.420  13.206  0.00  0.00    +0.000 OA
ATOM     21  H   UNL     1      46.868   7.839  15.574  0.00  0.00    +0.000 HD
BRANCH  19  22
ATOM     22  C   UNL     1      46.799   7.331  13.043  0.00  0.00    +0.000 A 
ATOM     23  C   UNL     1      45.962   8.100  12.244  0.00  0.00    +0.000 A 
ATOM     24  S   UNL     1      44.780   7.192  11.415  0.00  0.00    +0.000 S 
ATOM     25  C   UNL     1      45.309   5.744  12.135  0.00  0.00    +0.000 A 
ATOM     26  N   UNL     1      44.692   4.563  11.865  0.00  0.00    +0.000 NA
ATOM     27  C   UNL     1      45.177   3.550  12.501  0.00  0.00    +0.000 A 
ATOM     28  N   UNL     1      46.225   3.610  13.381  0.00  0.00    +0.000 N 
ATOM     29  C   UNL     1      46.897   4.776  13.665  0.00  0.00    +0.000 A 
ATOM     30  O   UNL     1      47.856   4.788  14.429  0.00  0.00    +0.000 OA
ATOM     31  C   UNL     1      46.385   5.948  12.982  0.00  0.00    +0.000 A 
ATOM     32  H   UNL     1      46.564   2.778  13.841  0.00  0.00    +0.000 HD
ENDBRANCH  19  22
ENDBRANCH  17  18
ENDBRANCH   4  17
TORSDOF 6
ENDMDL
