MODEL 1
REMARK VINA RESULT:    -8.604      0.000      0.000
REMARK INTER + INTRA:         -12.109
REMARK INTER:                 -11.622
REMARK INTRA:                  -0.487
REMARK UNBOUND:                -0.487
REMARK  Name = 
REMARK  8 active torsions:
REMARK  status: ('A' for Active; 'I' for Inactive)
REMARK    1  A    between atoms: C_1  and  C_2
REMARK    2  A    between atoms: C_2  and  C_3
REMARK    3  A    between atoms: C_3  and  N_4
REMARK    4  A    between atoms: C_3  and  C_17
REMARK    5  A    between atoms: C_5  and  C_7
REMARK    6  A    between atoms: C_20  and  C_21
REMARK    7  A    between atoms: C_21  and  C_22
REMARK    8  A    between atoms: C_21  and  C_23
REMARK                            x       y       z     vdW  Elec       q    Type
REMARK                         _______ _______ _______ _____ _____    ______ ____
ROOT
ATOM      1  C   UNL     1      46.976   8.241  13.196  0.00  0.00    +0.000 C 
ENDROOT
BRANCH   1   2
ATOM      2  C   UNL     1      46.197   7.210  12.382  0.00  0.00    +0.000 A 
ATOM      3  C   UNL     1      46.670   6.813  11.120  0.00  0.00    +0.000 A 
ATOM      4  C   UNL     1      46.005   5.826  10.377  0.00  0.00    +0.000 A 
ATOM      5  C   UNL     1      44.844   5.208  10.869  0.00  0.00    +0.000 A 
ATOM      6  C   UNL     1      44.365   5.613  12.119  0.00  0.00    +0.000 A 
ATOM      7  C   UNL     1      45.021   6.608  12.854  0.00  0.00    +0.000 A 
BRANCH   5   8
ATOM      8  C   UNL     1      44.125   4.141  10.050  0.00  0.00    +0.000 C 
ATOM      9  C   UNL     1      43.453   3.091  10.950  0.00  0.00    +0.000 C 
BRANCH   8  10
ATOM     10  C   UNL     1      45.007   3.474   8.995  0.00  0.00    +0.000 A 
ATOM     11  C   UNL     1      45.376   2.136   9.136  0.00  0.00    +0.000 A 
ATOM     12  C   UNL     1      46.229   1.568   8.193  0.00  0.00    +0.000 A 
ATOM     13  C   UNL     1      46.685   2.337   7.129  0.00  0.00    +0.000 A 
ATOM     14  C   UNL     1      46.257   3.649   7.047  0.00  0.00    +0.000 A 
ATOM     15  N   UNL     1      45.432   4.227   7.946  0.00  0.00    +0.000 NA
ENDBRANCH   8  10
ENDBRANCH   5   8
ENDBRANCH   1   2
BRANCH   1  16
ATOM     16  N   UNL     1      47.418   7.662  14.453  0.00  0.00    +0.000 N 
ATOM     17  C   UNL     1      48.387   6.686  14.504  0.00  0.00    +0.000 C 
ATOM     18  O   UNL     1      48.929   6.250  13.490  0.00  0.00    +0.000 OA
ATOM     19  H   UNL     1      46.844   7.835  15.272  0.00  0.00    +0.000 HD
BRANCH  17  20
ATOM     20  C   UNL     1      48.804   6.234  15.835  0.00  0.00    +0.000 A 
ATOM     21  C   UNL     1      49.752   6.965  16.542  0.00  0.00    +0.000 A 
ATOM     22  S   UNL     1      50.101   6.325  18.084  0.00  0.00    +0.000 S 
ATOM     23  C   UNL     1      49.036   5.020  17.839  0.00  0.00    +0.000 A 
ATOM     24  N   UNL     1      48.889   4.054  18.786  0.00  0.00    +0.000 NA
ATOM     25  C   UNL     1      48.071   3.108  18.459  0.00  0.00    +0.000 A 
ATOM     26  N   UNL     1      47.379   3.054  17.274  0.00  0.00    +0.000 N 
ATOM     27  C   UNL     1      47.467   4.025  16.309  0.00  0.00    +0.000 A 
ATOM     28  O   UNL     1      46.782   3.978  15.290  0.00  0.00    +0.000 OA
ATOM     29  C   UNL     1      48.397   5.093  16.616  0.00  0.00    +0.000 A 
ATOM     30  H   UNL     1      46.736   2.293  17.095  0.00  0.00    +0.000 HD
ENDBRANCH  17  20
ENDBRANCH   1  16
BRANCH   1  32
ATOM     31  C   UNL     1      47.798  10.235  11.844  0.00  0.00    +0.000 C 
ATOM     32  C   UNL     1      48.162   8.880  12.442  0.00  0.00    +0.000 C 
ENDBRANCH   1  32
TORSDOF 6
ENDMDL
MODEL 2
REMARK VINA RESULT:    -8.043      2.654      3.893
REMARK INTER + INTRA:         -11.351
REMARK INTER:                  -9.996
REMARK INTRA:                  -1.356
REMARK UNBOUND:                -0.487
REMARK  Name = 
REMARK  8 active torsions:
REMARK  status: ('A' for Active; 'I' for Inactive)
REMARK    1  A    between atoms: C_1  and  C_2
REMARK    2  A    between atoms: C_2  and  C_3
REMARK    3  A    between atoms: C_3  and  N_4
REMARK    4  A    between atoms: C_3  and  C_17
REMARK    5  A    between atoms: C_5  and  C_7
REMARK    6  A    between atoms: C_20  and  C_21
REMARK    7  A    between atoms: C_21  and  C_22
REMARK    8  A    between atoms: C_21  and  C_23
REMARK                            x       y       z     vdW  Elec       q    Type
REMARK                         _______ _______ _______ _____ _____    ______ ____
ROOT
ATOM      1  C   UNL     1      47.874   4.680  15.491  0.00  0.00    +0.000 C 
ENDROOT
BRANCH   1   2
ATOM      2  C   UNL     1      47.102   4.756  14.175  0.00  0.00    +0.000 A 
ATOM      3  C   UNL     1      46.404   3.630  13.708  0.00  0.00    +0.000 A 
ATOM      4  C   UNL     1      45.641   3.691  12.531  0.00  0.00    +0.000 A 
ATOM      5  C   UNL     1      45.556   4.875  11.782  0.00  0.00    +0.000 A 
ATOM      6  C   UNL     1      46.264   5.992  12.240  0.00  0.00    +0.000 A 
ATOM      7  C   UNL     1      47.036   5.928  13.406  0.00  0.00    +0.000 A 
BRANCH   5   8
ATOM      8  C   UNL     1      44.730   4.928  10.501  0.00  0.00    +0.000 C 
ATOM      9  C   UNL     1      43.255   4.579  10.761  0.00  0.00    +0.000 C 
BRANCH   8  10
ATOM     10  C   UNL     1      45.301   4.080   9.364  0.00  0.00    +0.000 A 
ATOM     11  C   UNL     1      45.145   2.694   9.379  0.00  0.00    +0.000 A 
ATOM     12  C   UNL     1      45.725   1.938   8.363  0.00  0.00    +0.000 A 
ATOM     13  C   UNL     1      46.435   2.577   7.354  0.00  0.00    +0.000 A 
ATOM     14  C   UNL     1      46.527   3.956   7.397  0.00  0.00    +0.000 A 
ATOM     15  N   UNL     1      45.976   4.714   8.369  0.00  0.00    +0.000 NA
ENDBRANCH   8  10
ENDBRANCH   5   8
ENDBRANCH   1   2
BRANCH   1  16
ATOM     16  N   UNL     1      47.873   5.974  16.152  0.00  0.00    +0.000 N 
ATOM     17  C   UNL     1      49.023   6.717  16.298  0.00  0.00    +0.000 C 
ATOM     18  O   UNL     1      50.110   6.326  15.879  0.00  0.00    +0.000 OA
ATOM     19  H   UNL     1      47.052   6.218  16.696  0.00  0.00    +0.000 HD
BRANCH  17  20
ATOM     20  C   UNL     1      48.883   8.040  16.913  0.00  0.00    +0.000 A 
ATOM     21  C   UNL     1      49.349   9.163  16.241  0.00  0.00    +0.000 A 
ATOM     22  S   UNL     1      49.079  10.625  17.077  0.00  0.00    +0.000 S 
ATOM     23  C   UNL     1      48.378   9.802  18.392  0.00  0.00    +0.000 A 
ATOM     24  N   UNL     1      47.954  10.481  19.493  0.00  0.00    +0.000 NA
ATOM     25  C   UNL     1      47.468   9.731  20.426  0.00  0.00    +0.000 A 
ATOM     26  N   UNL     1      47.358   8.365  20.346  0.00  0.00    +0.000 N 
ATOM     27  C   UNL     1      47.735   7.644  19.242  0.00  0.00    +0.000 A 
ATOM     28  O   UNL     1      47.559   6.430  19.179  0.00  0.00    +0.000 OA
ATOM     29  C   UNL     1      48.317   8.439  18.178  0.00  0.00    +0.000 A 
ATOM     30  H   UNL     1      46.944   7.843  21.109  0.00  0.00    +0.000 HD
ENDBRANCH  17  20
ENDBRANCH   1  16
BRANCH   1  32
ATOM     31  C   UNL     1      48.521   2.971  17.263  0.00  0.00    +0.000 C 
ATOM     32  C   UNL     1      47.380   3.577  16.452  0.00  0.00    +0.000 C 
ENDBRANCH   1  32
TORSDOF 6
ENDMDL
MODEL 3
REMARK VINA RESULT:    -7.234      2.434      4.615
REMARK INTER + INTRA:         -10.259
REMARK INTER:                  -8.775
REMARK INTRA:                  -1.484
REMARK UNBOUND:                -0.487
REMARK  Name = 
REMARK  8 active torsions:
REMARK  status: ('A' for Active; 'I' for Inactive)
REMARK    1  A    between atoms: C_1  and  C_2
REMARK    2  A    between atoms: C_2  and  C_3
REMARK    3  A    between atoms: C_3  and  N_4
REMARK    4  A    between atoms: C_3  and  C_17
REMARK    5  A    between atoms: C_5  and  C_7
REMARK    6  A    between atoms: C_20  and  C_21
REMARK    7  A    between atoms: C_21  and  C_22
REMARK    8  A    between atoms: C_21  and  C_23
REMARK                            x       y       z     vdW  Elec       q    Type
REMARK                         _______ _______ _______ _____ _____    ______ ____
ROOT
ATOM      1  C   UNL     1      48.228   5.368  15.456  0.00  0.00    +0.000 C 
ENDROOT
BRANCH   1   2
ATOM      2  C   UNL     1      47.314   5.294  14.235  0.00  0.00    +0.000 A 
ATOM      3  C   UNL     1      46.564   4.131  13.992  0.00  0.00    +0.000 A 
ATOM      4  C   UNL     1      45.673   4.058  12.910  0.00  0.00    +0.000 A 
ATOM      5  C   UNL     1      45.507   5.143  12.034  0.00  0.00    +0.000 A 
ATOM      6  C   UNL     1      46.265   6.295  12.267  0.00  0.00    +0.000 A 
ATOM      7  C   UNL     1      47.164   6.363  13.338  0.00  0.00    +0.000 A 
BRANCH   5   8
ATOM      8  C   UNL     1      44.542   5.050  10.856  0.00  0.00    +0.000 C 
ATOM      9  C   UNL     1      43.141   4.600  11.304  0.00  0.00    +0.000 C 
BRANCH   8  10
ATOM     10  C   UNL     1      45.053   4.183   9.706  0.00  0.00    +0.000 A 
ATOM     11  C   UNL     1      44.848   2.804   9.725  0.00  0.00    +0.000 A 
ATOM     12  C   UNL     1      45.375   2.028   8.695  0.00  0.00    +0.000 A 
ATOM     13  C   UNL     1      46.083   2.642   7.669  0.00  0.00    +0.000 A 
ATOM     14  C   UNL     1      46.225   4.016   7.710  0.00  0.00    +0.000 A 
ATOM     15  N   UNL     1      45.727   4.793   8.695  0.00  0.00    +0.000 NA
ENDBRANCH   8  10
ENDBRANCH   5   8
ENDBRANCH   1   2
BRANCH   1  16
ATOM     16  N   UNL     1      48.808   6.696  15.572  0.00  0.00    +0.000 N 
ATOM     17  C   UNL     1      50.082   6.894  16.054  0.00  0.00    +0.000 C 
ATOM     18  O   UNL     1      50.798   5.961  16.411  0.00  0.00    +0.000 OA
ATOM     19  H   UNL     1      48.175   7.487  15.499  0.00  0.00    +0.000 HD
BRANCH  17  20
ATOM     20  C   UNL     1      50.584   8.272  16.052  0.00  0.00    +0.000 A 
ATOM     21  C   UNL     1      50.964   8.865  17.250  0.00  0.00    +0.000 A 
ATOM     22  S   UNL     1      51.555  10.455  17.071  0.00  0.00    +0.000 S 
ATOM     23  C   UNL     1      51.272  10.424  15.392  0.00  0.00    +0.000 A 
ATOM     24  N   UNL     1      51.532  11.516  14.622  0.00  0.00    +0.000 NA
ATOM     25  C   UNL     1      51.246  11.365  13.371  0.00  0.00    +0.000 A 
ATOM     26  N   UNL     1      50.736  10.214  12.824  0.00  0.00    +0.000 N 
ATOM     27  C   UNL     1      50.495   9.078  13.555  0.00  0.00    +0.000 A 
ATOM     28  O   UNL     1      50.102   8.044  13.020  0.00  0.00    +0.000 OA
ATOM     29  C   UNL     1      50.771   9.208  14.971  0.00  0.00    +0.000 A 
ATOM     30  H   UNL     1      50.558  10.159  11.829  0.00  0.00    +0.000 HD
ENDBRANCH  17  20
ENDBRANCH   1  16
BRANCH   1  32
ATOM     31  C   UNL     1      48.070   3.606  17.286  0.00  0.00    +0.000 C 
ATOM     32  C   UNL     1      47.554   4.949  16.780  0.00  0.00    +0.000 C 
ENDBRANCH   1  32
TORSDOF 6
ENDMDL
MODEL 4
REMARK VINA RESULT:    -7.139      3.308      7.958
REMARK INTER + INTRA:         -10.130
REMARK INTER:                  -8.561
REMARK INTRA:                  -1.569
REMARK UNBOUND:                -0.487
REMARK  Name = 
REMARK  8 active torsions:
REMARK  status: ('A' for Active; 'I' for Inactive)
REMARK    1  A    between atoms: C_1  and  C_2
REMARK    2  A    between atoms: C_2  and  C_3
REMARK    3  A    between atoms: C_3  and  N_4
REMARK    4  A    between atoms: C_3  and  C_17
REMARK    5  A    between atoms: C_5  and  C_7
REMARK    6  A    between atoms: C_20  and  C_21
REMARK    7  A    between atoms: C_21  and  C_22
REMARK    8  A    between atoms: C_21  and  C_23
REMARK                            x       y       z     vdW  Elec       q    Type
REMARK                         _______ _______ _______ _____ _____    ______ ____
ROOT
ATOM      1  C   UNL     1      48.748   7.591  14.430  0.00  0.00    +0.000 C 
ENDROOT
BRANCH   1   2
ATOM      2  C   UNL     1      49.289   6.693  15.540  0.00  0.00    +0.000 A 
ATOM      3  C   UNL     1      50.634   6.799  15.933  0.00  0.00    +0.000 A 
ATOM      4  C   UNL     1      51.142   6.026  16.988  0.00  0.00    +0.000 A 
ATOM      5  C   UNL     1      50.324   5.119  17.681  0.00  0.00    +0.000 A 
ATOM      6  C   UNL     1      48.989   5.002  17.281  0.00  0.00    +0.000 A 
ATOM      7  C   UNL     1      48.486   5.763  16.219  0.00  0.00    +0.000 A 
BRANCH   5   8
ATOM      8  C   UNL     1      50.888   4.278  18.822  0.00  0.00    +0.000 C 
ATOM      9  C   UNL     1      51.558   5.152  19.895  0.00  0.00    +0.000 C 
BRANCH   8  10
ATOM     10  C   UNL     1      51.826   3.163  18.361  0.00  0.00    +0.000 A 
ATOM     11  C   UNL     1      51.334   2.109  17.591  0.00  0.00    +0.000 A 
ATOM     12  C   UNL     1      52.195   1.074  17.233  0.00  0.00    +0.000 A 
ATOM     13  C   UNL     1      53.524   1.118  17.639  0.00  0.00    +0.000 A 
ATOM     14  C   UNL     1      53.941   2.207  18.381  0.00  0.00    +0.000 A 
ATOM     15  N   UNL     1      53.129   3.222  18.744  0.00  0.00    +0.000 NA
ENDBRANCH   8  10
ENDBRANCH   5   8
ENDBRANCH   1   2
BRANCH   1  16
ATOM     16  N   UNL     1      47.475   7.084  13.947  0.00  0.00    +0.000 N 
ATOM     17  C   UNL     1      47.116   7.166  12.620  0.00  0.00    +0.000 C 
ATOM     18  O   UNL     1      47.850   7.671  11.775  0.00  0.00    +0.000 OA
ATOM     19  H   UNL     1      46.766   6.869  14.641  0.00  0.00    +0.000 HD
BRANCH  17  20
ATOM     20  C   UNL     1      45.840   6.551  12.240  0.00  0.00    +0.000 A 
ATOM     21  C   UNL     1      44.841   7.335  11.677  0.00  0.00    +0.000 A 
ATOM     22  S   UNL     1      43.435   6.462  11.263  0.00  0.00    +0.000 S 
ATOM     23  C   UNL     1      44.093   5.015  11.872  0.00  0.00    +0.000 A 
ATOM     24  N   UNL     1      43.372   3.861  11.858  0.00  0.00    +0.000 NA
ATOM     25  C   UNL     1      43.982   2.846  12.375  0.00  0.00    +0.000 A 
ATOM     26  N   UNL     1      45.253   2.883  12.891  0.00  0.00    +0.000 N 
ATOM     27  C   UNL     1      46.031   4.013  12.890  0.00  0.00    +0.000 A 
ATOM     28  O   UNL     1      47.190   3.993  13.298  0.00  0.00    +0.000 OA
ATOM     29  C   UNL     1      45.379   5.189  12.348  0.00  0.00    +0.000 A 
ATOM     30  H   UNL     1      45.677   2.041  13.260  0.00  0.00    +0.000 HD
ENDBRANCH  17  20
ENDBRANCH   1  16
BRANCH   1  32
ATOM     31  C   UNL     1      48.136   9.259  16.253  0.00  0.00    +0.000 C 
ATOM     32  C   UNL     1      48.630   9.080  14.821  0.00  0.00    +0.000 C 
ENDBRANCH   1  32
TORSDOF 6
ENDMDL
MODEL 5
REMARK VINA RESULT:    -7.097      3.019      3.747
REMARK INTER + INTRA:         -10.074
REMARK INTER:                  -9.070
REMARK INTRA:                  -1.004
REMARK UNBOUND:                -0.487
REMARK  Name = 
REMARK  8 active torsions:
REMARK  status: ('A' for Active; 'I' for Inactive)
REMARK    1  A    between atoms: C_1  and  C_2
REMARK    2  A    between atoms: C_2  and  C_3
REMARK    3  A    between atoms: C_3  and  N_4
REMARK    4  A    between atoms: C_3  and  C_17
REMARK    5  A    between atoms: C_5  and  C_7
REMARK    6  A    between atoms: C_20  and  C_21
REMARK    7  A    between atoms: C_21  and  C_22
REMARK    8  A    between atoms: C_21  and  C_23
REMARK                            x       y       z     vdW  Elec       q    Type
REMARK                         _______ _______ _______ _____ _____    ______ ____
ROOT
ATOM      1  C   UNL     1      45.761   8.680  12.669  0.00  0.00    +0.000 C 
ENDROOT
BRANCH   1   2
ATOM      2  C   UNL     1      45.319   7.400  11.963  0.00  0.00    +0.000 A 
ATOM      3  C   UNL     1      46.217   6.327  11.834  0.00  0.00    +0.000 A 
ATOM      4  C   UNL     1      45.819   5.120  11.240  0.00  0.00    +0.000 A 
ATOM      5  C   UNL     1      44.513   4.947  10.753  0.00  0.00    +0.000 A 
ATOM      6  C   UNL     1      43.623   6.020  10.869  0.00  0.00    +0.000 A 
ATOM      7  C   UNL     1      44.025   7.230  11.448  0.00  0.00    +0.000 A 
BRANCH   5   8
ATOM      8  C   UNL     1      44.093   3.633  10.103  0.00  0.00    +0.000 C 
ATOM      9  C   UNL     1      43.836   2.537  11.151  0.00  0.00    +0.000 C 
BRANCH   8  10
ATOM     10  C   UNL     1      45.058   3.142   9.024  0.00  0.00    +0.000 A 
ATOM     11  C   UNL     1      45.508   4.018   8.037  0.00  0.00    +0.000 A 
ATOM     12  C   UNL     1      46.339   3.533   7.030  0.00  0.00    +0.000 A 
ATOM     13  C   UNL     1      46.712   2.194   7.037  0.00  0.00    +0.000 A 
ATOM     14  C   UNL     1      46.243   1.394   8.062  0.00  0.00    +0.000 A 
ATOM     15  N   UNL     1      45.436   1.836   9.048  0.00  0.00    +0.000 NA
ENDBRANCH   8  10
ENDBRANCH   5   8
ENDBRANCH   1   2
BRANCH   1  16
ATOM     16  N   UNL     1      47.198   8.855  12.545  0.00  0.00    +0.000 N 
ATOM     17  C   UNL     1      48.017   8.957  13.647  0.00  0.00    +0.000 C 
ATOM     18  O   UNL     1      47.578   8.907  14.794  0.00  0.00    +0.000 OA
ATOM     19  H   UNL     1      47.557   9.120  11.633  0.00  0.00    +0.000 HD
BRANCH  17  20
ATOM     20  C   UNL     1      49.458   9.054  13.395  0.00  0.00    +0.000 A 
ATOM     21  C   UNL     1      49.922   9.859  12.362  0.00  0.00    +0.000 A 
ATOM     22  S   UNL     1      51.621   9.887  12.223  0.00  0.00    +0.000 S 
ATOM     23  C   UNL     1      51.795   8.782  13.506  0.00  0.00    +0.000 A 
ATOM     24  N   UNL     1      53.025   8.343  13.886  0.00  0.00    +0.000 NA
ATOM     25  C   UNL     1      53.010   7.486  14.853  0.00  0.00    +0.000 A 
ATOM     26  N   UNL     1      51.872   7.042  15.480  0.00  0.00    +0.000 N 
ATOM     27  C   UNL     1      50.615   7.487  15.157  0.00  0.00    +0.000 A 
ATOM     28  O   UNL     1      49.625   7.120  15.785  0.00  0.00    +0.000 OA
ATOM     29  C   UNL     1      50.577   8.427  14.055  0.00  0.00    +0.000 A 
ATOM     30  H   UNL     1      51.937   6.387  16.248  0.00  0.00    +0.000 HD
ENDBRANCH  17  20
ENDBRANCH   1  16
BRANCH   1  32
ATOM     31  C   UNL     1      45.922  10.894  11.423  0.00  0.00    +0.000 C 
ATOM     32  C   UNL     1      45.015   9.950  12.205  0.00  0.00    +0.000 C 
ENDBRANCH   1  32
TORSDOF 6
ENDMDL
MODEL 6
REMARK VINA RESULT:    -7.011      4.303      7.267
REMARK INTER + INTRA:          -9.958
REMARK INTER:                  -8.776
REMARK INTRA:                  -1.182
REMARK UNBOUND:                -0.487
REMARK  Name = 
REMARK  8 active torsions:
REMARK  status: ('A' for Active; 'I' for Inactive)
REMARK    1  A    between atoms: C_1  and  C_2
REMARK    2  A    between atoms: C_2  and  C_3
REMARK    3  A    between atoms: C_3  and  N_4
REMARK    4  A    between atoms: C_3  and  C_17
REMARK    5  A    between atoms: C_5  and  C_7
REMARK    6  A    between atoms: C_20  and  C_21
REMARK    7  A    between atoms: C_21  and  C_22
REMARK    8  A    between atoms: C_21  and  C_23
REMARK                            x       y       z     vdW  Elec       q    Type
REMARK                         _______ _______ _______ _____ _____    ______ ____
ROOT
ATOM      1  C   UNL     1      47.022   8.363  12.495  0.00  0.00    +0.000 C 
ENDROOT
BRANCH   1   2
ATOM      2  C   UNL     1      48.452   8.386  11.960  0.00  0.00    +0.000 A 
ATOM      3  C   UNL     1      49.018   9.598  11.530  0.00  0.00    +0.000 A 
ATOM      4  C   UNL     1      50.348   9.656  11.087  0.00  0.00    +0.000 A 
ATOM      5  C   UNL     1      51.153   8.506  11.056  0.00  0.00    +0.000 A 
ATOM      6  C   UNL     1      50.585   7.297  11.470  0.00  0.00    +0.000 A 
ATOM      7  C   UNL     1      49.253   7.236  11.899  0.00  0.00    +0.000 A 
BRANCH   5   8
ATOM      8  C   UNL     1      52.596   8.580  10.566  0.00  0.00    +0.000 C 
ATOM      9  C   UNL     1      52.905   9.936   9.910  0.00  0.00    +0.000 C 
BRANCH   8  10
ATOM     10  C   UNL     1      52.995   7.424   9.648  0.00  0.00    +0.000 A 
ATOM     11  C   UNL     1      52.481   7.349   8.354  0.00  0.00    +0.000 A 
ATOM     12  C   UNL     1      52.813   6.256   7.558  0.00  0.00    +0.000 A 
ATOM     13  C   UNL     1      53.654   5.271   8.062  0.00  0.00    +0.000 A 
ATOM     14  C   UNL     1      54.140   5.428   9.346  0.00  0.00    +0.000 A 
ATOM     15  N   UNL     1      53.835   6.475  10.141  0.00  0.00    +0.000 NA
ENDBRANCH   8  10
ENDBRANCH   5   8
ENDBRANCH   1   2
BRANCH   1  16
ATOM     16  N   UNL     1      46.442   7.041  12.330  0.00  0.00    +0.000 N 
ATOM     17  C   UNL     1      45.229   6.851  11.706  0.00  0.00    +0.000 C 
ATOM     18  O   UNL     1      44.572   7.787  11.257  0.00  0.00    +0.000 OA
ATOM     19  H   UNL     1      46.843   6.286  12.877  0.00  0.00    +0.000 HD
BRANCH  17  20
ATOM     20  C   UNL     1      44.785   5.465  11.531  0.00  0.00    +0.000 A 
ATOM     21  C   UNL     1      44.072   4.839  12.546  0.00  0.00    +0.000 A 
ATOM     22  S   UNL     1      43.603   3.243  12.171  0.00  0.00    +0.000 S 
ATOM     23  C   UNL     1      44.382   3.314  10.660  0.00  0.00    +0.000 A 
ATOM     24  N   UNL     1      44.394   2.236   9.830  0.00  0.00    +0.000 NA
ATOM     25  C   UNL     1      45.043   2.419   8.728  0.00  0.00    +0.000 A 
ATOM     26  N   UNL     1      45.669   3.590   8.380  0.00  0.00    +0.000 N 
ATOM     27  C   UNL     1      45.648   4.714   9.167  0.00  0.00    +0.000 A 
ATOM     28  O   UNL     1      46.161   5.767   8.793  0.00  0.00    +0.000 OA
ATOM     29  C   UNL     1      44.957   4.549  10.430  0.00  0.00    +0.000 A 
ATOM     30  H   UNL     1      46.140   3.670   7.488  0.00  0.00    +0.000 HD
ENDBRANCH  17  20
ENDBRANCH   1  16
BRANCH   1  32
ATOM     31  C   UNL     1      48.239   8.991  14.640  0.00  0.00    +0.000 C 
ATOM     32  C   UNL     1      46.884   8.840  13.957  0.00  0.00    +0.000 C 
ENDBRANCH   1  32
TORSDOF 6
ENDMDL
MODEL 7
REMARK VINA RESULT:    -6.801      3.451      5.487
REMARK INTER + INTRA:          -9.674
REMARK INTER:                  -9.216
REMARK INTRA:                  -0.459
REMARK UNBOUND:                -0.487
REMARK  Name = 
REMARK  8 active torsions:
REMARK  status: ('A' for Active; 'I' for Inactive)
REMARK    1  A    between atoms: C_1  and  C_2
REMARK    2  A    between atoms: C_2  and  C_3
REMARK    3  A    between atoms: C_3  and  N_4
REMARK    4  A    between atoms: C_3  and  C_17
REMARK    5  A    between atoms: C_5  and  C_7
REMARK    6  A    between atoms: C_20  and  C_21
REMARK    7  A    between atoms: C_21  and  C_22
REMARK    8  A    between atoms: C_21  and  C_23
REMARK                            x       y       z     vdW  Elec       q    Type
REMARK                         _______ _______ _______ _____ _____    ______ ____
ROOT
ATOM      1  C   UNL     1      48.433   4.904  17.914  0.00  0.00    +0.000 C 
ENDROOT
BRANCH   1   2
ATOM      2  C   UNL     1      48.073   5.169  16.453  0.00  0.00    +0.000 A 
ATOM      3  C   UNL     1      47.199   4.301  15.779  0.00  0.00    +0.000 A 
ATOM      4  C   UNL     1      46.808   4.553  14.455  0.00  0.00    +0.000 A 
ATOM      5  C   UNL     1      47.281   5.678  13.762  0.00  0.00    +0.000 A 
ATOM      6  C   UNL     1      48.164   6.536  14.428  0.00  0.00    +0.000 A 
ATOM      7  C   UNL     1      48.565   6.276  15.744  0.00  0.00    +0.000 A 
BRANCH   5   8
ATOM      8  C   UNL     1      46.856   5.939  12.320  0.00  0.00    +0.000 C 
ATOM      9  C   UNL     1      47.092   7.404  11.915  0.00  0.00    +0.000 C 
BRANCH   8  10
ATOM     10  C   UNL     1      45.421   5.512  12.014  0.00  0.00    +0.000 A 
ATOM     11  C   UNL     1      44.400   5.785  12.924  0.00  0.00    +0.000 A 
ATOM     12  C   UNL     1      43.111   5.333  12.650  0.00  0.00    +0.000 A 
ATOM     13  C   UNL     1      42.867   4.631  11.475  0.00  0.00    +0.000 A 
ATOM     14  C   UNL     1      43.927   4.419  10.613  0.00  0.00    +0.000 A 
ATOM     15  N   UNL     1      45.185   4.844  10.853  0.00  0.00    +0.000 NA
ENDBRANCH   8  10
ENDBRANCH   5   8
ENDBRANCH   1   2
BRANCH   1  16
ATOM     16  N   UNL     1      49.860   4.666  18.047  0.00  0.00    +0.000 N 
ATOM     17  C   UNL     1      50.456   3.526  17.555  0.00  0.00    +0.000 C 
ATOM     18  O   UNL     1      49.815   2.650  16.980  0.00  0.00    +0.000 OA
ATOM     19  H   UNL     1      50.370   5.251  18.701  0.00  0.00    +0.000 HD
BRANCH  17  20
ATOM     20  C   UNL     1      51.914   3.435  17.683  0.00  0.00    +0.000 A 
ATOM     21  C   UNL     1      52.677   4.596  17.698  0.00  0.00    +0.000 A 
ATOM     22  S   UNL     1      54.349   4.318  17.886  0.00  0.00    +0.000 S 
ATOM     23  C   UNL     1      54.117   2.631  17.899  0.00  0.00    +0.000 A 
ATOM     24  N   UNL     1      55.177   1.783  17.995  0.00  0.00    +0.000 NA
ATOM     25  C   UNL     1      54.861   0.531  17.966  0.00  0.00    +0.000 A 
ATOM     26  N   UNL     1      53.577   0.055  17.862  0.00  0.00    +0.000 N 
ATOM     27  C   UNL     1      52.477   0.872  17.802  0.00  0.00    +0.000 A 
ATOM     28  O   UNL     1      51.338   0.412  17.779  0.00  0.00    +0.000 OA
ATOM     29  C   UNL     1      52.782   2.289  17.800  0.00  0.00    +0.000 A 
ATOM     30  H   UNL     1      53.402  -0.942  17.869  0.00  0.00    +0.000 HD
ENDBRANCH  17  20
ENDBRANCH   1  16
BRANCH   1  32
ATOM     31  C   UNL     1      49.136   6.850  19.396  0.00  0.00    +0.000 C 
ATOM     32  C   UNL     1      47.970   6.006  18.891  0.00  0.00    +0.000 C 
ENDBRANCH   1  32
TORSDOF 6
ENDMDL
MODEL 8
REMARK VINA RESULT:    -6.781      3.348      5.853
REMARK INTER + INTRA:          -9.646
REMARK INTER:                  -8.657
REMARK INTRA:                  -0.989
REMARK UNBOUND:                -0.487
REMARK  Name = 
REMARK  8 active torsions:
REMARK  status: ('A' for Active; 'I' for Inactive)
REMARK    1  A    between atoms: C_1  and  C_2
REMARK    2  A    between atoms: C_2  and  C_3
REMARK    3  A    between atoms: C_3  and  N_4
REMARK    4  A    between atoms: C_3  and  C_17
REMARK    5  A    between atoms: C_5  and  C_7
REMARK    6  A    between atoms: C_20  and  C_21
REMARK    7  A    between atoms: C_21  and  C_22
REMARK    8  A    between atoms: C_21  and  C_23
REMARK                            x       y       z     vdW  Elec       q    Type
REMARK                         _______ _______ _______ _____ _____    ______ ____
ROOT
ATOM      1  C   UNL     1      48.344   4.008  18.004  0.00  0.00    +0.000 C 
ENDROOT
BRANCH   1   2
ATOM      2  C   UNL     1      48.055   4.578  16.617  0.00  0.00    +0.000 A 
ATOM      3  C   UNL     1      47.198   3.889  15.743  0.00  0.00    +0.000 A 
ATOM      4  C   UNL     1      46.871   4.419  14.486  0.00  0.00    +0.000 A 
ATOM      5  C   UNL     1      47.393   5.651  14.060  0.00  0.00    +0.000 A 
ATOM      6  C   UNL     1      48.259   6.330  14.924  0.00  0.00    +0.000 A 
ATOM      7  C   UNL     1      48.596   5.794  16.174  0.00  0.00    +0.000 A 
BRANCH   5   8
ATOM      8  C   UNL     1      47.037   6.215  12.688  0.00  0.00    +0.000 C 
ATOM      9  C   UNL     1      47.123   7.750  12.665  0.00  0.00    +0.000 C 
BRANCH   8  10
ATOM     10  C   UNL     1      45.688   5.734  12.155  0.00  0.00    +0.000 A 
ATOM     11  C   UNL     1      44.522   5.977  12.881  0.00  0.00    +0.000 A 
ATOM     12  C   UNL     1      43.313   5.478  12.405  0.00  0.00    +0.000 A 
ATOM     13  C   UNL     1      43.289   4.760  11.215  0.00  0.00    +0.000 A 
ATOM     14  C   UNL     1      44.483   4.580  10.542  0.00  0.00    +0.000 A 
ATOM     15  N   UNL     1      45.669   5.051  10.980  0.00  0.00    +0.000 NA
ENDBRANCH   8  10
ENDBRANCH   5   8
ENDBRANCH   1   2
BRANCH   1  16
ATOM     16  N   UNL     1      49.742   3.623  18.111  0.00  0.00    +0.000 N 
ATOM     17  C   UNL     1      50.261   2.563  17.402  0.00  0.00    +0.000 C 
ATOM     18  O   UNL     1      49.572   1.885  16.644  0.00  0.00    +0.000 OA
ATOM     19  H   UNL     1      50.273   4.014  18.883  0.00  0.00    +0.000 HD
BRANCH  17  20
ATOM     20  C   UNL     1      51.701   2.321  17.535  0.00  0.00    +0.000 A 
ATOM     21  C   UNL     1      52.175   1.016  17.593  0.00  0.00    +0.000 A 
ATOM     22  S   UNL     1      53.873   0.907  17.713  0.00  0.00    +0.000 S 
ATOM     23  C   UNL     1      54.030   2.602  17.744  0.00  0.00    +0.000 A 
ATOM     24  N   UNL     1      55.251   3.187  17.876  0.00  0.00    +0.000 NA
ATOM     25  C   UNL     1      55.222   4.478  17.913  0.00  0.00    +0.000 A 
ATOM     26  N   UNL     1      54.080   5.233  17.817  0.00  0.00    +0.000 N 
ATOM     27  C   UNL     1      52.833   4.688  17.643  0.00  0.00    +0.000 A 
ATOM     28  O   UNL     1      51.840   5.396  17.492  0.00  0.00    +0.000 OA
ATOM     29  C   UNL     1      52.809   3.239  17.627  0.00  0.00    +0.000 A 
ATOM     30  H   UNL     1      54.136   6.243  17.829  0.00  0.00    +0.000 HD
ENDBRANCH  17  20
ENDBRANCH   1  16
BRANCH   1  32
ATOM     31  C   UNL     1      48.687   4.599  20.456  0.00  0.00    +0.000 C 
ATOM     32  C   UNL     1      47.944   4.939  19.169  0.00  0.00    +0.000 C 
ENDBRANCH   1  32
TORSDOF 6
ENDMDL
MODEL 9
REMARK VINA RESULT:    -6.689      3.461      5.535
REMARK INTER + INTRA:          -9.522
REMARK INTER:                  -8.063
REMARK INTRA:                  -1.459
REMARK UNBOUND:                -0.487
REMARK  Name = 
REMARK  8 active torsions:
REMARK  status: ('A' for Active; 'I' for Inactive)
REMARK    1  A    between atoms: C_1  and  C_2
REMARK    2  A    between atoms: C_2  and  C_3
REMARK    3  A    between atoms: C_3  and  N_4
REMARK    4  A    between atoms: C_3  and  C_17
REMARK    5  A    between atoms: C_5  and  C_7
REMARK    6  A    between atoms: C_20  and  C_21
REMARK    7  A    between atoms: C_21  and  C_22
REMARK    8  A    between atoms: C_21  and  C_23
REMARK                            x       y       z     vdW  Elec       q    Type
REMARK                         _______ _______ _______ _____ _____    ______ ____
ROOT
ATOM      1  C   UNL     1      49.032   6.975  14.536  0.00  0.00    +0.000 C 
ENDROOT
BRANCH   1   2
ATOM      2  C   UNL     1      47.867   6.547  13.645  0.00  0.00    +0.000 A 
ATOM      3  C   UNL     1      47.476   7.359  12.568  0.00  0.00    +0.000 A 
ATOM      4  C   UNL     1      46.447   6.962  11.701  0.00  0.00    +0.000 A 
ATOM      5  C   UNL     1      45.773   5.744  11.885  0.00  0.00    +0.000 A 
ATOM      6  C   UNL     1      46.152   4.942  12.968  0.00  0.00    +0.000 A 
ATOM      7  C   UNL     1      47.170   5.345  13.841  0.00  0.00    +0.000 A 
BRANCH   5   8
ATOM      8  C   UNL     1      44.650   5.325  10.942  0.00  0.00    +0.000 C 
ATOM      9  C   UNL     1      43.410   4.844  11.713  0.00  0.00    +0.000 C 
BRANCH   8  10
ATOM     10  C   UNL     1      45.076   4.296   9.895  0.00  0.00    +0.000 A 
ATOM     11  C   UNL     1      45.747   4.706   8.743  0.00  0.00    +0.000 A 
ATOM     12  C   UNL     1      46.072   3.758   7.776  0.00  0.00    +0.000 A 
ATOM     13  C   UNL     1      45.734   2.426   7.982  0.00  0.00    +0.000 A 
ATOM     14  C   UNL     1      45.089   2.094   9.159  0.00  0.00    +0.000 A 
ATOM     15  N   UNL     1      44.761   2.992  10.112  0.00  0.00    +0.000 NA
ENDBRANCH   8  10
ENDBRANCH   5   8
ENDBRANCH   1   2
BRANCH   1  16
ATOM     16  N   UNL     1      49.801   8.026  13.890  0.00  0.00    +0.000 N 
ATOM     17  C   UNL     1      51.119   8.264  14.209  0.00  0.00    +0.000 C 
ATOM     18  O   UNL     1      51.716   7.603  15.055  0.00  0.00    +0.000 OA
ATOM     19  H   UNL     1      49.284   8.722  13.361  0.00  0.00    +0.000 HD
BRANCH  17  20
ATOM     20  C   UNL     1      51.810   9.301  13.436  0.00  0.00    +0.000 A 
ATOM     21  C   UNL     1      52.312  10.422  14.086  0.00  0.00    +0.000 A 
ATOM     22  S   UNL     1      53.115  11.514  13.050  0.00  0.00    +0.000 S 
ATOM     23  C   UNL     1      52.774  10.551  11.688  0.00  0.00    +0.000 A 
ATOM     24  N   UNL     1      53.159  10.943  10.444  0.00  0.00    +0.000 NA
ATOM     25  C   UNL     1      52.812  10.132   9.499  0.00  0.00    +0.000 A 
ATOM     26  N   UNL     1      52.126   8.960   9.694  0.00  0.00    +0.000 N 
ATOM     27  C   UNL     1      51.752   8.506  10.934  0.00  0.00    +0.000 A 
ATOM     28  O   UNL     1      51.198   7.419  11.077  0.00  0.00    +0.000 OA
ATOM     29  C   UNL     1      52.092   9.398  12.025  0.00  0.00    +0.000 A 
ATOM     30  H   UNL     1      51.908   8.362   8.907  0.00  0.00    +0.000 HD
ENDBRANCH  17  20
ENDBRANCH   1  16
BRANCH   1  32
ATOM     31  C   UNL     1      48.986   6.346  17.001  0.00  0.00    +0.000 C 
ATOM     32  C   UNL     1      48.618   7.399  15.961  0.00  0.00    +0.000 C 
ENDBRANCH   1  32
TORSDOF 6
ENDMDL
