MODEL 1
REMARK VINA RESULT:    -8.663      0.000      0.000
REMARK INTER + INTRA:         -12.386
REMARK INTER:                 -11.702
REMARK INTRA:                  -0.685
REMARK UNBOUND:                -0.685
REMARK  Name = 
REMARK  6 active torsions:
REMARK  status: ('A' for Active; 'I' for Inactive)
REMARK    1  A    between atoms: C_2  and  C_26
REMARK    2  A    between atoms: N_3  and  C_4
REMARK    3  A    between atoms: C_4  and  C_5
REMARK    4  A    between atoms: C_8  and  C_9
REMARK    5  A    between atoms: C_9  and  N_10
REMARK    6  A    between atoms: C_11  and  C_13
REMARK                            x       y       z     vdW  Elec       q    Type
REMARK                         _______ _______ _______ _____ _____    ______ ____
ROOT
ATOM      1  C   UNL     1      44.607   4.516  11.677  0.00  0.00    +0.000 A 
ATOM      2  C   UNL     1      44.260   5.843  11.390  0.00  0.00    +0.000 A 
ATOM      3  C   UNL     1      45.001   6.905  11.926  0.00  0.00    +0.000 A 
ATOM      4  C   UNL     1      46.103   6.660  12.757  0.00  0.00    +0.000 A 
ATOM      5  C   UNL     1      46.425   5.334  13.075  0.00  0.00    +0.000 A 
ATOM      6  C   UNL     1      45.684   4.284  12.533  0.00  0.00    +0.000 A 
ATOM      7  F   UNL     1      46.031   3.026  12.842  0.00  0.00    +0.000 F 
ENDROOT
BRANCH   1   8
ATOM      8  C   UNL     1      43.841   3.370  11.084  0.00  0.00    +0.000 C 
BRANCH   8  11
ATOM      9  O   UNL     1      44.525   4.091   8.382  0.00  0.00    +0.000 OA
ATOM     10  C   UNL     1      44.933   3.060   8.893  0.00  0.00    +0.000 C 
ATOM     11  N   UNL     1      44.629   2.603  10.150  0.00  0.00    +0.000 N 
ATOM     12  H   UNL     1      45.037   1.718  10.441  0.00  0.00    +0.000 HD
BRANCH  10  13
ATOM     13  C   UNL     1      45.899   2.184   8.132  0.00  0.00    +0.000 C 
ATOM     14  N   UNL     1      45.982   0.899   8.303  0.00  0.00    +0.000 NA
ATOM     15  N   UNL     1      47.038   0.500   7.551  0.00  0.00    +0.000 N 
ATOM     16  C   UNL     1      47.529   1.536   6.649  0.00  0.00    +0.000 C 
ATOM     17  C   UNL     1      46.829   2.789   7.138  0.00  0.00    +0.000 C 
ATOM     18  H   UNL     1      46.903  -0.407   7.102  0.00  0.00    +0.000 HD
ENDBRANCH  10  13
ENDBRANCH   8  11
ENDBRANCH   1   8
BRANCH   4  19
ATOM     19  C   UNL     1      46.900   7.798  13.338  0.00  0.00    +0.000 C 
BRANCH  19  20
ATOM     20  N   UNL     1      47.529   7.413  14.575  0.00  0.00    +0.000 N 
ATOM     21  C   UNL     1      48.808   6.920  14.601  0.00  0.00    +0.000 C 
ATOM     22  O   UNL     1      49.495   6.838  13.585  0.00  0.00    +0.000 OA
ATOM     23  H   UNL     1      46.919   7.258  15.372  0.00  0.00    +0.000 HD
BRANCH  21  24
ATOM     24  C   UNL     1      49.342   6.550  15.919  0.00  0.00    +0.000 A 
ATOM     25  C   UNL     1      50.470   7.195  16.409  0.00  0.00    +0.000 A 
ATOM     26  S   UNL     1      50.923   6.688  17.973  0.00  0.00    +0.000 S 
ATOM     27  C   UNL     1      49.657   5.551  18.031  0.00  0.00    +0.000 A 
ATOM     28  N   UNL     1      49.488   4.747  19.115  0.00  0.00    +0.000 NA
ATOM     29  C   UNL     1      48.511   3.908  19.010  0.00  0.00    +0.000 A 
ATOM     30  N   UNL     1      47.683   3.807  17.925  0.00  0.00    +0.000 N 
ATOM     31  C   UNL     1      47.797   4.618  16.818  0.00  0.00    +0.000 A 
ATOM     32  O   UNL     1      47.013   4.529  15.879  0.00  0.00    +0.000 OA
ATOM     33  C   UNL     1      48.890   5.570  16.879  0.00  0.00    +0.000 A 
ATOM     34  H   UNL     1      46.933   3.132  17.905  0.00  0.00    +0.000 HD
ENDBRANCH  21  24
ENDBRANCH  19  20
ENDBRANCH   4  19
TORSDOF 6
ENDMDL
MODEL 2
REMARK VINA RESULT:    -8.342      1.939      2.167
REMARK INTER + INTRA:         -11.953
REMARK INTER:                 -10.937
REMARK INTRA:                  -1.016
REMARK UNBOUND:                -0.685
REMARK  Name = 
REMARK  6 active torsions:
REMARK  status: ('A' for Active; 'I' for Inactive)
REMARK    1  A    between atoms: C_2  and  C_26
REMARK    2  A    between atoms: N_3  and  C_4
REMARK    3  A    between atoms: C_4  and  C_5
REMARK    4  A    between atoms: C_8  and  C_9
REMARK    5  A    between atoms: C_9  and  N_10
REMARK    6  A    between atoms: C_11  and  C_13
REMARK                            x       y       z     vdW  Elec       q    Type
REMARK                         _______ _______ _______ _____ _____    ______ ____
ROOT
ATOM      1  C   UNL     1      45.022   5.028  11.457  0.00  0.00    +0.000 A 
ATOM      2  C   UNL     1      45.312   6.363  11.142  0.00  0.00    +0.000 A 
ATOM      3  C   UNL     1      46.254   7.083  11.889  0.00  0.00    +0.000 A 
ATOM      4  C   UNL     1      46.925   6.481  12.963  0.00  0.00    +0.000 A 
ATOM      5  C   UNL     1      46.606   5.160  13.301  0.00  0.00    +0.000 A 
ATOM      6  C   UNL     1      45.670   4.451  12.549  0.00  0.00    +0.000 A 
ATOM      7  F   UNL     1      45.403   3.181  12.887  0.00  0.00    +0.000 F 
ENDROOT
BRANCH   1   8
ATOM      8  C   UNL     1      44.038   4.237  10.646  0.00  0.00    +0.000 C 
BRANCH   8  11
ATOM      9  O   UNL     1      45.415   4.722   8.164  0.00  0.00    +0.000 OA
ATOM     10  C   UNL     1      45.347   3.605   8.652  0.00  0.00    +0.000 C 
ATOM     11  N   UNL     1      44.679   3.261   9.799  0.00  0.00    +0.000 N 
ATOM     12  H   UNL     1      44.703   2.284  10.082  0.00  0.00    +0.000 HD
BRANCH  10  13
ATOM     13  C   UNL     1      46.084   2.461   7.996  0.00  0.00    +0.000 C 
ATOM     14  N   UNL     1      45.952   1.223   8.367  0.00  0.00    +0.000 NA
ATOM     15  N   UNL     1      46.861   0.527   7.640  0.00  0.00    +0.000 N 
ATOM     16  C   UNL     1      47.457   1.307   6.561  0.00  0.00    +0.000 C 
ATOM     17  C   UNL     1      47.028   2.727   6.875  0.00  0.00    +0.000 C 
ATOM     18  H   UNL     1      46.535  -0.396   7.349  0.00  0.00    +0.000 HD
ENDBRANCH  10  13
ENDBRANCH   8  11
ENDBRANCH   1   8
BRANCH   4  19
ATOM     19  C   UNL     1      47.937   7.252  13.770  0.00  0.00    +0.000 C 
BRANCH  19  20
ATOM     20  N   UNL     1      47.887   6.876  15.159  0.00  0.00    +0.000 N 
ATOM     21  C   UNL     1      49.025   6.537  15.846  0.00  0.00    +0.000 C 
ATOM     22  O   UNL     1      50.138   6.594  15.330  0.00  0.00    +0.000 OA
ATOM     23  H   UNL     1      46.982   6.605  15.531  0.00  0.00    +0.000 HD
BRANCH  21  24
ATOM     24  C   UNL     1      48.851   6.160  17.256  0.00  0.00    +0.000 A 
ATOM     25  C   UNL     1      49.175   4.874  17.669  0.00  0.00    +0.000 A 
ATOM     26  S   UNL     1      48.969   4.620  19.342  0.00  0.00    +0.000 S 
ATOM     27  C   UNL     1      48.390   6.205  19.568  0.00  0.00    +0.000 A 
ATOM     28  N   UNL     1      48.004   6.641  20.797  0.00  0.00    +0.000 NA
ATOM     29  C   UNL     1      47.554   7.852  20.817  0.00  0.00    +0.000 A 
ATOM     30  N   UNL     1      47.463   8.669  19.722  0.00  0.00    +0.000 N 
ATOM     31  C   UNL     1      47.869   8.281  18.465  0.00  0.00    +0.000 A 
ATOM     32  O   UNL     1      47.812   9.052  17.511  0.00  0.00    +0.000 OA
ATOM     33  C   UNL     1      48.371   6.923  18.385  0.00  0.00    +0.000 A 
ATOM     34  H   UNL     1      47.106   9.609  19.804  0.00  0.00    +0.000 HD
ENDBRANCH  21  24
ENDBRANCH  19  20
ENDBRANCH   4  19
TORSDOF 6
ENDMDL
MODEL 3
REMARK VINA RESULT:    -7.951      2.241      2.633
REMARK INTER + INTRA:         -11.425
REMARK INTER:                 -10.440
REMARK INTRA:                  -0.985
REMARK UNBOUND:                -0.685
REMARK  Name = 
REMARK  6 active torsions:
REMARK  status: ('A' for Active; 'I' for Inactive)
REMARK    1  A    between atoms: C_2  and  C_26
REMARK    2  A    between atoms: N_3  and  C_4
REMARK    3  A    between atoms: C_4  and  C_5
REMARK    4  A    between atoms: C_8  and  C_9
REMARK    5  A    between atoms: C_9  and  N_10
REMARK    6  A    between atoms: C_11  and  C_13
REMARK                            x       y       z     vdW  Elec       q    Type
REMARK                         _______ _______ _______ _____ _____    ______ ____
ROOT
ATOM      1  C   UNL     1      45.629   4.432  12.362  0.00  0.00    +0.000 A 
ATOM      2  C   UNL     1      46.376   3.878  13.410  0.00  0.00    +0.000 A 
ATOM      3  C   UNL     1      47.166   4.694  14.230  0.00  0.00    +0.000 A 
ATOM      4  C   UNL     1      47.222   6.078  14.019  0.00  0.00    +0.000 A 
ATOM      5  C   UNL     1      46.505   6.626  12.947  0.00  0.00    +0.000 A 
ATOM      6  C   UNL     1      45.719   5.806  12.139  0.00  0.00    +0.000 A 
ATOM      7  F   UNL     1      45.029   6.364  11.133  0.00  0.00    +0.000 F 
ENDROOT
BRANCH   1   8
ATOM      8  C   UNL     1      44.754   3.573  11.496  0.00  0.00    +0.000 C 
BRANCH   8  11
ATOM      9  O   UNL     1      44.137   4.380   8.802  0.00  0.00    +0.000 OA
ATOM     10  C   UNL     1      45.070   3.632   9.049  0.00  0.00    +0.000 C 
ATOM     11  N   UNL     1      45.417   3.152  10.286  0.00  0.00    +0.000 N 
ATOM     12  H   UNL     1      46.218   2.528  10.340  0.00  0.00    +0.000 HD
BRANCH  10  13
ATOM     13  C   UNL     1      45.987   3.193   7.933  0.00  0.00    +0.000 C 
ATOM     14  N   UNL     1      46.374   3.983   6.976  0.00  0.00    +0.000 NA
ATOM     15  N   UNL     1      47.066   3.197   6.114  0.00  0.00    +0.000 N 
ATOM     16  C   UNL     1      47.357   1.871   6.648  0.00  0.00    +0.000 C 
ATOM     17  C   UNL     1      46.483   1.789   7.884  0.00  0.00    +0.000 C 
ATOM     18  H   UNL     1      47.875   3.659   5.696  0.00  0.00    +0.000 HD
ENDBRANCH  10  13
ENDBRANCH   8  11
ENDBRANCH   1   8
BRANCH   4  19
ATOM     19  C   UNL     1      48.073   6.959  14.897  0.00  0.00    +0.000 C 
BRANCH  19  20
ATOM     20  N   UNL     1      49.176   6.222  15.458  0.00  0.00    +0.000 N 
ATOM     21  C   UNL     1      49.202   5.881  16.786  0.00  0.00    +0.000 C 
ATOM     22  O   UNL     1      48.267   6.134  17.542  0.00  0.00    +0.000 OA
ATOM     23  H   UNL     1      50.038   6.206  14.922  0.00  0.00    +0.000 HD
BRANCH  21  24
ATOM     24  C   UNL     1      50.383   5.138  17.248  0.00  0.00    +0.000 A 
ATOM     25  C   UNL     1      51.486   5.831  17.729  0.00  0.00    +0.000 A 
ATOM     26  S   UNL     1      52.745   4.819  18.276  0.00  0.00    +0.000 S 
ATOM     27  C   UNL     1      51.881   3.417  17.843  0.00  0.00    +0.000 A 
ATOM     28  N   UNL     1      52.415   2.181  18.029  0.00  0.00    +0.000 NA
ATOM     29  C   UNL     1      51.666   1.209  17.625  0.00  0.00    +0.000 A 
ATOM     30  N   UNL     1      50.429   1.361  17.059  0.00  0.00    +0.000 N 
ATOM     31  C   UNL     1      49.836   2.590  16.878  0.00  0.00    +0.000 A 
ATOM     32  O   UNL     1      48.707   2.690  16.405  0.00  0.00    +0.000 OA
ATOM     33  C   UNL     1      50.643   3.718  17.304  0.00  0.00    +0.000 A 
ATOM     34  H   UNL     1      49.889   0.560  16.767  0.00  0.00    +0.000 HD
ENDBRANCH  21  24
ENDBRANCH  19  20
ENDBRANCH   4  19
TORSDOF 6
ENDMDL
MODEL 4
REMARK VINA RESULT:    -7.809      3.976      4.942
REMARK INTER + INTRA:         -11.234
REMARK INTER:                 -10.118
REMARK INTRA:                  -1.115
REMARK UNBOUND:                -0.685
REMARK  Name = 
REMARK  6 active torsions:
REMARK  status: ('A' for Active; 'I' for Inactive)
REMARK    1  A    between atoms: C_2  and  C_26
REMARK    2  A    between atoms: N_3  and  C_4
REMARK    3  A    between atoms: C_4  and  C_5
REMARK    4  A    between atoms: C_8  and  C_9
REMARK    5  A    between atoms: C_9  and  N_10
REMARK    6  A    between atoms: C_11  and  C_13
REMARK                            x       y       z     vdW  Elec       q    Type
REMARK                         _______ _______ _______ _____ _____    ______ ____
ROOT
ATOM      1  C   UNL     1      44.666   4.741  11.832  0.00  0.00    +0.000 A 
ATOM      2  C   UNL     1      45.933   4.962  12.389  0.00  0.00    +0.000 A 
ATOM      3  C   UNL     1      46.369   6.264  12.670  0.00  0.00    +0.000 A 
ATOM      4  C   UNL     1      45.547   7.367  12.403  0.00  0.00    +0.000 A 
ATOM      5  C   UNL     1      44.297   7.147  11.811  0.00  0.00    +0.000 A 
ATOM      6  C   UNL     1      43.869   5.848  11.538  0.00  0.00    +0.000 A 
ATOM      7  F   UNL     1      42.658   5.670  10.989  0.00  0.00    +0.000 F 
ENDROOT
BRANCH   1   8
ATOM      8  C   UNL     1      44.174   3.350  11.555  0.00  0.00    +0.000 C 
BRANCH   8  11
ATOM      9  O   UNL     1      44.173   3.912   8.731  0.00  0.00    +0.000 OA
ATOM     10  C   UNL     1      44.902   3.060   9.215  0.00  0.00    +0.000 C 
ATOM     11  N   UNL     1      44.945   2.685  10.533  0.00  0.00    +0.000 N 
ATOM     12  H   UNL     1      45.601   1.952  10.792  0.00  0.00    +0.000 HD
BRANCH  10  13
ATOM     13  C   UNL     1      45.900   2.348   8.334  0.00  0.00    +0.000 C 
ATOM     14  N   UNL     1      46.084   1.062   8.360  0.00  0.00    +0.000 NA
ATOM     15  N   UNL     1      47.137   0.828   7.539  0.00  0.00    +0.000 N 
ATOM     16  C   UNL     1      47.517   1.990   6.742  0.00  0.00    +0.000 C 
ATOM     17  C   UNL     1      46.746   3.126   7.386  0.00  0.00    +0.000 C 
ATOM     18  H   UNL     1      47.052  -0.033   6.997  0.00  0.00    +0.000 HD
ENDBRANCH  10  13
ENDBRANCH   8  11
ENDBRANCH   1   8
BRANCH   4  19
ATOM     19  C   UNL     1      46.013   8.768  12.701  0.00  0.00    +0.000 C 
BRANCH  19  20
ATOM     20  N   UNL     1      47.249   9.059  12.021  0.00  0.00    +0.000 N 
ATOM     21  C   UNL     1      48.213   9.844  12.600  0.00  0.00    +0.000 C 
ATOM     22  O   UNL     1      48.095  10.284  13.740  0.00  0.00    +0.000 OA
ATOM     23  H   UNL     1      47.269   8.904  11.017  0.00  0.00    +0.000 HD
BRANCH  21  24
ATOM     24  C   UNL     1      49.428  10.082  11.807  0.00  0.00    +0.000 A 
ATOM     25  C   UNL     1      49.745  11.372  11.407  0.00  0.00    +0.000 A 
ATOM     26  S   UNL     1      51.213  11.480  10.546  0.00  0.00    +0.000 S 
ATOM     27  C   UNL     1      51.452   9.797  10.633  0.00  0.00    +0.000 A 
ATOM     28  N   UNL     1      52.538   9.214  10.059  0.00  0.00    +0.000 NA
ATOM     29  C   UNL     1      52.576   7.927  10.172  0.00  0.00    +0.000 A 
ATOM     30  N   UNL     1      51.630   7.172  10.813  0.00  0.00    +0.000 N 
ATOM     31  C   UNL     1      50.530   7.721  11.434  0.00  0.00    +0.000 A 
ATOM     32  O   UNL     1      49.722   7.020  12.035  0.00  0.00    +0.000 OA
ATOM     33  C   UNL     1      50.434   9.165  11.324  0.00  0.00    +0.000 A 
ATOM     34  H   UNL     1      51.719   6.169  10.871  0.00  0.00    +0.000 HD
ENDBRANCH  21  24
ENDBRANCH  19  20
ENDBRANCH   4  19
TORSDOF 6
ENDMDL
MODEL 5
REMARK VINA RESULT:    -7.552      2.518      3.200
REMARK INTER + INTRA:         -10.886
REMARK INTER:                 -10.010
REMARK INTRA:                  -0.876
REMARK UNBOUND:                -0.685
REMARK  Name = 
REMARK  6 active torsions:
REMARK  status: ('A' for Active; 'I' for Inactive)
REMARK    1  A    between atoms: C_2  and  C_26
REMARK    2  A    between atoms: N_3  and  C_4
REMARK    3  A    between atoms: C_4  and  C_5
REMARK    4  A    between atoms: C_8  and  C_9
REMARK    5  A    between atoms: C_9  and  N_10
REMARK    6  A    between atoms: C_11  and  C_13
REMARK                            x       y       z     vdW  Elec       q    Type
REMARK                         _______ _______ _______ _____ _____    ______ ____
ROOT
ATOM      1  C   UNL     1      44.703   4.533  11.730  0.00  0.00    +0.000 A 
ATOM      2  C   UNL     1      45.868   4.559  12.509  0.00  0.00    +0.000 A 
ATOM      3  C   UNL     1      46.381   5.773  12.984  0.00  0.00    +0.000 A 
ATOM      4  C   UNL     1      45.736   6.984  12.692  0.00  0.00    +0.000 A 
ATOM      5  C   UNL     1      44.594   6.960  11.882  0.00  0.00    +0.000 A 
ATOM      6  C   UNL     1      44.089   5.746  11.417  0.00  0.00    +0.000 A 
ATOM      7  F   UNL     1      42.982   5.757  10.660  0.00  0.00    +0.000 F 
ENDROOT
BRANCH   1   8
ATOM      8  C   UNL     1      44.126   3.236  11.241  0.00  0.00    +0.000 C 
BRANCH   8  11
ATOM      9  O   UNL     1      44.297   3.968   8.462  0.00  0.00    +0.000 OA
ATOM     10  C   UNL     1      44.981   3.073   8.933  0.00  0.00    +0.000 C 
ATOM     11  N   UNL     1      44.942   2.618  10.225  0.00  0.00    +0.000 N 
ATOM     12  H   UNL     1      45.568   1.856  10.475  0.00  0.00    +0.000 HD
BRANCH  10  13
ATOM     13  C   UNL     1      46.016   2.393   8.067  0.00  0.00    +0.000 C 
ATOM     14  N   UNL     1      46.340   1.141   8.193  0.00  0.00    +0.000 NA
ATOM     15  N   UNL     1      47.378   0.947   7.343  0.00  0.00    +0.000 N 
ATOM     16  C   UNL     1      47.595   2.066   6.432  0.00  0.00    +0.000 C 
ATOM     17  C   UNL     1      46.731   3.167   7.015  0.00  0.00    +0.000 C 
ATOM     18  H   UNL     1      47.366   0.037   6.882  0.00  0.00    +0.000 HD
ENDBRANCH  10  13
ENDBRANCH   8  11
ENDBRANCH   1   8
BRANCH   4  19
ATOM     19  C   UNL     1      46.285   8.292  13.199  0.00  0.00    +0.000 C 
BRANCH  19  20
ATOM     20  N   UNL     1      47.725   8.304  13.149  0.00  0.00    +0.000 N 
ATOM     21  C   UNL     1      48.470   8.754  14.209  0.00  0.00    +0.000 C 
ATOM     22  O   UNL     1      47.952   9.109  15.265  0.00  0.00    +0.000 OA
ATOM     23  H   UNL     1      48.154   8.237  12.232  0.00  0.00    +0.000 HD
BRANCH  21  24
ATOM     24  C   UNL     1      49.930   8.729  14.041  0.00  0.00    +0.000 A 
ATOM     25  C   UNL     1      50.524   9.534  13.078  0.00  0.00    +0.000 A 
ATOM     26  S   UNL     1      52.226   9.428  13.053  0.00  0.00    +0.000 S 
ATOM     27  C   UNL     1      52.227   8.264  14.295  0.00  0.00    +0.000 A 
ATOM     28  N   UNL     1      53.390   7.722  14.746  0.00  0.00    +0.000 NA
ATOM     29  C   UNL     1      53.242   6.827  15.665  0.00  0.00    +0.000 A 
ATOM     30  N   UNL     1      52.037   6.430  16.180  0.00  0.00    +0.000 N 
ATOM     31  C   UNL     1      50.837   6.970  15.776  0.00  0.00    +0.000 A 
ATOM     32  O   UNL     1      49.777   6.622  16.287  0.00  0.00    +0.000 OA
ATOM     33  C   UNL     1      50.947   7.973  14.733  0.00  0.00    +0.000 A 
ATOM     34  H   UNL     1      51.987   5.727  16.902  0.00  0.00    +0.000 HD
ENDBRANCH  21  24
ENDBRANCH  19  20
ENDBRANCH   4  19
TORSDOF 6
ENDMDL
MODEL 6
REMARK VINA RESULT:    -7.469      1.959      2.643
REMARK INTER + INTRA:         -10.773
REMARK INTER:                 -10.212
REMARK INTRA:                  -0.562
REMARK UNBOUND:                -0.685
REMARK  Name = 
REMARK  6 active torsions:
REMARK  status: ('A' for Active; 'I' for Inactive)
REMARK    1  A    between atoms: C_2  and  C_26
REMARK    2  A    between atoms: N_3  and  C_4
REMARK    3  A    between atoms: C_4  and  C_5
REMARK    4  A    between atoms: C_8  and  C_9
REMARK    5  A    between atoms: C_9  and  N_10
REMARK    6  A    between atoms: C_11  and  C_13
REMARK                            x       y       z     vdW  Elec       q    Type
REMARK                         _______ _______ _______ _____ _____    ______ ____
ROOT
ATOM      1  C   UNL     1      44.692   5.327  11.385  0.00  0.00    +0.000 A 
ATOM      2  C   UNL     1      45.735   4.639  12.020  0.00  0.00    +0.000 A 
ATOM      3  C   UNL     1      46.624   5.317  12.865  0.00  0.00    +0.000 A 
ATOM      4  C   UNL     1      46.487   6.693  13.091  0.00  0.00    +0.000 A 
ATOM      5  C   UNL     1      45.468   7.386  12.425  0.00  0.00    +0.000 A 
ATOM      6  C   UNL     1      44.585   6.702  11.590  0.00  0.00    +0.000 A 
ATOM      7  F   UNL     1      43.609   7.393  10.983  0.00  0.00    +0.000 F 
ENDROOT
BRANCH   1   8
ATOM      8  C   UNL     1      43.714   4.607  10.503  0.00  0.00    +0.000 C 
BRANCH   8  11
ATOM      9  O   UNL     1      45.603   5.005   8.366  0.00  0.00    +0.000 OA
ATOM     10  C   UNL     1      45.266   3.887   8.724  0.00  0.00    +0.000 C 
ATOM     11  N   UNL     1      44.343   3.591   9.694  0.00  0.00    +0.000 N 
ATOM     12  H   UNL     1      44.157   2.609   9.882  0.00  0.00    +0.000 HD
BRANCH  10  13
ATOM     13  C   UNL     1      45.924   2.677   8.104  0.00  0.00    +0.000 C 
ATOM     14  N   UNL     1      45.815   1.478   8.592  0.00  0.00    +0.000 NA
ATOM     15  N   UNL     1      46.643   0.706   7.846  0.00  0.00    +0.000 N 
ATOM     16  C   UNL     1      47.141   1.379   6.652  0.00  0.00    +0.000 C 
ATOM     17  C   UNL     1      46.760   2.829   6.881  0.00  0.00    +0.000 C 
ATOM     18  H   UNL     1      46.280  -0.232   7.669  0.00  0.00    +0.000 HD
ENDBRANCH  10  13
ENDBRANCH   8  11
ENDBRANCH   1   8
BRANCH   4  19
ATOM     19  C   UNL     1      47.442   7.426  13.996  0.00  0.00    +0.000 C 
BRANCH  19  20
ATOM     20  N   UNL     1      48.010   6.538  14.978  0.00  0.00    +0.000 N 
ATOM     21  C   UNL     1      48.787   7.014  16.003  0.00  0.00    +0.000 C 
ATOM     22  O   UNL     1      48.986   8.215  16.166  0.00  0.00    +0.000 OA
ATOM     23  H   UNL     1      48.051   5.552  14.739  0.00  0.00    +0.000 HD
BRANCH  21  24
ATOM     24  C   UNL     1      49.321   6.014  16.939  0.00  0.00    +0.000 A 
ATOM     25  C   UNL     1      48.450   5.290  17.742  0.00  0.00    +0.000 A 
ATOM     26  S   UNL     1      49.227   4.136  18.727  0.00  0.00    +0.000 S 
ATOM     27  C   UNL     1      50.762   4.596  18.152  0.00  0.00    +0.000 A 
ATOM     28  N   UNL     1      51.891   4.000  18.619  0.00  0.00    +0.000 NA
ATOM     29  C   UNL     1      52.987   4.470  18.122  0.00  0.00    +0.000 A 
ATOM     30  N   UNL     1      53.056   5.477  17.197  0.00  0.00    +0.000 N 
ATOM     31  C   UNL     1      51.939   6.089  16.675  0.00  0.00    +0.000 A 
ATOM     32  O   UNL     1      52.033   6.961  15.815  0.00  0.00    +0.000 OA
ATOM     33  C   UNL     1      50.680   5.606  17.210  0.00  0.00    +0.000 A 
ATOM     34  H   UNL     1      53.944   5.798  16.843  0.00  0.00    +0.000 HD
ENDBRANCH  21  24
ENDBRANCH  19  20
ENDBRANCH   4  19
TORSDOF 6
ENDMDL
MODEL 7
REMARK VINA RESULT:    -7.388      2.655      3.114
REMARK INTER + INTRA:         -10.664
REMARK INTER:                  -9.616
REMARK INTRA:                  -1.048
REMARK UNBOUND:                -0.685
REMARK  Name = 
REMARK  6 active torsions:
REMARK  status: ('A' for Active; 'I' for Inactive)
REMARK    1  A    between atoms: C_2  and  C_26
REMARK    2  A    between atoms: N_3  and  C_4
REMARK    3  A    between atoms: C_4  and  C_5
REMARK    4  A    between atoms: C_8  and  C_9
REMARK    5  A    between atoms: C_9  and  N_10
REMARK    6  A    between atoms: C_11  and  C_13
REMARK                            x       y       z     vdW  Elec       q    Type
REMARK                         _______ _______ _______ _____ _____    ______ ____
ROOT
ATOM      1  C   UNL     1      45.617   5.223  11.715  0.00  0.00    +0.000 A 
ATOM      2  C   UNL     1      45.202   4.167  12.537  0.00  0.00    +0.000 A 
ATOM      3  C   UNL     1      45.804   3.958  13.785  0.00  0.00    +0.000 A 
ATOM      4  C   UNL     1      46.830   4.801  14.234  0.00  0.00    +0.000 A 
ATOM      5  C   UNL     1      47.270   5.832  13.395  0.00  0.00    +0.000 A 
ATOM      6  C   UNL     1      46.662   6.035  12.156  0.00  0.00    +0.000 A 
ATOM      7  F   UNL     1      47.094   7.044  11.385  0.00  0.00    +0.000 F 
ENDROOT
BRANCH   1   8
ATOM      8  C   UNL     1      44.959   5.477  10.389  0.00  0.00    +0.000 C 
BRANCH   8  11
ATOM      9  O   UNL     1      44.732   2.781   9.406  0.00  0.00    +0.000 OA
ATOM     10  C   UNL     1      45.468   3.597   8.875  0.00  0.00    +0.000 C 
ATOM     11  N   UNL     1      45.683   4.886   9.291  0.00  0.00    +0.000 N 
ATOM     12  H   UNL     1      46.334   5.452   8.752  0.00  0.00    +0.000 HD
BRANCH  10  13
ATOM     13  C   UNL     1      46.207   3.222   7.612  0.00  0.00    +0.000 C 
ATOM     14  N   UNL     1      46.367   4.035   6.612  0.00  0.00    +0.000 NA
ATOM     15  N   UNL     1      46.951   3.299   5.635  0.00  0.00    +0.000 N 
ATOM     16  C   UNL     1      47.420   1.996   6.095  0.00  0.00    +0.000 C 
ATOM     17  C   UNL     1      46.781   1.855   7.463  0.00  0.00    +0.000 C 
ATOM     18  H   UNL     1      47.642   3.815   5.088  0.00  0.00    +0.000 HD
ENDBRANCH  10  13
ENDBRANCH   8  11
ENDBRANCH   1   8
BRANCH   4  19
ATOM     19  C   UNL     1      47.481   4.578  15.574  0.00  0.00    +0.000 C 
BRANCH  19  20
ATOM     20  N   UNL     1      47.868   5.827  16.177  0.00  0.00    +0.000 N 
ATOM     21  C   UNL     1      49.120   6.005  16.708  0.00  0.00    +0.000 C 
ATOM     22  O   UNL     1      49.984   5.134  16.642  0.00  0.00    +0.000 OA
ATOM     23  H   UNL     1      47.120   6.461  16.444  0.00  0.00    +0.000 HD
BRANCH  21  24
ATOM     24  C   UNL     1      49.398   7.318  17.306  0.00  0.00    +0.000 A 
ATOM     25  C   UNL     1      50.413   8.110  16.785  0.00  0.00    +0.000 A 
ATOM     26  S   UNL     1      50.566   9.622  17.558  0.00  0.00    +0.000 S 
ATOM     27  C   UNL     1      49.314   9.253  18.651  0.00  0.00    +0.000 A 
ATOM     28  N   UNL     1      48.947  10.136  19.618  0.00  0.00    +0.000 NA
ATOM     29  C   UNL     1      48.008   9.713  20.398  0.00  0.00    +0.000 A 
ATOM     30  N   UNL     1      47.398   8.491  20.294  0.00  0.00    +0.000 N 
ATOM     31  C   UNL     1      47.716   7.578  19.314  0.00  0.00    +0.000 A 
ATOM     32  O   UNL     1      47.122   6.508  19.223  0.00  0.00    +0.000 OA
ATOM     33  C   UNL     1      48.776   7.999  18.418  0.00  0.00    +0.000 A 
ATOM     34  H   UNL     1      46.666   8.220  20.933  0.00  0.00    +0.000 HD
ENDBRANCH  21  24
ENDBRANCH  19  20
ENDBRANCH   4  19
TORSDOF 6
ENDMDL
MODEL 8
REMARK VINA RESULT:    -7.358      3.436      4.796
REMARK INTER + INTRA:         -10.624
REMARK INTER:                  -9.725
REMARK INTRA:                  -0.899
REMARK UNBOUND:                -0.685
REMARK  Name = 
REMARK  6 active torsions:
REMARK  status: ('A' for Active; 'I' for Inactive)
REMARK    1  A    between atoms: C_2  and  C_26
REMARK    2  A    between atoms: N_3  and  C_4
REMARK    3  A    between atoms: C_4  and  C_5
REMARK    4  A    between atoms: C_8  and  C_9
REMARK    5  A    between atoms: C_9  and  N_10
REMARK    6  A    between atoms: C_11  and  C_13
REMARK                            x       y       z     vdW  Elec       q    Type
REMARK                         _______ _______ _______ _____ _____    ______ ____
ROOT
ATOM      1  C   UNL     1      44.584   4.513  11.783  0.00  0.00    +0.000 A 
ATOM      2  C   UNL     1      45.738   4.478  12.578  0.00  0.00    +0.000 A 
ATOM      3  C   UNL     1      46.320   5.665  13.041  0.00  0.00    +0.000 A 
ATOM      4  C   UNL     1      45.758   6.909  12.720  0.00  0.00    +0.000 A 
ATOM      5  C   UNL     1      44.627   6.944  11.894  0.00  0.00    +0.000 A 
ATOM      6  C   UNL     1      44.053   5.757  11.441  0.00  0.00    +0.000 A 
ATOM      7  F   UNL     1      42.959   5.825  10.668  0.00  0.00    +0.000 F 
ENDROOT
BRANCH   1   8
ATOM      8  C   UNL     1      43.933   3.247  11.307  0.00  0.00    +0.000 C 
BRANCH   8  11
ATOM      9  O   UNL     1      44.304   3.943   8.538  0.00  0.00    +0.000 OA
ATOM     10  C   UNL     1      44.876   2.990   9.042  0.00  0.00    +0.000 C 
ATOM     11  N   UNL     1      44.732   2.547  10.331  0.00  0.00    +0.000 N 
ATOM     12  H   UNL     1      45.270   1.730  10.611  0.00  0.00    +0.000 HD
BRANCH  10  13
ATOM     13  C   UNL     1      45.881   2.210   8.227  0.00  0.00    +0.000 C 
ATOM     14  N   UNL     1      46.025   0.921   8.317  0.00  0.00    +0.000 NA
ATOM     15  N   UNL     1      47.096   0.621   7.541  0.00  0.00    +0.000 N 
ATOM     16  C   UNL     1      47.535   1.733   6.706  0.00  0.00    +0.000 C 
ATOM     17  C   UNL     1      46.778   2.919   7.273  0.00  0.00    +0.000 C 
ATOM     18  H   UNL     1      47.002  -0.262   7.036  0.00  0.00    +0.000 HD
ENDBRANCH  10  13
ENDBRANCH   8  11
ENDBRANCH   1   8
BRANCH   4  19
ATOM     19  C   UNL     1      46.382   8.188  13.213  0.00  0.00    +0.000 C 
BRANCH  19  20
ATOM     20  N   UNL     1      47.646   8.431  12.567  0.00  0.00    +0.000 N 
ATOM     21  C   UNL     1      48.833   8.237  13.226  0.00  0.00    +0.000 C 
ATOM     22  O   UNL     1      48.876   7.793  14.371  0.00  0.00    +0.000 OA
ATOM     23  H   UNL     1      47.631   9.002  11.727  0.00  0.00    +0.000 HD
BRANCH  21  24
ATOM     24  C   UNL     1      50.058   8.527  12.469  0.00  0.00    +0.000 A 
ATOM     25  C   UNL     1      50.440   7.689  11.431  0.00  0.00    +0.000 A 
ATOM     26  S   UNL     1      51.852   8.199  10.622  0.00  0.00    +0.000 S 
ATOM     27  C   UNL     1      52.033   9.533  11.664  0.00  0.00    +0.000 A 
ATOM     28  N   UNL     1      53.082  10.388  11.530  0.00  0.00    +0.000 NA
ATOM     29  C   UNL     1      53.115  11.335  12.408  0.00  0.00    +0.000 A 
ATOM     30  N   UNL     1      52.190  11.508  13.404  0.00  0.00    +0.000 N 
ATOM     31  C   UNL     1      51.097  10.685  13.560  0.00  0.00    +0.000 A 
ATOM     32  O   UNL     1      50.265  10.892  14.438  0.00  0.00    +0.000 OA
ATOM     33  C   UNL     1      51.021   9.596  12.606  0.00  0.00    +0.000 A 
ATOM     34  H   UNL     1      52.269  12.272  14.058  0.00  0.00    +0.000 HD
ENDBRANCH  21  24
ENDBRANCH  19  20
ENDBRANCH   4  19
TORSDOF 6
ENDMDL
MODEL 9
REMARK VINA RESULT:    -7.271      3.716      8.321
REMARK INTER + INTRA:         -10.506
REMARK INTER:                  -9.316
REMARK INTRA:                  -1.190
REMARK UNBOUND:                -0.685
REMARK  Name = 
REMARK  6 active torsions:
REMARK  status: ('A' for Active; 'I' for Inactive)
REMARK    1  A    between atoms: C_2  and  C_26
REMARK    2  A    between atoms: N_3  and  C_4
REMARK    3  A    between atoms: C_4  and  C_5
REMARK    4  A    between atoms: C_8  and  C_9
REMARK    5  A    between atoms: C_9  and  N_10
REMARK    6  A    between atoms: C_11  and  C_13
REMARK                            x       y       z     vdW  Elec       q    Type
REMARK                         _______ _______ _______ _____ _____    ______ ____
ROOT
ATOM      1  C   UNL     1      49.695   4.558  17.627  0.00  0.00    +0.000 A 
ATOM      2  C   UNL     1      50.490   5.626  17.188  0.00  0.00    +0.000 A 
ATOM      3  C   UNL     1      50.029   6.492  16.187  0.00  0.00    +0.000 A 
ATOM      4  C   UNL     1      48.765   6.307  15.608  0.00  0.00    +0.000 A 
ATOM      5  C   UNL     1      47.989   5.216  16.021  0.00  0.00    +0.000 A 
ATOM      6  C   UNL     1      48.455   4.363  17.020  0.00  0.00    +0.000 A 
ATOM      7  F   UNL     1      47.678   3.340  17.406  0.00  0.00    +0.000 F 
ENDROOT
BRANCH   1   8
ATOM      8  C   UNL     1      50.164   3.643  18.721  0.00  0.00    +0.000 C 
BRANCH   8  11
ATOM      9  O   UNL     1      50.898   1.247  17.302  0.00  0.00    +0.000 OA
ATOM     10  C   UNL     1      51.739   2.005  17.759  0.00  0.00    +0.000 C 
ATOM     11  N   UNL     1      51.496   3.141  18.487  0.00  0.00    +0.000 N 
ATOM     12  H   UNL     1      52.300   3.673  18.812  0.00  0.00    +0.000 HD
BRANCH  10  13
ATOM     13  C   UNL     1      53.202   1.739  17.494  0.00  0.00    +0.000 C 
ATOM     14  N   UNL     1      53.656   0.590  17.092  0.00  0.00    +0.000 NA
ATOM     15  N   UNL     1      55.007   0.710  17.099  0.00  0.00    +0.000 N 
ATOM     16  C   UNL     1      55.463   2.084  17.283  0.00  0.00    +0.000 C 
ATOM     17  C   UNL     1      54.206   2.818  17.706  0.00  0.00    +0.000 C 
ATOM     18  H   UNL     1      55.466   0.223  16.328  0.00  0.00    +0.000 HD
ENDBRANCH  10  13
ENDBRANCH   8  11
ENDBRANCH   1   8
BRANCH   4  19
ATOM     19  C   UNL     1      48.267   7.233  14.530  0.00  0.00    +0.000 C 
BRANCH  19  20
ATOM     20  N   UNL     1      47.036   6.750  13.959  0.00  0.00    +0.000 N 
ATOM     21  C   UNL     1      46.865   6.668  12.601  0.00  0.00    +0.000 C 
ATOM     22  O   UNL     1      47.766   6.945  11.814  0.00  0.00    +0.000 OA
ATOM     23  H   UNL     1      46.222   6.737  14.566  0.00  0.00    +0.000 HD
BRANCH  21  24
ATOM     24  C   UNL     1      45.563   6.171  12.134  0.00  0.00    +0.000 A 
ATOM     25  C   UNL     1      44.660   7.050  11.552  0.00  0.00    +0.000 A 
ATOM     26  S   UNL     1      43.225   6.301  11.015  0.00  0.00    +0.000 S 
ATOM     27  C   UNL     1      43.738   4.782  11.587  0.00  0.00    +0.000 A 
ATOM     28  N   UNL     1      42.946   3.684  11.461  0.00  0.00    +0.000 NA
ATOM     29  C   UNL     1      43.445   2.606  11.969  0.00  0.00    +0.000 A 
ATOM     30  N   UNL     1      44.666   2.525  12.583  0.00  0.00    +0.000 N 
ATOM     31  C   UNL     1      45.513   3.603  12.708  0.00  0.00    +0.000 A 
ATOM     32  O   UNL     1      46.619   3.487  13.228  0.00  0.00    +0.000 OA
ATOM     33  C   UNL     1      44.994   4.844  12.165  0.00  0.00    +0.000 A 
ATOM     34  H   UNL     1      45.002   1.650  12.957  0.00  0.00    +0.000 HD
ENDBRANCH  21  24
ENDBRANCH  19  20
ENDBRANCH   4  19
TORSDOF 6
ENDMDL
