MODEL 1
REMARK VINA RESULT:    -7.641      0.000      0.000
REMARK INTER + INTRA:         -10.125
REMARK INTER:                  -9.652
REMARK INTRA:                  -0.473
REMARK UNBOUND:                -0.473
REMARK  Name = 
REMARK  5 active torsions:
REMARK  status: ('A' for Active; 'I' for Inactive)
REMARK    1  A    between atoms: N_1  and  C_2
REMARK    2  A    between atoms: C_2  and  C_3
REMARK    3  A    between atoms: C_3  and  C_4
REMARK    4  A    between atoms: C_7  and  C_8
REMARK    5  A    between atoms: C_8  and  N_9
REMARK                            x       y       z     vdW  Elec       q    Type
REMARK                         _______ _______ _______ _____ _____    ______ ____
ROOT
ATOM      1  C   UNL     1      46.115   2.227   7.882  0.00  0.00    +0.000 A 
ATOM      2  C   UNL     1      45.270   1.633   8.828  0.00  0.00    +0.000 A 
ATOM      3  C   UNL     1      44.485   2.421   9.676  0.00  0.00    +0.000 A 
ATOM      4  C   UNL     1      44.522   3.819   9.587  0.00  0.00    +0.000 A 
ATOM      5  C   UNL     1      45.349   4.409   8.620  0.00  0.00    +0.000 A 
ATOM      6  C   UNL     1      46.133   3.622   7.773  0.00  0.00    +0.000 A 
ENDROOT
BRANCH   1   7
ATOM      7  C   UNL     1      47.018   1.379   7.017  0.00  0.00    +0.000 C 
BRANCH   7   8
ATOM      8  C   UNL     1      48.289   2.111   6.577  0.00  0.00    +0.000 C 
BRANCH   8   9
ATOM      9  N   UNL     1      48.343   2.224   5.119  0.00  0.00    +0.000 NA
ATOM     10  H   UNL     1      49.301   2.422   4.829  0.00  0.00    +0.000 HD
ATOM     11  H   UNL     1      47.783   3.020   4.815  0.00  0.00    +0.000 HD
ENDBRANCH   8   9
ENDBRANCH   7   8
ENDBRANCH   1   7
BRANCH   4  12
ATOM     12  C   UNL     1      43.718   4.682  10.529  0.00  0.00    +0.000 C 
BRANCH  12  13
ATOM     13  N   UNL     1      44.571   5.543  11.337  0.00  0.00    +0.000 N 
ATOM     14  C   UNL     1      44.718   6.900  11.167  0.00  0.00    +0.000 A 
ATOM     15  C   UNL     1      45.621   7.352  12.106  0.00  0.00    +0.000 A 
ATOM     16  C   UNL     1      46.051   6.232  12.865  0.00  0.00    +0.000 A 
ATOM     17  C   UNL     1      46.935   6.039  13.941  0.00  0.00    +0.000 A 
ATOM     18  C   UNL     1      47.087   4.738  14.407  0.00  0.00    +0.000 A 
ATOM     19  F   UNL     1      47.907   4.491  15.437  0.00  0.00    +0.000 F 
ATOM     20  C   UNL     1      46.391   3.704  13.803  0.00  0.00    +0.000 A 
ATOM     21  N   UNL     1      45.533   3.832  12.761  0.00  0.00    +0.000 NA
ATOM     22  C   UNL     1      45.398   5.110  12.349  0.00  0.00    +0.000 A 
ENDBRANCH  12  13
ENDBRANCH   4  12
TORSDOF 5
ENDMDL
MODEL 2
REMARK VINA RESULT:    -7.386      1.930      3.129
REMARK INTER + INTRA:          -9.802
REMARK INTER:                  -9.250
REMARK INTRA:                  -0.552
REMARK UNBOUND:                -0.473
REMARK  Name = 
REMARK  5 active torsions:
REMARK  status: ('A' for Active; 'I' for Inactive)
REMARK    1  A    between atoms: N_1  and  C_2
REMARK    2  A    between atoms: C_2  and  C_3
REMARK    3  A    between atoms: C_3  and  C_4
REMARK    4  A    between atoms: C_7  and  C_8
REMARK    5  A    between atoms: C_8  and  N_9
REMARK                            x       y       z     vdW  Elec       q    Type
REMARK                         _______ _______ _______ _____ _____    ______ ____
ROOT
ATOM      1  C   UNL     1      46.140   2.392   7.860  0.00  0.00    +0.000 A 
ATOM      2  C   UNL     1      46.200   3.792   7.843  0.00  0.00    +0.000 A 
ATOM      3  C   UNL     1      45.452   4.547   8.752  0.00  0.00    +0.000 A 
ATOM      4  C   UNL     1      44.637   3.917   9.703  0.00  0.00    +0.000 A 
ATOM      5  C   UNL     1      44.602   2.516   9.734  0.00  0.00    +0.000 A 
ATOM      6  C   UNL     1      45.348   1.762   8.826  0.00  0.00    +0.000 A 
ENDROOT
BRANCH   1   7
ATOM      7  C   UNL     1      46.889   1.578   6.833  0.00  0.00    +0.000 C 
BRANCH   7   8
ATOM      8  C   UNL     1      48.238   2.191   6.447  0.00  0.00    +0.000 C 
BRANCH   8   9
ATOM      9  N   UNL     1      48.265   2.530   5.023  0.00  0.00    +0.000 NA
ATOM     10  H   UNL     1      48.310   3.543   4.917  0.00  0.00    +0.000 HD
ATOM     11  H   UNL     1      47.393   2.236   4.584  0.00  0.00    +0.000 HD
ENDBRANCH   8   9
ENDBRANCH   7   8
ENDBRANCH   1   7
BRANCH   4  12
ATOM     12  C   UNL     1      43.787   4.722  10.656  0.00  0.00    +0.000 C 
BRANCH  12  13
ATOM     13  N   UNL     1      44.598   5.480  11.599  0.00  0.00    +0.000 N 
ATOM     14  C   UNL     1      45.386   4.936  12.586  0.00  0.00    +0.000 A 
ATOM     15  C   UNL     1      45.976   5.971  13.280  0.00  0.00    +0.000 A 
ATOM     16  C   UNL     1      45.521   7.188  12.708  0.00  0.00    +0.000 A 
ATOM     17  C   UNL     1      45.754   8.551  12.955  0.00  0.00    +0.000 A 
ATOM     18  C   UNL     1      45.086   9.463  12.146  0.00  0.00    +0.000 A 
ATOM     19  F   UNL     1      45.275  10.777  12.326  0.00  0.00    +0.000 F 
ATOM     20  C   UNL     1      44.228   9.008  11.158  0.00  0.00    +0.000 A 
ATOM     21  N   UNL     1      43.963   7.708  10.881  0.00  0.00    +0.000 NA
ATOM     22  C   UNL     1      44.643   6.854  11.675  0.00  0.00    +0.000 A 
ENDBRANCH  12  13
ENDBRANCH   4  12
TORSDOF 5
ENDMDL
MODEL 3
REMARK VINA RESULT:    -6.865      1.607      2.634
REMARK INTER + INTRA:          -9.145
REMARK INTER:                  -8.592
REMARK INTRA:                  -0.553
REMARK UNBOUND:                -0.473
REMARK  Name = 
REMARK  5 active torsions:
REMARK  status: ('A' for Active; 'I' for Inactive)
REMARK    1  A    between atoms: N_1  and  C_2
REMARK    2  A    between atoms: C_2  and  C_3
REMARK    3  A    between atoms: C_3  and  C_4
REMARK    4  A    between atoms: C_7  and  C_8
REMARK    5  A    between atoms: C_8  and  N_9
REMARK                            x       y       z     vdW  Elec       q    Type
REMARK                         _______ _______ _______ _____ _____    ______ ____
ROOT
ATOM      1  C   UNL     1      45.808   2.844   7.656  0.00  0.00    +0.000 A 
ATOM      2  C   UNL     1      46.051   4.212   7.830  0.00  0.00    +0.000 A 
ATOM      3  C   UNL     1      45.659   4.861   9.006  0.00  0.00    +0.000 A 
ATOM      4  C   UNL     1      45.024   4.151  10.035  0.00  0.00    +0.000 A 
ATOM      5  C   UNL     1      44.808   2.776   9.867  0.00  0.00    +0.000 A 
ATOM      6  C   UNL     1      45.200   2.128   8.694  0.00  0.00    +0.000 A 
ENDROOT
BRANCH   1   7
ATOM      7  C   UNL     1      46.164   2.158   6.359  0.00  0.00    +0.000 C 
BRANCH   7   8
ATOM      8  C   UNL     1      47.413   2.743   5.693  0.00  0.00    +0.000 C 
BRANCH   8   9
ATOM      9  N   UNL     1      48.580   1.896   5.946  0.00  0.00    +0.000 NA
ATOM     10  H   UNL     1      48.270   0.962   6.212  0.00  0.00    +0.000 HD
ATOM     11  H   UNL     1      49.102   2.260   6.743  0.00  0.00    +0.000 HD
ENDBRANCH   8   9
ENDBRANCH   7   8
ENDBRANCH   1   7
BRANCH   4  12
ATOM     12  C   UNL     1      44.551   4.849  11.286  0.00  0.00    +0.000 C 
BRANCH  12  13
ATOM     13  N   UNL     1      45.596   4.915  12.299  0.00  0.00    +0.000 N 
ATOM     14  C   UNL     1      45.869   3.933  13.224  0.00  0.00    +0.000 A 
ATOM     15  C   UNL     1      46.906   4.371  14.018  0.00  0.00    +0.000 A 
ATOM     16  C   UNL     1      47.270   5.670  13.575  0.00  0.00    +0.000 A 
ATOM     17  C   UNL     1      48.231   6.619  13.959  0.00  0.00    +0.000 A 
ATOM     18  C   UNL     1      48.259   7.814  13.249  0.00  0.00    +0.000 A 
ATOM     19  F   UNL     1      49.160   8.754  13.561  0.00  0.00    +0.000 F 
ATOM     20  C   UNL     1      47.353   8.026  12.222  0.00  0.00    +0.000 A 
ATOM     21  N   UNL     1      46.403   7.149  11.814  0.00  0.00    +0.000 NA
ATOM     22  C   UNL     1      46.420   5.996  12.515  0.00  0.00    +0.000 A 
ENDBRANCH  12  13
ENDBRANCH   4  12
TORSDOF 5
ENDMDL
MODEL 4
REMARK VINA RESULT:    -6.622      3.043      6.625
REMARK INTER + INTRA:          -8.837
REMARK INTER:                  -8.373
REMARK INTRA:                  -0.464
REMARK UNBOUND:                -0.473
REMARK  Name = 
REMARK  5 active torsions:
REMARK  status: ('A' for Active; 'I' for Inactive)
REMARK    1  A    between atoms: N_1  and  C_2
REMARK    2  A    between atoms: C_2  and  C_3
REMARK    3  A    between atoms: C_3  and  C_4
REMARK    4  A    between atoms: C_7  and  C_8
REMARK    5  A    between atoms: C_8  and  N_9
REMARK                            x       y       z     vdW  Elec       q    Type
REMARK                         _______ _______ _______ _____ _____    ______ ____
ROOT
ATOM      1  C   UNL     1      47.050   5.981  13.295  0.00  0.00    +0.000 A 
ATOM      2  C   UNL     1      47.048   6.732  12.113  0.00  0.00    +0.000 A 
ATOM      3  C   UNL     1      46.177   6.410  11.066  0.00  0.00    +0.000 A 
ATOM      4  C   UNL     1      45.284   5.337  11.186  0.00  0.00    +0.000 A 
ATOM      5  C   UNL     1      45.270   4.605  12.382  0.00  0.00    +0.000 A 
ATOM      6  C   UNL     1      46.139   4.926  13.427  0.00  0.00    +0.000 A 
ENDROOT
BRANCH   1   7
ATOM      7  C   UNL     1      48.039   6.281  14.396  0.00  0.00    +0.000 C 
BRANCH   7   8
ATOM      8  C   UNL     1      49.094   7.315  13.991  0.00  0.00    +0.000 C 
BRANCH   8   9
ATOM      9  N   UNL     1      50.359   7.061  14.681  0.00  0.00    +0.000 NA
ATOM     10  H   UNL     1      50.662   7.910  15.158  0.00  0.00    +0.000 HD
ATOM     11  H   UNL     1      51.085   6.843  13.999  0.00  0.00    +0.000 HD
ENDBRANCH   8   9
ENDBRANCH   7   8
ENDBRANCH   1   7
BRANCH   4  12
ATOM     12  C   UNL     1      44.375   4.948  10.045  0.00  0.00    +0.000 C 
BRANCH  12  13
ATOM     13  N   UNL     1      44.749   3.663   9.468  0.00  0.00    +0.000 N 
ATOM     14  C   UNL     1      44.276   2.439   9.882  0.00  0.00    +0.000 A 
ATOM     15  C   UNL     1      44.876   1.467   9.109  0.00  0.00    +0.000 A 
ATOM     16  C   UNL     1      45.755   2.118   8.204  0.00  0.00    +0.000 A 
ATOM     17  C   UNL     1      46.624   1.695   7.184  0.00  0.00    +0.000 A 
ATOM     18  C   UNL     1      47.337   2.681   6.513  0.00  0.00    +0.000 A 
ATOM     19  F   UNL     1      48.173   2.342   5.522  0.00  0.00    +0.000 F 
ATOM     20  C   UNL     1      47.180   4.010   6.871  0.00  0.00    +0.000 A 
ATOM     21  N   UNL     1      46.363   4.472   7.849  0.00  0.00    +0.000 NA
ATOM     22  C   UNL     1      45.674   3.488   8.465  0.00  0.00    +0.000 A 
ENDBRANCH  12  13
ENDBRANCH   4  12
TORSDOF 5
ENDMDL
MODEL 5
REMARK VINA RESULT:    -6.495      2.995      6.696
REMARK INTER + INTRA:          -8.677
REMARK INTER:                  -8.144
REMARK INTRA:                  -0.534
REMARK UNBOUND:                -0.473
REMARK  Name = 
REMARK  5 active torsions:
REMARK  status: ('A' for Active; 'I' for Inactive)
REMARK    1  A    between atoms: N_1  and  C_2
REMARK    2  A    between atoms: C_2  and  C_3
REMARK    3  A    between atoms: C_3  and  C_4
REMARK    4  A    between atoms: C_7  and  C_8
REMARK    5  A    between atoms: C_8  and  N_9
REMARK                            x       y       z     vdW  Elec       q    Type
REMARK                         _______ _______ _______ _____ _____    ______ ____
ROOT
ATOM      1  C   UNL     1      47.605   6.476  13.419  0.00  0.00    +0.000 A 
ATOM      2  C   UNL     1      46.672   5.479  13.730  0.00  0.00    +0.000 A 
ATOM      3  C   UNL     1      45.665   5.137  12.822  0.00  0.00    +0.000 A 
ATOM      4  C   UNL     1      45.577   5.779  11.579  0.00  0.00    +0.000 A 
ATOM      5  C   UNL     1      46.530   6.757  11.260  0.00  0.00    +0.000 A 
ATOM      6  C   UNL     1      47.536   7.098  12.167  0.00  0.00    +0.000 A 
ENDROOT
BRANCH   1   7
ATOM      7  C   UNL     1      48.648   6.896  14.427  0.00  0.00    +0.000 C 
BRANCH   7   8
ATOM      8  C   UNL     1      48.709   8.413  14.632  0.00  0.00    +0.000 C 
BRANCH   8   9
ATOM      9  N   UNL     1      47.543   8.881  15.383  0.00  0.00    +0.000 NA
ATOM     10  H   UNL     1      46.846   8.138  15.427  0.00  0.00    +0.000 HD
ATOM     11  H   UNL     1      47.103   9.656  14.886  0.00  0.00    +0.000 HD
ENDBRANCH   8   9
ENDBRANCH   7   8
ENDBRANCH   1   7
BRANCH   4  12
ATOM     12  C   UNL     1      44.466   5.456  10.611  0.00  0.00    +0.000 C 
BRANCH  12  13
ATOM     13  N   UNL     1      44.639   4.142  10.005  0.00  0.00    +0.000 N 
ATOM     14  C   UNL     1      44.084   2.972  10.472  0.00  0.00    +0.000 A 
ATOM     15  C   UNL     1      44.494   1.947   9.648  0.00  0.00    +0.000 A 
ATOM     16  C   UNL     1      45.339   2.505   8.653  0.00  0.00    +0.000 A 
ATOM     17  C   UNL     1      46.048   1.998   7.551  0.00  0.00    +0.000 A 
ATOM     18  C   UNL     1      46.790   2.907   6.804  0.00  0.00    +0.000 A 
ATOM     19  F   UNL     1      47.478   2.487   5.735  0.00  0.00    +0.000 F 
ATOM     20  C   UNL     1      46.812   4.243   7.170  0.00  0.00    +0.000 A 
ATOM     21  N   UNL     1      46.154   4.784   8.224  0.00  0.00    +0.000 NA
ATOM     22  C   UNL     1      45.432   3.875   8.913  0.00  0.00    +0.000 A 
ENDBRANCH  12  13
ENDBRANCH   4  12
TORSDOF 5
ENDMDL
MODEL 6
REMARK VINA RESULT:    -6.175      2.794      6.657
REMARK INTER + INTRA:          -8.273
REMARK INTER:                  -7.948
REMARK INTRA:                  -0.324
REMARK UNBOUND:                -0.473
REMARK  Name = 
REMARK  5 active torsions:
REMARK  status: ('A' for Active; 'I' for Inactive)
REMARK    1  A    between atoms: N_1  and  C_2
REMARK    2  A    between atoms: C_2  and  C_3
REMARK    3  A    between atoms: C_3  and  C_4
REMARK    4  A    between atoms: C_7  and  C_8
REMARK    5  A    between atoms: C_8  and  N_9
REMARK                            x       y       z     vdW  Elec       q    Type
REMARK                         _______ _______ _______ _____ _____    ______ ____
ROOT
ATOM      1  C   UNL     1      47.904   7.574  13.555  0.00  0.00    +0.000 A 
ATOM      2  C   UNL     1      46.800   8.434  13.489  0.00  0.00    +0.000 A 
ATOM      3  C   UNL     1      45.686   8.104  12.711  0.00  0.00    +0.000 A 
ATOM      4  C   UNL     1      45.649   6.901  11.992  0.00  0.00    +0.000 A 
ATOM      5  C   UNL     1      46.744   6.030  12.084  0.00  0.00    +0.000 A 
ATOM      6  C   UNL     1      47.857   6.360  12.861  0.00  0.00    +0.000 A 
ENDROOT
BRANCH   1   7
ATOM      7  C   UNL     1      49.137   7.963  14.336  0.00  0.00    +0.000 C 
BRANCH   7   8
ATOM      8  C   UNL     1      49.451   6.999  15.483  0.00  0.00    +0.000 C 
BRANCH   8   9
ATOM      9  N   UNL     1      48.299   6.861  16.374  0.00  0.00    +0.000 NA
ATOM     10  H   UNL     1      47.891   5.933  16.260  0.00  0.00    +0.000 HD
ATOM     11  H   UNL     1      47.574   7.525  16.104  0.00  0.00    +0.000 HD
ENDBRANCH   8   9
ENDBRANCH   7   8
ENDBRANCH   1   7
BRANCH   4  12
ATOM     12  C   UNL     1      44.474   6.556  11.110  0.00  0.00    +0.000 C 
BRANCH  12  13
ATOM     13  N   UNL     1      44.373   5.122  10.876  0.00  0.00    +0.000 N 
ATOM     14  C   UNL     1      43.730   4.226  11.700  0.00  0.00    +0.000 A 
ATOM     15  C   UNL     1      43.871   2.968  11.155  0.00  0.00    +0.000 A 
ATOM     16  C   UNL     1      44.638   3.096   9.967  0.00  0.00    +0.000 A 
ATOM     17  C   UNL     1      45.107   2.208   8.985  0.00  0.00    +0.000 A 
ATOM     18  C   UNL     1      45.857   2.751   7.948  0.00  0.00    +0.000 A 
ATOM     19  F   UNL     1      46.322   1.956   6.975  0.00  0.00    +0.000 F 
ATOM     20  C   UNL     1      46.120   4.111   7.927  0.00  0.00    +0.000 A 
ATOM     21  N   UNL     1      45.698   5.011   8.849  0.00  0.00    +0.000 NA
ATOM     22  C   UNL     1      44.959   4.449   9.829  0.00  0.00    +0.000 A 
ENDBRANCH  12  13
ENDBRANCH   4  12
TORSDOF 5
ENDMDL
MODEL 7
REMARK VINA RESULT:    -5.738      4.178      7.695
REMARK INTER + INTRA:          -7.720
REMARK INTER:                  -7.466
REMARK INTRA:                  -0.255
REMARK UNBOUND:                -0.473
REMARK  Name = 
REMARK  5 active torsions:
REMARK  status: ('A' for Active; 'I' for Inactive)
REMARK    1  A    between atoms: N_1  and  C_2
REMARK    2  A    between atoms: C_2  and  C_3
REMARK    3  A    between atoms: C_3  and  C_4
REMARK    4  A    between atoms: C_7  and  C_8
REMARK    5  A    between atoms: C_8  and  N_9
REMARK                            x       y       z     vdW  Elec       q    Type
REMARK                         _______ _______ _______ _____ _____    ______ ____
ROOT
ATOM      1  C   UNL     1      50.714   2.803  17.502  0.00  0.00    +0.000 A 
ATOM      2  C   UNL     1      50.296   4.096  17.843  0.00  0.00    +0.000 A 
ATOM      3  C   UNL     1      49.063   4.586  17.398  0.00  0.00    +0.000 A 
ATOM      4  C   UNL     1      48.219   3.788  16.613  0.00  0.00    +0.000 A 
ATOM      5  C   UNL     1      48.630   2.485  16.298  0.00  0.00    +0.000 A 
ATOM      6  C   UNL     1      49.861   1.995  16.742  0.00  0.00    +0.000 A 
ENDROOT
BRANCH   1   7
ATOM      7  C   UNL     1      52.075   2.299  17.920  0.00  0.00    +0.000 C 
BRANCH   7   8
ATOM      8  C   UNL     1      52.386   0.897  17.389  0.00  0.00    +0.000 C 
BRANCH   8   9
ATOM      9  N   UNL     1      52.165  -0.110  18.428  0.00  0.00    +0.000 NA
ATOM     10  H   UNL     1      53.065  -0.438  18.779  0.00  0.00    +0.000 HD
ATOM     11  H   UNL     1      51.704  -0.925  18.024  0.00  0.00    +0.000 HD
ENDBRANCH   8   9
ENDBRANCH   7   8
ENDBRANCH   1   7
BRANCH   4  12
ATOM     12  C   UNL     1      46.911   4.322  16.085  0.00  0.00    +0.000 C 
BRANCH  12  13
ATOM     13  N   UNL     1      47.082   5.030  14.823  0.00  0.00    +0.000 N 
ATOM     14  C   UNL     1      48.044   5.981  14.571  0.00  0.00    +0.000 A 
ATOM     15  C   UNL     1      47.870   6.431  13.279  0.00  0.00    +0.000 A 
ATOM     16  C   UNL     1      46.757   5.743  12.729  0.00  0.00    +0.000 A 
ATOM     17  C   UNL     1      46.097   5.749  11.489  0.00  0.00    +0.000 A 
ATOM     18  C   UNL     1      45.004   4.900  11.350  0.00  0.00    +0.000 A 
ATOM     19  F   UNL     1      44.341   4.853  10.187  0.00  0.00    +0.000 F 
ATOM     20  C   UNL     1      44.607   4.109  12.415  0.00  0.00    +0.000 A 
ATOM     21  N   UNL     1      45.202   4.067  13.632  0.00  0.00    +0.000 NA
ATOM     22  C   UNL     1      46.268   4.890  13.722  0.00  0.00    +0.000 A 
ENDBRANCH  12  13
ENDBRANCH   4  12
TORSDOF 5
ENDMDL
MODEL 8
REMARK VINA RESULT:    -5.591      3.504      5.317
REMARK INTER + INTRA:          -7.536
REMARK INTER:                  -7.044
REMARK INTRA:                  -0.492
REMARK UNBOUND:                -0.473
REMARK  Name = 
REMARK  5 active torsions:
REMARK  status: ('A' for Active; 'I' for Inactive)
REMARK    1  A    between atoms: N_1  and  C_2
REMARK    2  A    between atoms: C_2  and  C_3
REMARK    3  A    between atoms: C_3  and  C_4
REMARK    4  A    between atoms: C_7  and  C_8
REMARK    5  A    between atoms: C_8  and  N_9
REMARK                            x       y       z     vdW  Elec       q    Type
REMARK                         _______ _______ _______ _____ _____    ______ ____
ROOT
ATOM      1  C   UNL     1      44.904   5.109  11.783  0.00  0.00    +0.000 A 
ATOM      2  C   UNL     1      45.474   4.656  12.980  0.00  0.00    +0.000 A 
ATOM      3  C   UNL     1      46.687   5.182  13.435  0.00  0.00    +0.000 A 
ATOM      4  C   UNL     1      47.350   6.180  12.707  0.00  0.00    +0.000 A 
ATOM      5  C   UNL     1      46.762   6.650  11.525  0.00  0.00    +0.000 A 
ATOM      6  C   UNL     1      45.550   6.125  11.070  0.00  0.00    +0.000 A 
ENDROOT
BRANCH   1   7
ATOM      7  C   UNL     1      43.632   4.490  11.254  0.00  0.00    +0.000 C 
BRANCH   7   8
ATOM      8  C   UNL     1      43.809   3.033  10.818  0.00  0.00    +0.000 C 
BRANCH   8   9
ATOM      9  N   UNL     1      43.042   2.137  11.685  0.00  0.00    +0.000 NA
ATOM     10  H   UNL     1      42.053   2.380  11.633  0.00  0.00    +0.000 HD
ATOM     11  H   UNL     1      43.319   2.278  12.656  0.00  0.00    +0.000 HD
ENDBRANCH   8   9
ENDBRANCH   7   8
ENDBRANCH   1   7
BRANCH   4  12
ATOM     12  C   UNL     1      48.684   6.720  13.161  0.00  0.00    +0.000 C 
BRANCH  12  13
ATOM     13  N   UNL     1      48.573   7.457  14.413  0.00  0.00    +0.000 N 
ATOM     14  C   UNL     1      48.252   8.790  14.525  0.00  0.00    +0.000 A 
ATOM     15  C   UNL     1      48.269   9.123  15.862  0.00  0.00    +0.000 A 
ATOM     16  C   UNL     1      48.627   7.959  16.592  0.00  0.00    +0.000 A 
ATOM     17  C   UNL     1      48.806   7.652  17.951  0.00  0.00    +0.000 A 
ATOM     18  C   UNL     1      49.178   6.349  18.261  0.00  0.00    +0.000 A 
ATOM     19  F   UNL     1      49.352   5.992  19.540  0.00  0.00    +0.000 F 
ATOM     20  C   UNL     1      49.366   5.426  17.245  0.00  0.00    +0.000 A 
ATOM     21  N   UNL     1      49.214   5.669  15.920  0.00  0.00    +0.000 NA
ATOM     22  C   UNL     1      48.835   6.938  15.660  0.00  0.00    +0.000 A 
ENDBRANCH  12  13
ENDBRANCH   4  12
TORSDOF 5
ENDMDL
MODEL 9
REMARK VINA RESULT:    -5.008      3.131      4.557
REMARK INTER + INTRA:          -6.799
REMARK INTER:                  -6.257
REMARK INTRA:                  -0.542
REMARK UNBOUND:                -0.473
REMARK  Name = 
REMARK  5 active torsions:
REMARK  status: ('A' for Active; 'I' for Inactive)
REMARK    1  A    between atoms: N_1  and  C_2
REMARK    2  A    between atoms: C_2  and  C_3
REMARK    3  A    between atoms: C_3  and  C_4
REMARK    4  A    between atoms: C_7  and  C_8
REMARK    5  A    between atoms: C_8  and  N_9
REMARK                            x       y       z     vdW  Elec       q    Type
REMARK                         _______ _______ _______ _____ _____    ______ ____
ROOT
ATOM      1  C   UNL     1      44.792   4.013  11.286  0.00  0.00    +0.000 A 
ATOM      2  C   UNL     1      44.640   5.258  10.663  0.00  0.00    +0.000 A 
ATOM      3  C   UNL     1      45.157   6.417  11.253  0.00  0.00    +0.000 A 
ATOM      4  C   UNL     1      45.845   6.351  12.472  0.00  0.00    +0.000 A 
ATOM      5  C   UNL     1      46.019   5.098  13.077  0.00  0.00    +0.000 A 
ATOM      6  C   UNL     1      45.503   3.941  12.489  0.00  0.00    +0.000 A 
ENDROOT
BRANCH   1   7
ATOM      7  C   UNL     1      44.171   2.773  10.688  0.00  0.00    +0.000 C 
BRANCH   7   8
ATOM      8  C   UNL     1      44.494   2.596   9.202  0.00  0.00    +0.000 C 
BRANCH   8   9
ATOM      9  N   UNL     1      45.570   1.620   9.017  0.00  0.00    +0.000 NA
ATOM     10  H   UNL     1      45.309   0.963   8.283  0.00  0.00    +0.000 HD
ATOM     11  H   UNL     1      45.681   1.067   9.867  0.00  0.00    +0.000 HD
ENDBRANCH   8   9
ENDBRANCH   7   8
ENDBRANCH   1   7
BRANCH   4  12
ATOM     12  C   UNL     1      46.364   7.599  13.143  0.00  0.00    +0.000 C 
BRANCH  12  13
ATOM     13  N   UNL     1      47.793   7.780  12.923  0.00  0.00    +0.000 N 
ATOM     14  C   UNL     1      48.376   8.100  11.719  0.00  0.00    +0.000 A 
ATOM     15  C   UNL     1      49.740   8.162  11.909  0.00  0.00    +0.000 A 
ATOM     16  C   UNL     1      50.000   7.854  13.271  0.00  0.00    +0.000 A 
ATOM     17  C   UNL     1      51.154   7.759  14.067  0.00  0.00    +0.000 A 
ATOM     18  C   UNL     1      50.974   7.414  15.401  0.00  0.00    +0.000 A 
ATOM     19  F   UNL     1      52.035   7.319  16.214  0.00  0.00    +0.000 F 
ATOM     20  C   UNL     1      49.699   7.170  15.884  0.00  0.00    +0.000 A 
ATOM     21  N   UNL     1      48.554   7.242  15.161  0.00  0.00    +0.000 NA
ATOM     22  C   UNL     1      48.768   7.596  13.876  0.00  0.00    +0.000 A 
ENDBRANCH  12  13
ENDBRANCH   4  12
TORSDOF 5
ENDMDL
