MODEL 1
REMARK VINA RESULT:    -8.517      0.000      0.000
REMARK INTER + INTRA:         -11.863
REMARK INTER:                 -11.006
REMARK INTRA:                  -0.857
REMARK UNBOUND:                -0.857
REMARK  Name = 
REMARK  8 active torsions:
REMARK  status: ('A' for Active; 'I' for Inactive)
REMARK    1  A    between atoms: C_1  and  N_2
REMARK    2  A    between atoms: N_5  and  C_6
REMARK    3  A    between atoms: C_10  and  C_11
REMARK    4  A    between atoms: C_11  and  C_12
REMARK    5  A    between atoms: C_11  and  C_13
REMARK    6  A    between atoms: C_11  and  C_14
REMARK    7  A    between atoms: C_14  and  N_15
REMARK    8  A    between atoms: C_19  and  C_20
REMARK                            x       y       z     vdW  Elec       q    Type
REMARK                         _______ _______ _______ _____ _____    ______ ____
ROOT
ATOM      1  C   UNL     1      43.748   4.762  11.923  0.00  0.00    +0.000 C 
ATOM      2  C   UNL     1      43.381   3.525  12.771  0.00  0.00    +0.000 C 
ATOM      3  C   UNL     1      42.675   5.854  12.160  0.00  0.00    +0.000 C 
ENDROOT
BRANCH   1   8
ATOM      4  C   UNL     1      46.940   5.542  13.916  0.00  0.00    +0.000 A 
ATOM      5  C   UNL     1      47.580   6.345  12.973  0.00  0.00    +0.000 A 
ATOM      6  C   UNL     1      46.956   6.611  11.775  0.00  0.00    +0.000 A 
ATOM      7  N   UNL     1      45.746   6.130  11.451  0.00  0.00    +0.000 NA
ATOM      8  C   UNL     1      45.117   5.318  12.329  0.00  0.00    +0.000 A 
ATOM      9  C   UNL     1      45.687   5.021  13.570  0.00  0.00    +0.000 A 
BRANCH   4  14
ATOM     10  C   UNL     1      48.583   5.336  19.248  0.00  0.00    +0.000 C 
ATOM     11  N   UNL     1      48.666   5.098  17.809  0.00  0.00    +0.000 NA
ATOM     12  C   UNL     1      47.523   4.269  17.355  0.00  0.00    +0.000 C 
ATOM     13  C   UNL     1      47.519   4.042  15.823  0.00  0.00    +0.000 C 
ATOM     14  N   UNL     1      47.525   5.349  15.155  0.00  0.00    +0.000 N 
ATOM     15  C   UNL     1      48.667   6.197  15.539  0.00  0.00    +0.000 C 
ATOM     16  C   UNL     1      48.665   6.385  17.073  0.00  0.00    +0.000 C 
ENDBRANCH   4  14
ENDBRANCH   1   8
BRANCH   1  17
ATOM     17  C   UNL     1      43.676   4.391  10.408  0.00  0.00    +0.000 C 
BRANCH  17  18
ATOM     18  N   UNL     1      44.015   2.992  10.113  0.00  0.00    +0.000 N 
ATOM     19  C   UNL     1      44.945   2.833   9.084  0.00  0.00    +0.000 A 
ATOM     20  C   UNL     1      45.416   1.553   8.795  0.00  0.00    +0.000 A 
ATOM     21  C   UNL     1      46.345   1.382   7.769  0.00  0.00    +0.000 A 
ATOM     22  C   UNL     1      46.796   2.490   7.053  0.00  0.00    +0.000 A 
ATOM     23  C   UNL     1      46.294   3.726   7.424  0.00  0.00    +0.000 A 
ATOM     24  N   UNL     1      45.390   3.913   8.411  0.00  0.00    +0.000 NA
ATOM     25  H   UNL     1      43.222   2.381   9.979  0.00  0.00    +0.000 HD
BRANCH  22  26
ATOM     26  C   UNL     1      47.764   2.312   5.945  0.00  0.00    +0.000 C 
ATOM     27  N   UNL     1      47.727   3.179   4.887  0.00  0.00    +0.000 N 
ATOM     28  O   UNL     1      48.580   1.400   5.964  0.00  0.00    +0.000 OA
ATOM     29  H   UNL     1      47.104   3.960   4.774  0.00  0.00    +0.000 HD
ATOM     30  H   UNL     1      48.402   3.011   4.149  0.00  0.00    +0.000 HD
ENDBRANCH  22  26
ENDBRANCH  17  18
ENDBRANCH   1  17
TORSDOF 5
ENDMDL
MODEL 2
REMARK VINA RESULT:    -8.332      1.826      2.394
REMARK INTER + INTRA:         -11.624
REMARK INTER:                 -10.591
REMARK INTRA:                  -1.033
REMARK UNBOUND:                -0.857
REMARK  Name = 
REMARK  8 active torsions:
REMARK  status: ('A' for Active; 'I' for Inactive)
REMARK    1  A    between atoms: C_1  and  N_2
REMARK    2  A    between atoms: N_5  and  C_6
REMARK    3  A    between atoms: C_10  and  C_11
REMARK    4  A    between atoms: C_11  and  C_12
REMARK    5  A    between atoms: C_11  and  C_13
REMARK    6  A    between atoms: C_11  and  C_14
REMARK    7  A    between atoms: C_14  and  N_15
REMARK    8  A    between atoms: C_19  and  C_20
REMARK                            x       y       z     vdW  Elec       q    Type
REMARK                         _______ _______ _______ _____ _____    ______ ____
ROOT
ATOM      1  C   UNL     1      44.211   4.755  12.338  0.00  0.00    +0.000 C 
ATOM      2  C   UNL     1      44.990   3.482  12.732  0.00  0.00    +0.000 C 
ATOM      3  C   UNL     1      42.953   4.858  13.236  0.00  0.00    +0.000 C 
ENDROOT
BRANCH   1   8
ATOM      4  C   UNL     1      47.088   7.101  13.334  0.00  0.00    +0.000 A 
ATOM      5  C   UNL     1      46.548   8.298  12.865  0.00  0.00    +0.000 A 
ATOM      6  C   UNL     1      45.300   8.297  12.284  0.00  0.00    +0.000 A 
ATOM      7  N   UNL     1      44.557   7.189  12.134  0.00  0.00    +0.000 NA
ATOM      8  C   UNL     1      45.069   6.008  12.545  0.00  0.00    +0.000 A 
ATOM      9  C   UNL     1      46.324   5.940  13.158  0.00  0.00    +0.000 A 
BRANCH   4  14
ATOM     10  C   UNL     1      51.772   8.095  16.205  0.00  0.00    +0.000 C 
ATOM     11  N   UNL     1      50.845   7.331  15.374  0.00  0.00    +0.000 NA
ATOM     12  C   UNL     1      49.569   7.104  16.095  0.00  0.00    +0.000 C 
ATOM     13  C   UNL     1      48.520   6.357  15.236  0.00  0.00    +0.000 C 
ATOM     14  N   UNL     1      48.301   7.116  13.998  0.00  0.00    +0.000 N 
ATOM     15  C   UNL     1      49.534   7.332  13.219  0.00  0.00    +0.000 C 
ATOM     16  C   UNL     1      50.573   8.052  14.106  0.00  0.00    +0.000 C 
ENDBRANCH   4  14
ENDBRANCH   1   8
BRANCH   1  17
ATOM     17  C   UNL     1      43.698   4.614  10.870  0.00  0.00    +0.000 C 
BRANCH  17  18
ATOM     18  N   UNL     1      44.589   5.201   9.861  0.00  0.00    +0.000 N 
ATOM     19  C   UNL     1      45.267   4.263   9.079  0.00  0.00    +0.000 A 
ATOM     20  C   UNL     1      46.055   4.712   8.021  0.00  0.00    +0.000 A 
ATOM     21  C   UNL     1      46.737   3.784   7.235  0.00  0.00    +0.000 A 
ATOM     22  C   UNL     1      46.614   2.423   7.510  0.00  0.00    +0.000 A 
ATOM     23  C   UNL     1      45.790   2.065   8.563  0.00  0.00    +0.000 A 
ATOM     24  N   UNL     1      45.126   2.948   9.341  0.00  0.00    +0.000 NA
ATOM     25  H   UNL     1      45.225   5.905  10.211  0.00  0.00    +0.000 HD
BRANCH  22  26
ATOM     26  C   UNL     1      47.356   1.433   6.693  0.00  0.00    +0.000 C 
ATOM     27  N   UNL     1      48.365   1.868   5.878  0.00  0.00    +0.000 N 
ATOM     28  O   UNL     1      47.071   0.243   6.736  0.00  0.00    +0.000 OA
ATOM     29  H   UNL     1      48.681   2.816   5.772  0.00  0.00    +0.000 HD
ATOM     30  H   UNL     1      48.837   1.155   5.332  0.00  0.00    +0.000 HD
ENDBRANCH  22  26
ENDBRANCH  17  18
ENDBRANCH   1  17
TORSDOF 5
ENDMDL
MODEL 3
REMARK VINA RESULT:    -7.057      3.000      8.527
REMARK INTER + INTRA:          -9.977
REMARK INTER:                  -9.125
REMARK INTRA:                  -0.852
REMARK UNBOUND:                -0.857
REMARK  Name = 
REMARK  8 active torsions:
REMARK  status: ('A' for Active; 'I' for Inactive)
REMARK    1  A    between atoms: C_1  and  N_2
REMARK    2  A    between atoms: N_5  and  C_6
REMARK    3  A    between atoms: C_10  and  C_11
REMARK    4  A    between atoms: C_11  and  C_12
REMARK    5  A    between atoms: C_11  and  C_13
REMARK    6  A    between atoms: C_11  and  C_14
REMARK    7  A    between atoms: C_14  and  N_15
REMARK    8  A    between atoms: C_19  and  C_20
REMARK                            x       y       z     vdW  Elec       q    Type
REMARK                         _______ _______ _______ _____ _____    ______ ____
ROOT
ATOM      1  C   UNL     1      46.543   7.618  12.437  0.00  0.00    +0.000 C 
ATOM      2  C   UNL     1      47.560   8.098  11.380  0.00  0.00    +0.000 C 
ATOM      3  C   UNL     1      45.706   8.836  12.901  0.00  0.00    +0.000 C 
ENDROOT
BRANCH   1   8
ATOM      4  C   UNL     1      45.133   4.730  10.329  0.00  0.00    +0.000 A 
ATOM      5  C   UNL     1      43.844   4.698  10.861  0.00  0.00    +0.000 A 
ATOM      6  C   UNL     1      43.491   5.603  11.836  0.00  0.00    +0.000 A 
ATOM      7  N   UNL     1      44.331   6.532  12.320  0.00  0.00    +0.000 NA
ATOM      8  C   UNL     1      45.597   6.565  11.850  0.00  0.00    +0.000 A 
ATOM      9  C   UNL     1      46.017   5.684  10.848  0.00  0.00    +0.000 A 
BRANCH   4  14
ATOM     10  C   UNL     1      47.341   1.284   6.532  0.00  0.00    +0.000 C 
ATOM     11  N   UNL     1      46.324   2.145   7.132  0.00  0.00    +0.000 NA
ATOM     12  C   UNL     1      45.919   1.621   8.459  0.00  0.00    +0.000 C 
ATOM     13  C   UNL     1      44.892   2.532   9.175  0.00  0.00    +0.000 C 
ATOM     14  N   UNL     1      45.460   3.882   9.287  0.00  0.00    +0.000 N 
ATOM     15  C   UNL     1      45.839   4.466   7.989  0.00  0.00    +0.000 C 
ATOM     16  C   UNL     1      46.842   3.526   7.283  0.00  0.00    +0.000 C 
ENDBRANCH   4  14
ENDBRANCH   1   8
BRANCH   1  17
ATOM     17  C   UNL     1      47.309   7.102  13.695  0.00  0.00    +0.000 C 
BRANCH  17  18
ATOM     18  N   UNL     1      46.946   5.740  14.107  0.00  0.00    +0.000 N 
ATOM     19  C   UNL     1      47.501   5.340  15.324  0.00  0.00    +0.000 A 
ATOM     20  C   UNL     1      47.135   4.106  15.858  0.00  0.00    +0.000 A 
ATOM     21  C   UNL     1      47.685   3.697  17.073  0.00  0.00    +0.000 A 
ATOM     22  C   UNL     1      48.583   4.529  17.740  0.00  0.00    +0.000 A 
ATOM     23  C   UNL     1      48.870   5.748  17.149  0.00  0.00    +0.000 A 
ATOM     24  N   UNL     1      48.354   6.160  15.971  0.00  0.00    +0.000 NA
ATOM     25  H   UNL     1      47.081   5.031  13.399  0.00  0.00    +0.000 HD
BRANCH  22  26
ATOM     26  C   UNL     1      49.190   4.090  19.019  0.00  0.00    +0.000 C 
ATOM     27  N   UNL     1      48.480   3.253  19.836  0.00  0.00    +0.000 N 
ATOM     28  O   UNL     1      50.305   4.472  19.350  0.00  0.00    +0.000 OA
ATOM     29  H   UNL     1      47.565   2.877  19.659  0.00  0.00    +0.000 HD
ATOM     30  H   UNL     1      48.933   2.987  20.704  0.00  0.00    +0.000 HD
ENDBRANCH  22  26
ENDBRANCH  17  18
ENDBRANCH   1  17
TORSDOF 5
ENDMDL
MODEL 4
REMARK VINA RESULT:    -6.967      3.609      8.069
REMARK INTER + INTRA:          -9.860
REMARK INTER:                  -8.799
REMARK INTRA:                  -1.061
REMARK UNBOUND:                -0.857
REMARK  Name = 
REMARK  8 active torsions:
REMARK  status: ('A' for Active; 'I' for Inactive)
REMARK    1  A    between atoms: C_1  and  N_2
REMARK    2  A    between atoms: N_5  and  C_6
REMARK    3  A    between atoms: C_10  and  C_11
REMARK    4  A    between atoms: C_11  and  C_12
REMARK    5  A    between atoms: C_11  and  C_13
REMARK    6  A    between atoms: C_11  and  C_14
REMARK    7  A    between atoms: C_14  and  N_15
REMARK    8  A    between atoms: C_19  and  C_20
REMARK                            x       y       z     vdW  Elec       q    Type
REMARK                         _______ _______ _______ _____ _____    ______ ____
ROOT
ATOM      1  C   UNL     1      48.671   9.179  12.652  0.00  0.00    +0.000 C 
ATOM      2  C   UNL     1      49.503   9.717  11.469  0.00  0.00    +0.000 C 
ATOM      3  C   UNL     1      48.756  10.200  13.815  0.00  0.00    +0.000 C 
ENDROOT
BRANCH   1   8
ATOM      4  C   UNL     1      45.290   7.606  11.720  0.00  0.00    +0.000 A 
ATOM      5  C   UNL     1      44.556   8.780  11.556  0.00  0.00    +0.000 A 
ATOM      6  C   UNL     1      45.177   9.997  11.727  0.00  0.00    +0.000 A 
ATOM      7  N   UNL     1      46.473  10.125  12.053  0.00  0.00    +0.000 NA
ATOM      8  C   UNL     1      47.201   9.005  12.255  0.00  0.00    +0.000 A 
ATOM      9  C   UNL     1      46.637   7.738  12.082  0.00  0.00    +0.000 A 
BRANCH   4  14
ATOM     10  C   UNL     1      43.212   2.428  11.549  0.00  0.00    +0.000 C 
ATOM     11  N   UNL     1      43.547   3.756  11.041  0.00  0.00    +0.000 NA
ATOM     12  C   UNL     1      42.859   4.803  11.836  0.00  0.00    +0.000 C 
ATOM     13  C   UNL     1      43.232   6.237  11.387  0.00  0.00    +0.000 C 
ATOM     14  N   UNL     1      44.691   6.387  11.460  0.00  0.00    +0.000 N 
ATOM     15  C   UNL     1      45.422   5.396  10.651  0.00  0.00    +0.000 C 
ATOM     16  C   UNL     1      45.012   3.975  11.098  0.00  0.00    +0.000 C 
ENDBRANCH   4  14
ENDBRANCH   1   8
BRANCH   1  17
ATOM     17  C   UNL     1      49.312   7.856  13.176  0.00  0.00    +0.000 C 
BRANCH  17  18
ATOM     18  N   UNL     1      49.654   7.876  14.604  0.00  0.00    +0.000 N 
ATOM     19  C   UNL     1      49.110   6.821  15.339  0.00  0.00    +0.000 A 
ATOM     20  C   UNL     1      49.460   6.685  16.682  0.00  0.00    +0.000 A 
ATOM     21  C   UNL     1      48.921   5.634  17.425  0.00  0.00    +0.000 A 
ATOM     22  C   UNL     1      48.051   4.732  16.816  0.00  0.00    +0.000 A 
ATOM     23  C   UNL     1      47.779   4.928  15.473  0.00  0.00    +0.000 A 
ATOM     24  N   UNL     1      48.285   5.942  14.737  0.00  0.00    +0.000 NA
ATOM     25  H   UNL     1      49.493   8.759  15.069  0.00  0.00    +0.000 HD
BRANCH  22  26
ATOM     26  C   UNL     1      47.455   3.629  17.607  0.00  0.00    +0.000 C 
ATOM     27  N   UNL     1      48.108   3.188  18.726  0.00  0.00    +0.000 N 
ATOM     28  O   UNL     1      46.400   3.109  17.267  0.00  0.00    +0.000 OA
ATOM     29  H   UNL     1      48.972   3.546  19.094  0.00  0.00    +0.000 HD
ATOM     30  H   UNL     1      47.667   2.425  19.228  0.00  0.00    +0.000 HD
ENDBRANCH  22  26
ENDBRANCH  17  18
ENDBRANCH   1  17
TORSDOF 5
ENDMDL
MODEL 5
REMARK VINA RESULT:    -6.659      4.071      6.683
REMARK INTER + INTRA:          -9.462
REMARK INTER:                  -8.582
REMARK INTRA:                  -0.880
REMARK UNBOUND:                -0.857
REMARK  Name = 
REMARK  8 active torsions:
REMARK  status: ('A' for Active; 'I' for Inactive)
REMARK    1  A    between atoms: C_1  and  N_2
REMARK    2  A    between atoms: N_5  and  C_6
REMARK    3  A    between atoms: C_10  and  C_11
REMARK    4  A    between atoms: C_11  and  C_12
REMARK    5  A    between atoms: C_11  and  C_13
REMARK    6  A    between atoms: C_11  and  C_14
REMARK    7  A    between atoms: C_14  and  N_15
REMARK    8  A    between atoms: C_19  and  C_20
REMARK                            x       y       z     vdW  Elec       q    Type
REMARK                         _______ _______ _______ _____ _____    ______ ____
ROOT
ATOM      1  C   UNL     1      47.794   4.086  17.532  0.00  0.00    +0.000 C 
ATOM      2  C   UNL     1      47.443   2.845  18.381  0.00  0.00    +0.000 C 
ATOM      3  C   UNL     1      47.136   5.328  18.185  0.00  0.00    +0.000 C 
ENDROOT
BRANCH   1   8
ATOM      4  C   UNL     1      51.587   3.484  17.670  0.00  0.00    +0.000 A 
ATOM      5  C   UNL     1      52.011   4.773  17.346  0.00  0.00    +0.000 A 
ATOM      6  C   UNL     1      51.076   5.759  17.127  0.00  0.00    +0.000 A 
ATOM      7  N   UNL     1      49.752   5.549  17.202  0.00  0.00    +0.000 NA
ATOM      8  C   UNL     1      49.310   4.303  17.478  0.00  0.00    +0.000 A 
ATOM      9  C   UNL     1      50.206   3.259  17.727  0.00  0.00    +0.000 A 
BRANCH   4  14
ATOM     10  C   UNL     1      55.775  -0.187  18.058  0.00  0.00    +0.000 C 
ATOM     11  N   UNL     1      54.534   0.477  18.447  0.00  0.00    +0.000 NA
ATOM     12  C   UNL     1      54.781   1.913  18.726  0.00  0.00    +0.000 C 
ATOM     13  C   UNL     1      53.486   2.686  19.077  0.00  0.00    +0.000 C 
ATOM     14  N   UNL     1      52.526   2.517  17.979  0.00  0.00    +0.000 N 
ATOM     15  C   UNL     1      52.212   1.106  17.690  0.00  0.00    +0.000 C 
ATOM     16  C   UNL     1      53.521   0.351  17.371  0.00  0.00    +0.000 C 
ENDBRANCH   4  14
ENDBRANCH   1   8
BRANCH   1  17
ATOM     17  C   UNL     1      47.157   3.941  16.115  0.00  0.00    +0.000 C 
BRANCH  17  18
ATOM     18  N   UNL     1      47.374   5.095  15.234  0.00  0.00    +0.000 N 
ATOM     19  C   UNL     1      46.703   5.019  14.012  0.00  0.00    +0.000 A 
ATOM     20  C   UNL     1      46.755   6.110  13.146  0.00  0.00    +0.000 A 
ATOM     21  C   UNL     1      46.088   6.045  11.922  0.00  0.00    +0.000 A 
ATOM     22  C   UNL     1      45.374   4.895  11.586  0.00  0.00    +0.000 A 
ATOM     23  C   UNL     1      45.356   3.871  12.516  0.00  0.00    +0.000 A 
ATOM     24  N   UNL     1      45.999   3.912  13.704  0.00  0.00    +0.000 NA
ATOM     25  H   UNL     1      48.342   5.351  15.098  0.00  0.00    +0.000 HD
BRANCH  22  26
ATOM     26  C   UNL     1      44.685   4.809  10.276  0.00  0.00    +0.000 C 
ATOM     27  N   UNL     1      45.334   5.252   9.156  0.00  0.00    +0.000 N 
ATOM     28  O   UNL     1      43.550   4.359  10.192  0.00  0.00    +0.000 OA
ATOM     29  H   UNL     1      46.263   5.633   9.113  0.00  0.00    +0.000 HD
ATOM     30  H   UNL     1      44.818   5.181   8.285  0.00  0.00    +0.000 HD
ENDBRANCH  22  26
ENDBRANCH  17  18
ENDBRANCH   1  17
TORSDOF 5
ENDMDL
MODEL 6
REMARK VINA RESULT:    -6.504      2.910      5.229
REMARK INTER + INTRA:          -9.261
REMARK INTER:                  -8.148
REMARK INTRA:                  -1.113
REMARK UNBOUND:                -0.857
REMARK  Name = 
REMARK  8 active torsions:
REMARK  status: ('A' for Active; 'I' for Inactive)
REMARK    1  A    between atoms: C_1  and  N_2
REMARK    2  A    between atoms: N_5  and  C_6
REMARK    3  A    between atoms: C_10  and  C_11
REMARK    4  A    between atoms: C_11  and  C_12
REMARK    5  A    between atoms: C_11  and  C_13
REMARK    6  A    between atoms: C_11  and  C_14
REMARK    7  A    between atoms: C_14  and  N_15
REMARK    8  A    between atoms: C_19  and  C_20
REMARK                            x       y       z     vdW  Elec       q    Type
REMARK                         _______ _______ _______ _____ _____    ______ ____
ROOT
ATOM      1  C   UNL     1      48.556   8.643  13.036  0.00  0.00    +0.000 C 
ATOM      2  C   UNL     1      49.176  10.028  12.749  0.00  0.00    +0.000 C 
ATOM      3  C   UNL     1      49.358   7.575  12.250  0.00  0.00    +0.000 C 
ENDROOT
BRANCH   1   8
ATOM      4  C   UNL     1      49.174   6.807  16.355  0.00  0.00    +0.000 A 
ATOM      5  C   UNL     1      48.731   7.802  17.226  0.00  0.00    +0.000 A 
ATOM      6  C   UNL     1      48.243   8.983  16.713  0.00  0.00    +0.000 A 
ATOM      7  N   UNL     1      48.171   9.241  15.398  0.00  0.00    +0.000 NA
ATOM      8  C   UNL     1      48.627   8.311  14.531  0.00  0.00    +0.000 A 
ATOM      9  C   UNL     1      49.120   7.084  14.983  0.00  0.00    +0.000 A 
BRANCH   4  14
ATOM     10  C   UNL     1      50.968   1.641  17.482  0.00  0.00    +0.000 C 
ATOM     11  N   UNL     1      50.398   2.955  17.769  0.00  0.00    +0.000 NA
ATOM     12  C   UNL     1      51.375   4.025  17.451  0.00  0.00    +0.000 C 
ATOM     13  C   UNL     1      50.800   5.446  17.669  0.00  0.00    +0.000 C 
ATOM     14  N   UNL     1      49.579   5.587  16.866  0.00  0.00    +0.000 N 
ATOM     15  C   UNL     1      48.556   4.572  17.175  0.00  0.00    +0.000 C 
ATOM     16  C   UNL     1      49.161   3.165  16.977  0.00  0.00    +0.000 C 
ENDBRANCH   4  14
ENDBRANCH   1   8
BRANCH   1  17
ATOM     17  C   UNL     1      47.099   8.603  12.480  0.00  0.00    +0.000 C 
BRANCH  17  18
ATOM     18  N   UNL     1      46.177   7.769  13.262  0.00  0.00    +0.000 N 
ATOM     19  C   UNL     1      45.642   6.688  12.558  0.00  0.00    +0.000 A 
ATOM     20  C   UNL     1      44.840   5.773  13.237  0.00  0.00    +0.000 A 
ATOM     21  C   UNL     1      44.300   4.690  12.543  0.00  0.00    +0.000 A 
ATOM     22  C   UNL     1      44.577   4.533  11.186  0.00  0.00    +0.000 A 
ATOM     23  C   UNL     1      45.403   5.475  10.598  0.00  0.00    +0.000 A 
ATOM     24  N   UNL     1      45.931   6.534  11.250  0.00  0.00    +0.000 NA
ATOM     25  H   UNL     1      45.451   8.277  13.748  0.00  0.00    +0.000 HD
BRANCH  22  26
ATOM     26  C   UNL     1      43.986   3.398  10.437  0.00  0.00    +0.000 C 
ATOM     27  N   UNL     1      44.248   3.278   9.099  0.00  0.00    +0.000 N 
ATOM     28  O   UNL     1      43.265   2.582  10.998  0.00  0.00    +0.000 OA
ATOM     29  H   UNL     1      44.826   3.887   8.546  0.00  0.00    +0.000 HD
ATOM     30  H   UNL     1      43.813   2.492   8.629  0.00  0.00    +0.000 HD
ENDBRANCH  22  26
ENDBRANCH  17  18
ENDBRANCH   1  17
TORSDOF 5
ENDMDL
MODEL 7
REMARK VINA RESULT:    -6.177      3.809      6.639
REMARK INTER + INTRA:          -8.840
REMARK INTER:                  -8.163
REMARK INTRA:                  -0.677
REMARK UNBOUND:                -0.857
REMARK  Name = 
REMARK  8 active torsions:
REMARK  status: ('A' for Active; 'I' for Inactive)
REMARK    1  A    between atoms: C_1  and  N_2
REMARK    2  A    between atoms: N_5  and  C_6
REMARK    3  A    between atoms: C_10  and  C_11
REMARK    4  A    between atoms: C_11  and  C_12
REMARK    5  A    between atoms: C_11  and  C_13
REMARK    6  A    between atoms: C_11  and  C_14
REMARK    7  A    between atoms: C_14  and  N_15
REMARK    8  A    between atoms: C_19  and  C_20
REMARK                            x       y       z     vdW  Elec       q    Type
REMARK                         _______ _______ _______ _____ _____    ______ ____
ROOT
ATOM      1  C   UNL     1      48.009   3.626  17.044  0.00  0.00    +0.000 C 
ATOM      2  C   UNL     1      47.039   2.730  17.843  0.00  0.00    +0.000 C 
ATOM      3  C   UNL     1      47.813   5.093  17.505  0.00  0.00    +0.000 C 
ENDROOT
BRANCH   1   8
ATOM      4  C   UNL     1      51.695   3.696  18.131  0.00  0.00    +0.000 A 
ATOM      5  C   UNL     1      52.052   2.409  17.730  0.00  0.00    +0.000 A 
ATOM      6  C   UNL     1      51.115   1.605  17.121  0.00  0.00    +0.000 A 
ATOM      7  N   UNL     1      49.850   1.992  16.889  0.00  0.00    +0.000 NA
ATOM      8  C   UNL     1      49.465   3.220  17.299  0.00  0.00    +0.000 A 
ATOM      9  C   UNL     1      50.370   4.093  17.909  0.00  0.00    +0.000 A 
BRANCH   4  14
ATOM     10  C   UNL     1      55.226   6.809  21.133  0.00  0.00    +0.000 C 
ATOM     11  N   UNL     1      54.579   6.302  19.925  0.00  0.00    +0.000 NA
ATOM     12  C   UNL     1      54.814   4.844  19.785  0.00  0.00    +0.000 C 
ATOM     13  C   UNL     1      54.093   4.237  18.557  0.00  0.00    +0.000 C 
ATOM     14  N   UNL     1      52.659   4.535  18.660  0.00  0.00    +0.000 N 
ATOM     15  C   UNL     1      52.368   5.977  18.758  0.00  0.00    +0.000 C 
ATOM     16  C   UNL     1      53.120   6.565  19.973  0.00  0.00    +0.000 C 
ENDBRANCH   4  14
ENDBRANCH   1   8
BRANCH   1  17
ATOM     17  C   UNL     1      47.629   3.582  15.532  0.00  0.00    +0.000 C 
BRANCH  17  18
ATOM     18  N   UNL     1      47.379   4.899  14.933  0.00  0.00    +0.000 N 
ATOM     19  C   UNL     1      46.479   4.883  13.866  0.00  0.00    +0.000 A 
ATOM     20  C   UNL     1      46.090   6.094  13.296  0.00  0.00    +0.000 A 
ATOM     21  C   UNL     1      45.191   6.090  12.228  0.00  0.00    +0.000 A 
ATOM     22  C   UNL     1      44.689   4.879  11.753  0.00  0.00    +0.000 A 
ATOM     23  C   UNL     1      45.110   3.727  12.396  0.00  0.00    +0.000 A 
ATOM     24  N   UNL     1      45.983   3.709  13.426  0.00  0.00    +0.000 NA
ATOM     25  H   UNL     1      48.210   5.424  14.696  0.00  0.00    +0.000 HD
BRANCH  22  26
ATOM     26  C   UNL     1      43.754   4.866  10.603  0.00  0.00    +0.000 C 
ATOM     27  N   UNL     1      44.203   4.425   9.388  0.00  0.00    +0.000 N 
ATOM     28  O   UNL     1      42.598   5.250  10.729  0.00  0.00    +0.000 OA
ATOM     29  H   UNL     1      45.126   4.086   9.179  0.00  0.00    +0.000 HD
ATOM     30  H   UNL     1      43.530   4.444   8.630  0.00  0.00    +0.000 HD
ENDBRANCH  22  26
ENDBRANCH  17  18
ENDBRANCH   1  17
TORSDOF 5
ENDMDL
MODEL 8
REMARK VINA RESULT:    -6.175      3.943      8.807
REMARK INTER + INTRA:          -8.837
REMARK INTER:                  -8.121
REMARK INTRA:                  -0.715
REMARK UNBOUND:                -0.857
REMARK  Name = 
REMARK  8 active torsions:
REMARK  status: ('A' for Active; 'I' for Inactive)
REMARK    1  A    between atoms: C_1  and  N_2
REMARK    2  A    between atoms: N_5  and  C_6
REMARK    3  A    between atoms: C_10  and  C_11
REMARK    4  A    between atoms: C_11  and  C_12
REMARK    5  A    between atoms: C_11  and  C_13
REMARK    6  A    between atoms: C_11  and  C_14
REMARK    7  A    between atoms: C_14  and  N_15
REMARK    8  A    between atoms: C_19  and  C_20
REMARK                            x       y       z     vdW  Elec       q    Type
REMARK                         _______ _______ _______ _____ _____    ______ ____
ROOT
ATOM      1  C   UNL     1      49.456   8.019  15.695  0.00  0.00    +0.000 C 
ATOM      2  C   UNL     1      50.743   8.870  15.740  0.00  0.00    +0.000 C 
ATOM      3  C   UNL     1      48.342   8.776  16.461  0.00  0.00    +0.000 C 
ENDROOT
BRANCH   1   8
ATOM      4  C   UNL     1      47.508   6.787  12.619  0.00  0.00    +0.000 A 
ATOM      5  C   UNL     1      48.231   7.460  11.635  0.00  0.00    +0.000 A 
ATOM      6  C   UNL     1      49.304   8.243  11.999  0.00  0.00    +0.000 A 
ATOM      7  N   UNL     1      49.700   8.406  13.271  0.00  0.00    +0.000 NA
ATOM      8  C   UNL     1      48.997   7.796  14.250  0.00  0.00    +0.000 A 
ATOM      9  C   UNL     1      47.908   6.973  13.949  0.00  0.00    +0.000 A 
BRANCH   4  14
ATOM     10  C   UNL     1      44.090   2.854  10.617  0.00  0.00    +0.000 C 
ATOM     11  N   UNL     1      44.457   4.078  11.324  0.00  0.00    +0.000 NA
ATOM     12  C   UNL     1      45.353   3.768  12.465  0.00  0.00    +0.000 C 
ATOM     13  C   UNL     1      45.832   5.037  13.211  0.00  0.00    +0.000 C 
ATOM     14  N   UNL     1      46.489   5.929  12.248  0.00  0.00    +0.000 N 
ATOM     15  C   UNL     1      45.625   6.303  11.114  0.00  0.00    +0.000 C 
ATOM     16  C   UNL     1      45.138   5.021  10.403  0.00  0.00    +0.000 C 
ENDBRANCH   4  14
ENDBRANCH   1   8
BRANCH   1  17
ATOM     17  C   UNL     1      49.693   6.682  16.464  0.00  0.00    +0.000 C 
BRANCH  17  18
ATOM     18  N   UNL     1      51.058   6.514  16.977  0.00  0.00    +0.000 N 
ATOM     19  C   UNL     1      51.409   5.191  17.253  0.00  0.00    +0.000 A 
ATOM     20  C   UNL     1      52.717   4.910  17.643  0.00  0.00    +0.000 A 
ATOM     21  C   UNL     1      53.079   3.591  17.922  0.00  0.00    +0.000 A 
ATOM     22  C   UNL     1      52.133   2.575  17.798  0.00  0.00    +0.000 A 
ATOM     23  C   UNL     1      50.865   2.942  17.380  0.00  0.00    +0.000 A 
ATOM     24  N   UNL     1      50.493   4.213  17.111  0.00  0.00    +0.000 NA
ATOM     25  H   UNL     1      51.300   7.120  17.750  0.00  0.00    +0.000 HD
BRANCH  22  26
ATOM     26  C   UNL     1      52.504   1.176  18.117  0.00  0.00    +0.000 C 
ATOM     27  N   UNL     1      51.540   0.206  18.063  0.00  0.00    +0.000 N 
ATOM     28  O   UNL     1      53.651   0.886  18.433  0.00  0.00    +0.000 OA
ATOM     29  H   UNL     1      50.575   0.334  17.812  0.00  0.00    +0.000 HD
ATOM     30  H   UNL     1      51.840  -0.734  18.299  0.00  0.00    +0.000 HD
ENDBRANCH  22  26
ENDBRANCH  17  18
ENDBRANCH   1  17
TORSDOF 5
ENDMDL
MODEL 9
REMARK VINA RESULT:    -6.173      4.570      9.124
REMARK INTER + INTRA:          -8.834
REMARK INTER:                  -8.153
REMARK INTRA:                  -0.681
REMARK UNBOUND:                -0.857
REMARK  Name = 
REMARK  8 active torsions:
REMARK  status: ('A' for Active; 'I' for Inactive)
REMARK    1  A    between atoms: C_1  and  N_2
REMARK    2  A    between atoms: N_5  and  C_6
REMARK    3  A    between atoms: C_10  and  C_11
REMARK    4  A    between atoms: C_11  and  C_12
REMARK    5  A    between atoms: C_11  and  C_13
REMARK    6  A    between atoms: C_11  and  C_14
REMARK    7  A    between atoms: C_14  and  N_15
REMARK    8  A    between atoms: C_19  and  C_20
REMARK                            x       y       z     vdW  Elec       q    Type
REMARK                         _______ _______ _______ _____ _____    ______ ____
ROOT
ATOM      1  C   UNL     1      48.128   4.783  17.013  0.00  0.00    +0.000 C 
ATOM      2  C   UNL     1      47.584   5.744  18.091  0.00  0.00    +0.000 C 
ATOM      3  C   UNL     1      47.251   3.505  17.010  0.00  0.00    +0.000 C 
ENDROOT
BRANCH   1   8
ATOM      4  C   UNL     1      47.081   5.636  13.415  0.00  0.00    +0.000 A 
ATOM      5  C   UNL     1      48.015   6.640  13.162  0.00  0.00    +0.000 A 
ATOM      6  C   UNL     1      48.933   6.972  14.133  0.00  0.00    +0.000 A 
ATOM      7  N   UNL     1      48.981   6.377  15.336  0.00  0.00    +0.000 NA
ATOM      8  C   UNL     1      48.066   5.426  15.623  0.00  0.00    +0.000 A 
ATOM      9  C   UNL     1      47.117   5.030  14.677  0.00  0.00    +0.000 A 
BRANCH   4  14
ATOM     10  C   UNL     1      44.389   3.617   8.961  0.00  0.00    +0.000 C 
ATOM     11  N   UNL     1      44.558   4.389  10.189  0.00  0.00    +0.000 NA
ATOM     12  C   UNL     1      44.888   3.492  11.323  0.00  0.00    +0.000 C 
ATOM     13  C   UNL     1      45.149   4.262  12.640  0.00  0.00    +0.000 C 
ATOM     14  N   UNL     1      46.219   5.241  12.408  0.00  0.00    +0.000 N 
ATOM     15  C   UNL     1      45.921   6.186  11.317  0.00  0.00    +0.000 C 
ATOM     16  C   UNL     1      45.637   5.392  10.023  0.00  0.00    +0.000 C 
ENDBRANCH   4  14
ENDBRANCH   1   8
BRANCH   1  17
ATOM     17  C   UNL     1      49.570   4.330  17.402  0.00  0.00    +0.000 C 
BRANCH  17  18
ATOM     18  N   UNL     1      49.829   2.899  17.195  0.00  0.00    +0.000 N 
ATOM     19  C   UNL     1      51.125   2.498  17.526  0.00  0.00    +0.000 A 
ATOM     20  C   UNL     1      51.445   1.143  17.469  0.00  0.00    +0.000 A 
ATOM     21  C   UNL     1      52.737   0.731  17.797  0.00  0.00    +0.000 A 
ATOM     22  C   UNL     1      53.686   1.676  18.185  0.00  0.00    +0.000 A 
ATOM     23  C   UNL     1      53.274   2.996  18.238  0.00  0.00    +0.000 A 
ATOM     24  N   UNL     1      52.030   3.417  17.919  0.00  0.00    +0.000 NA
ATOM     25  H   UNL     1      49.563   2.545  16.287  0.00  0.00    +0.000 HD
BRANCH  22  26
ATOM     26  C   UNL     1      55.067   1.247  18.510  0.00  0.00    +0.000 C 
ATOM     27  N   UNL     1      55.542   0.080  17.977  0.00  0.00    +0.000 N 
ATOM     28  O   UNL     1      55.775   1.918  19.251  0.00  0.00    +0.000 OA
ATOM     29  H   UNL     1      55.049  -0.539  17.358  0.00  0.00    +0.000 HD
ATOM     30  H   UNL     1      56.489  -0.175  18.236  0.00  0.00    +0.000 HD
ENDBRANCH  22  26
ENDBRANCH  17  18
ENDBRANCH   1  17
TORSDOF 5
ENDMDL
