MODEL 1
REMARK VINA RESULT:    -8.731      0.000      0.000
REMARK INTER + INTRA:         -12.836
REMARK INTER:                 -11.793
REMARK INTRA:                  -1.043
REMARK UNBOUND:                -1.043
REMARK  Name = 
REMARK  6 active torsions:
REMARK  status: ('A' for Active; 'I' for Inactive)
REMARK    1  A    between atoms: C_2  and  C_4
REMARK    2  A    between atoms: N_8  and  C_9
REMARK    3  A    between atoms: C_9  and  C_10
REMARK    4  A    between atoms: C_15  and  C_16
REMARK    5  A    between atoms: C_20  and  O_21
REMARK    6  A    between atoms: O_21  and  C_22
REMARK                            x       y       z     vdW  Elec       q    Type
REMARK                         _______ _______ _______ _____ _____    ______ ____
ROOT
ATOM      1  C   UNL     1      44.882   5.240  11.966  0.00  0.00    +0.000 A 
ATOM      2  C   UNL     1      45.072   4.436  13.092  0.00  0.00    +0.000 A 
ATOM      3  C   UNL     1      46.138   4.687  13.952  0.00  0.00    +0.000 A 
ATOM      4  C   UNL     1      47.026   5.731  13.679  0.00  0.00    +0.000 A 
ATOM      5  F   UNL     1      48.047   5.904  14.533  0.00  0.00    +0.000 F 
ATOM      6  C   UNL     1      46.881   6.563  12.556  0.00  0.00    +0.000 A 
ATOM      7  C   UNL     1      45.785   6.289  11.711  0.00  0.00    +0.000 A 
ENDROOT
BRANCH   6   8
ATOM      8  C   UNL     1      47.816   7.674  12.251  0.00  0.00    +0.000 A 
ATOM      9  C   UNL     1      47.353   8.990  12.064  0.00  0.00    +0.000 A 
ATOM     10  C   UNL     1      48.231  10.041  11.782  0.00  0.00    +0.000 A 
ATOM     11  C   UNL     1      49.600   9.807  11.677  0.00  0.00    +0.000 A 
ATOM     12  C   UNL     1      50.095   8.524  11.895  0.00  0.00    +0.000 A 
ATOM     13  C   UNL     1      49.204   7.474  12.152  0.00  0.00    +0.000 A 
BRANCH  12  14
ATOM     14  O   UNL     1      51.405   8.156  11.832  0.00  0.00    +0.000 OA
BRANCH  14  15
ATOM     15  C   UNL     1      52.026   8.001  10.565  0.00  0.00    +0.000 C 
ATOM     16  F   UNL     1      52.094   9.137   9.839  0.00  0.00    +0.000 F 
ATOM     17  F   UNL     1      53.292   7.566  10.762  0.00  0.00    +0.000 F 
ATOM     18  F   UNL     1      51.366   7.064   9.849  0.00  0.00    +0.000 F 
ENDBRANCH  14  15
ENDBRANCH  12  14
ENDBRANCH   6   8
BRANCH   1  19
ATOM     19  C   UNL     1      43.744   4.971  11.008  0.00  0.00    +0.000 C 
BRANCH  19  24
ATOM     20  C   UNL     1      46.285   2.071   7.933  0.00  0.00    +0.000 A 
ATOM     21  C   UNL     1      45.547   1.903   9.080  0.00  0.00    +0.000 A 
ATOM     22  N   UNL     1      44.844   2.895   9.664  0.00  0.00    +0.000 NA
ATOM     23  C   UNL     1      44.915   4.113   9.106  0.00  0.00    +0.000 A 
ATOM     24  N   UNL     1      44.203   5.166   9.649  0.00  0.00    +0.000 N 
ATOM     25  N   UNL     1      45.648   4.387   8.020  0.00  0.00    +0.000 NA
ATOM     26  C   UNL     1      46.313   3.356   7.447  0.00  0.00    +0.000 A 
ATOM     27  H   UNL     1      44.695   6.026   9.445  0.00  0.00    +0.000 HD
BRANCH  20  29
ATOM     28  N   UNL     1      46.734  -0.298   7.619  0.00  0.00    +0.000 N 
ATOM     29  C   UNL     1      47.028   0.995   7.266  0.00  0.00    +0.000 C 
ATOM     30  O   UNL     1      47.864   1.241   6.408  0.00  0.00    +0.000 OA
ATOM     31  H   UNL     1      47.194  -1.021   7.079  0.00  0.00    +0.000 HD
ATOM     32  H   UNL     1      45.903  -0.563   8.123  0.00  0.00    +0.000 HD
ENDBRANCH  20  29
ENDBRANCH  19  24
ENDBRANCH   1  19
TORSDOF 6
ENDMDL
MODEL 2
REMARK VINA RESULT:    -8.389      5.077      8.223
REMARK INTER + INTRA:         -12.375
REMARK INTER:                 -11.149
REMARK INTRA:                  -1.225
REMARK UNBOUND:                -1.043
REMARK  Name = 
REMARK  6 active torsions:
REMARK  status: ('A' for Active; 'I' for Inactive)
REMARK    1  A    between atoms: C_2  and  C_4
REMARK    2  A    between atoms: N_8  and  C_9
REMARK    3  A    between atoms: C_9  and  C_10
REMARK    4  A    between atoms: C_15  and  C_16
REMARK    5  A    between atoms: C_20  and  O_21
REMARK    6  A    between atoms: O_21  and  C_22
REMARK                            x       y       z     vdW  Elec       q    Type
REMARK                         _______ _______ _______ _____ _____    ______ ____
ROOT
ATOM      1  C   UNL     1      47.668   7.286  13.269  0.00  0.00    +0.000 A 
ATOM      2  C   UNL     1      46.974   8.495  13.359  0.00  0.00    +0.000 A 
ATOM      3  C   UNL     1      45.733   8.631  12.742  0.00  0.00    +0.000 A 
ATOM      4  C   UNL     1      45.190   7.563  12.021  0.00  0.00    +0.000 A 
ATOM      5  F   UNL     1      44.003   7.767  11.429  0.00  0.00    +0.000 F 
ATOM      6  C   UNL     1      45.852   6.329  11.897  0.00  0.00    +0.000 A 
ATOM      7  C   UNL     1      47.102   6.223  12.543  0.00  0.00    +0.000 A 
ENDROOT
BRANCH   6   8
ATOM      8  C   UNL     1      45.291   5.188  11.134  0.00  0.00    +0.000 A 
ATOM      9  C   UNL     1      44.514   4.197  11.765  0.00  0.00    +0.000 A 
ATOM     10  C   UNL     1      43.978   3.123  11.048  0.00  0.00    +0.000 A 
ATOM     11  C   UNL     1      44.204   3.006   9.679  0.00  0.00    +0.000 A 
ATOM     12  C   UNL     1      44.934   3.989   9.017  0.00  0.00    +0.000 A 
ATOM     13  C   UNL     1      45.488   5.048   9.749  0.00  0.00    +0.000 A 
BRANCH  12  14
ATOM     14  O   UNL     1      45.224   4.006   7.687  0.00  0.00    +0.000 OA
BRANCH  14  15
ATOM     15  C   UNL     1      46.384   3.337   7.217  0.00  0.00    +0.000 C 
ATOM     16  F   UNL     1      46.709   2.231   7.920  0.00  0.00    +0.000 F 
ATOM     17  F   UNL     1      46.168   2.958   5.936  0.00  0.00    +0.000 F 
ATOM     18  F   UNL     1      47.433   4.188   7.231  0.00  0.00    +0.000 F 
ENDBRANCH  14  15
ENDBRANCH  12  14
ENDBRANCH   6   8
BRANCH   1  19
ATOM     19  C   UNL     1      49.026   7.126  13.912  0.00  0.00    +0.000 C 
BRANCH  19  24
ATOM     20  C   UNL     1      48.790   5.274  18.477  0.00  0.00    +0.000 A 
ATOM     21  C   UNL     1      49.105   4.802  17.225  0.00  0.00    +0.000 A 
ATOM     22  N   UNL     1      49.200   5.592  16.134  0.00  0.00    +0.000 NA
ATOM     23  C   UNL     1      48.924   6.896  16.292  0.00  0.00    +0.000 A 
ATOM     24  N   UNL     1      49.020   7.758  15.215  0.00  0.00    +0.000 N 
ATOM     25  N   UNL     1      48.558   7.439  17.458  0.00  0.00    +0.000 NA
ATOM     26  C   UNL     1      48.506   6.618  18.533  0.00  0.00    +0.000 A 
ATOM     27  H   UNL     1      48.371   8.521  15.356  0.00  0.00    +0.000 HD
BRANCH  20  29
ATOM     28  N   UNL     1      48.417   3.107  19.513  0.00  0.00    +0.000 N 
ATOM     29  C   UNL     1      48.717   4.435  19.679  0.00  0.00    +0.000 C 
ATOM     30  O   UNL     1      48.939   4.899  20.788  0.00  0.00    +0.000 OA
ATOM     31  H   UNL     1      48.463   2.534  20.347  0.00  0.00    +0.000 HD
ATOM     32  H   UNL     1      48.469   2.629  18.628  0.00  0.00    +0.000 HD
ENDBRANCH  20  29
ENDBRANCH  19  24
ENDBRANCH   1  19
TORSDOF 6
ENDMDL
MODEL 3
REMARK VINA RESULT:    -8.152      2.982      5.346
REMARK INTER + INTRA:         -12.054
REMARK INTER:                 -11.133
REMARK INTRA:                  -0.921
REMARK UNBOUND:                -1.043
REMARK  Name = 
REMARK  6 active torsions:
REMARK  status: ('A' for Active; 'I' for Inactive)
REMARK    1  A    between atoms: C_2  and  C_4
REMARK    2  A    between atoms: N_8  and  C_9
REMARK    3  A    between atoms: C_9  and  C_10
REMARK    4  A    between atoms: C_15  and  C_16
REMARK    5  A    between atoms: C_20  and  O_21
REMARK    6  A    between atoms: O_21  and  C_22
REMARK                            x       y       z     vdW  Elec       q    Type
REMARK                         _______ _______ _______ _____ _____    ______ ____
ROOT
ATOM      1  C   UNL     1      45.087   5.308  11.931  0.00  0.00    +0.000 A 
ATOM      2  C   UNL     1      45.582   6.532  11.475  0.00  0.00    +0.000 A 
ATOM      3  C   UNL     1      46.631   7.151  12.151  0.00  0.00    +0.000 A 
ATOM      4  C   UNL     1      47.174   6.556  13.294  0.00  0.00    +0.000 A 
ATOM      5  F   UNL     1      48.164   7.218  13.914  0.00  0.00    +0.000 F 
ATOM      6  C   UNL     1      46.706   5.330  13.795  0.00  0.00    +0.000 A 
ATOM      7  C   UNL     1      45.651   4.724  13.080  0.00  0.00    +0.000 A 
ENDROOT
BRANCH   6   8
ATOM      8  C   UNL     1      47.271   4.687  15.006  0.00  0.00    +0.000 A 
ATOM      9  C   UNL     1      47.500   3.299  15.059  0.00  0.00    +0.000 A 
ATOM     10  C   UNL     1      48.038   2.690  16.197  0.00  0.00    +0.000 A 
ATOM     11  C   UNL     1      48.361   3.451  17.318  0.00  0.00    +0.000 A 
ATOM     12  C   UNL     1      48.183   4.831  17.285  0.00  0.00    +0.000 A 
ATOM     13  C   UNL     1      47.620   5.428  16.149  0.00  0.00    +0.000 A 
BRANCH  12  14
ATOM     14  O   UNL     1      48.461   5.694  18.301  0.00  0.00    +0.000 OA
BRANCH  14  15
ATOM     15  C   UNL     1      47.416   6.120  19.161  0.00  0.00    +0.000 C 
ATOM     16  F   UNL     1      46.211   5.581  18.878  0.00  0.00    +0.000 F 
ATOM     17  F   UNL     1      47.735   5.765  20.427  0.00  0.00    +0.000 F 
ATOM     18  F   UNL     1      47.313   7.466  19.116  0.00  0.00    +0.000 F 
ENDBRANCH  14  15
ENDBRANCH  12  14
ENDBRANCH   6   8
BRANCH   1  19
ATOM     19  C   UNL     1      43.936   4.630  11.224  0.00  0.00    +0.000 C 
BRANCH  19  24
ATOM     20  C   UNL     1      46.370   2.227   7.672  0.00  0.00    +0.000 A 
ATOM     21  C   UNL     1      45.946   1.952   8.950  0.00  0.00    +0.000 A 
ATOM     22  N   UNL     1      45.172   2.790   9.673  0.00  0.00    +0.000 NA
ATOM     23  C   UNL     1      44.848   3.966   9.114  0.00  0.00    +0.000 A 
ATOM     24  N   UNL     1      44.044   4.858   9.799  0.00  0.00    +0.000 N 
ATOM     25  N   UNL     1      45.255   4.345   7.897  0.00  0.00    +0.000 NA
ATOM     26  C   UNL     1      46.003   3.462   7.194  0.00  0.00    +0.000 A 
ATOM     27  H   UNL     1      44.274   5.796   9.496  0.00  0.00    +0.000 HD
BRANCH  20  29
ATOM     28  N   UNL     1      48.211   1.851   6.129  0.00  0.00    +0.000 N 
ATOM     29  C   UNL     1      47.182   1.313   6.859  0.00  0.00    +0.000 C 
ATOM     30  O   UNL     1      46.963   0.110   6.851  0.00  0.00    +0.000 OA
ATOM     31  H   UNL     1      48.810   1.188   5.651  0.00  0.00    +0.000 HD
ATOM     32  H   UNL     1      48.585   2.773   6.287  0.00  0.00    +0.000 HD
ENDBRANCH  20  29
ENDBRANCH  19  24
ENDBRANCH   1  19
TORSDOF 6
ENDMDL
MODEL 4
REMARK VINA RESULT:    -7.837      3.277      4.863
REMARK INTER + INTRA:         -11.629
REMARK INTER:                 -10.711
REMARK INTRA:                  -0.918
REMARK UNBOUND:                -1.043
REMARK  Name = 
REMARK  6 active torsions:
REMARK  status: ('A' for Active; 'I' for Inactive)
REMARK    1  A    between atoms: C_2  and  C_4
REMARK    2  A    between atoms: N_8  and  C_9
REMARK    3  A    between atoms: C_9  and  C_10
REMARK    4  A    between atoms: C_15  and  C_16
REMARK    5  A    between atoms: C_20  and  O_21
REMARK    6  A    between atoms: O_21  and  C_22
REMARK                            x       y       z     vdW  Elec       q    Type
REMARK                         _______ _______ _______ _____ _____    ______ ____
ROOT
ATOM      1  C   UNL     1      44.543   5.918  11.666  0.00  0.00    +0.000 A 
ATOM      2  C   UNL     1      44.272   7.255  11.364  0.00  0.00    +0.000 A 
ATOM      3  C   UNL     1      44.990   8.268  11.994  0.00  0.00    +0.000 A 
ATOM      4  C   UNL     1      45.969   7.948  12.940  0.00  0.00    +0.000 A 
ATOM      5  F   UNL     1      46.606   8.972  13.529  0.00  0.00    +0.000 F 
ATOM      6  C   UNL     1      46.273   6.619  13.282  0.00  0.00    +0.000 A 
ATOM      7  C   UNL     1      45.535   5.617  12.617  0.00  0.00    +0.000 A 
ENDROOT
BRANCH   6   8
ATOM      8  C   UNL     1      47.307   6.263  14.284  0.00  0.00    +0.000 A 
ATOM      9  C   UNL     1      48.326   7.168  14.638  0.00  0.00    +0.000 A 
ATOM     10  C   UNL     1      49.299   6.838  15.587  0.00  0.00    +0.000 A 
ATOM     11  C   UNL     1      49.283   5.593  16.210  0.00  0.00    +0.000 A 
ATOM     12  C   UNL     1      48.266   4.689  15.912  0.00  0.00    +0.000 A 
ATOM     13  C   UNL     1      47.312   5.020  14.941  0.00  0.00    +0.000 A 
BRANCH  12  14
ATOM     14  O   UNL     1      48.125   3.445  16.448  0.00  0.00    +0.000 OA
BRANCH  14  15
ATOM     15  C   UNL     1      47.554   3.303  17.740  0.00  0.00    +0.000 C 
ATOM     16  F   UNL     1      46.922   4.408  18.191  0.00  0.00    +0.000 F 
ATOM     17  F   UNL     1      46.645   2.302  17.696  0.00  0.00    +0.000 F 
ATOM     18  F   UNL     1      48.516   2.959  18.623  0.00  0.00    +0.000 F 
ENDBRANCH  14  15
ENDBRANCH  12  14
ENDBRANCH   6   8
BRANCH   1  19
ATOM     19  C   UNL     1      43.760   4.804  11.010  0.00  0.00    +0.000 C 
BRANCH  19  24
ATOM     20  C   UNL     1      46.359   2.246   7.690  0.00  0.00    +0.000 A 
ATOM     21  C   UNL     1      45.934   2.057   8.984  0.00  0.00    +0.000 A 
ATOM     22  N   UNL     1      45.110   2.909   9.628  0.00  0.00    +0.000 NA
ATOM     23  C   UNL     1      44.731   4.016   8.970  0.00  0.00    +0.000 A 
ATOM     24  N   UNL     1      43.874   4.919   9.571  0.00  0.00    +0.000 N 
ATOM     25  N   UNL     1      45.133   4.313   7.729  0.00  0.00    +0.000 NA
ATOM     26  C   UNL     1      45.934   3.416   7.108  0.00  0.00    +0.000 A 
ATOM     27  H   UNL     1      44.059   5.839   9.193  0.00  0.00    +0.000 HD
BRANCH  20  29
ATOM     28  N   UNL     1      48.354   1.819   6.368  0.00  0.00    +0.000 N 
ATOM     29  C   UNL     1      47.228   1.312   6.963  0.00  0.00    +0.000 C 
ATOM     30  O   UNL     1      46.968   0.118   6.910  0.00  0.00    +0.000 OA
ATOM     31  H   UNL     1      48.981   1.140   5.952  0.00  0.00    +0.000 HD
ATOM     32  H   UNL     1      48.740   2.724   6.583  0.00  0.00    +0.000 HD
ENDBRANCH  20  29
ENDBRANCH  19  24
ENDBRANCH   1  19
TORSDOF 6
ENDMDL
MODEL 5
REMARK VINA RESULT:    -7.791      5.423      7.895
REMARK INTER + INTRA:         -11.567
REMARK INTER:                 -10.255
REMARK INTRA:                  -1.312
REMARK UNBOUND:                -1.043
REMARK  Name = 
REMARK  6 active torsions:
REMARK  status: ('A' for Active; 'I' for Inactive)
REMARK    1  A    between atoms: C_2  and  C_4
REMARK    2  A    between atoms: N_8  and  C_9
REMARK    3  A    between atoms: C_9  and  C_10
REMARK    4  A    between atoms: C_15  and  C_16
REMARK    5  A    between atoms: C_20  and  O_21
REMARK    6  A    between atoms: O_21  and  C_22
REMARK                            x       y       z     vdW  Elec       q    Type
REMARK                         _______ _______ _______ _____ _____    ______ ____
ROOT
ATOM      1  C   UNL     1      48.604   6.835  14.902  0.00  0.00    +0.000 A 
ATOM      2  C   UNL     1      49.624   7.448  14.172  0.00  0.00    +0.000 A 
ATOM      3  C   UNL     1      49.484   7.627  12.798  0.00  0.00    +0.000 A 
ATOM      4  C   UNL     1      48.330   7.177  12.149  0.00  0.00    +0.000 A 
ATOM      5  F   UNL     1      48.268   7.357  10.820  0.00  0.00    +0.000 F 
ATOM      6  C   UNL     1      47.279   6.549  12.839  0.00  0.00    +0.000 A 
ATOM      7  C   UNL     1      47.448   6.394  14.231  0.00  0.00    +0.000 A 
ENDROOT
BRANCH   6   8
ATOM      8  C   UNL     1      46.049   6.065  12.164  0.00  0.00    +0.000 A 
ATOM      9  C   UNL     1      44.921   6.894  12.016  0.00  0.00    +0.000 A 
ATOM     10  C   UNL     1      43.763   6.444  11.375  0.00  0.00    +0.000 A 
ATOM     11  C   UNL     1      43.697   5.150  10.866  0.00  0.00    +0.000 A 
ATOM     12  C   UNL     1      44.808   4.317  10.961  0.00  0.00    +0.000 A 
ATOM     13  C   UNL     1      45.955   4.770  11.627  0.00  0.00    +0.000 A 
BRANCH  12  14
ATOM     14  O   UNL     1      44.886   3.037  10.502  0.00  0.00    +0.000 OA
BRANCH  14  15
ATOM     15  C   UNL     1      45.158   2.803   9.129  0.00  0.00    +0.000 C 
ATOM     16  F   UNL     1      45.809   3.813   8.513  0.00  0.00    +0.000 F 
ATOM     17  F   UNL     1      45.931   1.698   9.030  0.00  0.00    +0.000 F 
ATOM     18  F   UNL     1      44.001   2.566   8.473  0.00  0.00    +0.000 F 
ENDBRANCH  14  15
ENDBRANCH  12  14
ENDBRANCH   6   8
BRANCH   1  19
ATOM     19  C   UNL     1      48.746   6.612  16.391  0.00  0.00    +0.000 C 
BRANCH  19  24
ATOM     20  C   UNL     1      51.169   2.447  17.440  0.00  0.00    +0.000 A 
ATOM     21  C   UNL     1      51.461   3.790  17.415  0.00  0.00    +0.000 A 
ATOM     22  N   UNL     1      50.536   4.748  17.193  0.00  0.00    +0.000 NA
ATOM     23  C   UNL     1      49.280   4.346  16.942  0.00  0.00    +0.000 A 
ATOM     24  N   UNL     1      48.285   5.281  16.724  0.00  0.00    +0.000 N 
ATOM     25  N   UNL     1      48.910   3.061  16.895  0.00  0.00    +0.000 NA
ATOM     26  C   UNL     1      49.862   2.134  17.154  0.00  0.00    +0.000 A 
ATOM     27  H   UNL     1      47.584   4.869  16.122  0.00  0.00    +0.000 HD
BRANCH  20  29
ATOM     28  N   UNL     1      51.689   0.176  18.136  0.00  0.00    +0.000 N 
ATOM     29  C   UNL     1      52.156   1.395  17.715  0.00  0.00    +0.000 C 
ATOM     30  O   UNL     1      53.351   1.592  17.551  0.00  0.00    +0.000 OA
ATOM     31  H   UNL     1      52.382  -0.556  18.230  0.00  0.00    +0.000 HD
ATOM     32  H   UNL     1      50.728  -0.113  18.051  0.00  0.00    +0.000 HD
ENDBRANCH  20  29
ENDBRANCH  19  24
ENDBRANCH   1  19
TORSDOF 6
ENDMDL
MODEL 6
REMARK VINA RESULT:    -7.378      4.147      7.569
REMARK INTER + INTRA:         -11.009
REMARK INTER:                  -9.842
REMARK INTRA:                  -1.168
REMARK UNBOUND:                -1.043
REMARK  Name = 
REMARK  6 active torsions:
REMARK  status: ('A' for Active; 'I' for Inactive)
REMARK    1  A    between atoms: C_2  and  C_4
REMARK    2  A    between atoms: N_8  and  C_9
REMARK    3  A    between atoms: C_9  and  C_10
REMARK    4  A    between atoms: C_15  and  C_16
REMARK    5  A    between atoms: C_20  and  O_21
REMARK    6  A    between atoms: O_21  and  C_22
REMARK                            x       y       z     vdW  Elec       q    Type
REMARK                         _______ _______ _______ _____ _____    ______ ____
ROOT
ATOM      1  C   UNL     1      47.522   7.852  12.488  0.00  0.00    +0.000 A 
ATOM      2  C   UNL     1      46.564   8.834  12.749  0.00  0.00    +0.000 A 
ATOM      3  C   UNL     1      45.253   8.658  12.313  0.00  0.00    +0.000 A 
ATOM      4  C   UNL     1      44.902   7.508  11.599  0.00  0.00    +0.000 A 
ATOM      5  F   UNL     1      43.629   7.412  11.185  0.00  0.00    +0.000 F 
ATOM      6  C   UNL     1      45.831   6.495  11.307  0.00  0.00    +0.000 A 
ATOM      7  C   UNL     1      47.147   6.700  11.773  0.00  0.00    +0.000 A 
ENDROOT
BRANCH   6   8
ATOM      8  C   UNL     1      45.474   5.270  10.550  0.00  0.00    +0.000 A 
ATOM      9  C   UNL     1      44.813   4.193  11.170  0.00  0.00    +0.000 A 
ATOM     10  C   UNL     1      44.470   3.040  10.459  0.00  0.00    +0.000 A 
ATOM     11  C   UNL     1      44.779   2.928   9.105  0.00  0.00    +0.000 A 
ATOM     12  C   UNL     1      45.397   3.990   8.452  0.00  0.00    +0.000 A 
ATOM     13  C   UNL     1      45.759   5.131   9.180  0.00  0.00    +0.000 A 
BRANCH  12  14
ATOM     14  O   UNL     1      45.749   4.020   7.137  0.00  0.00    +0.000 OA
BRANCH  14  15
ATOM     15  C   UNL     1      46.711   3.096   6.651  0.00  0.00    +0.000 C 
ATOM     16  F   UNL     1      46.381   1.801   6.841  0.00  0.00    +0.000 F 
ATOM     17  F   UNL     1      46.854   3.291   5.320  0.00  0.00    +0.000 F 
ATOM     18  F   UNL     1      47.903   3.334   7.240  0.00  0.00    +0.000 F 
ENDBRANCH  14  15
ENDBRANCH  12  14
ENDBRANCH   6   8
BRANCH   1  19
ATOM     19  C   UNL     1      48.955   8.033  12.933  0.00  0.00    +0.000 C 
BRANCH  19  24
ATOM     20  C   UNL     1      52.749   9.015   9.940  0.00  0.00    +0.000 A 
ATOM     21  C   UNL     1      52.076   9.670  10.944  0.00  0.00    +0.000 A 
ATOM     22  N   UNL     1      51.115   9.093  11.694  0.00  0.00    +0.000 NA
ATOM     23  C   UNL     1      50.782   7.826  11.402  0.00  0.00    +0.000 A 
ATOM     24  N   UNL     1      49.816   7.175  12.147  0.00  0.00    +0.000 N 
ATOM     25  N   UNL     1      51.343   7.123  10.411  0.00  0.00    +0.000 NA
ATOM     26  C   UNL     1      52.325   7.730   9.703  0.00  0.00    +0.000 A 
ATOM     27  H   UNL     1      49.369   6.484  11.559  0.00  0.00    +0.000 HD
BRANCH  20  29
ATOM     28  N   UNL     1      53.521   9.997   7.854  0.00  0.00    +0.000 N 
ATOM     29  C   UNL     1      53.821   9.617   9.137  0.00  0.00    +0.000 C 
ATOM     30  O   UNL     1      54.936   9.796   9.604  0.00  0.00    +0.000 OA
ATOM     31  H   UNL     1      54.251  10.491   7.355  0.00  0.00    +0.000 HD
ATOM     32  H   UNL     1      52.581  10.101   7.508  0.00  0.00    +0.000 HD
ENDBRANCH  20  29
ENDBRANCH  19  24
ENDBRANCH   1  19
TORSDOF 6
ENDMDL
MODEL 7
REMARK VINA RESULT:    -7.212      3.517      6.006
REMARK INTER + INTRA:         -10.785
REMARK INTER:                 -10.034
REMARK INTRA:                  -0.751
REMARK UNBOUND:                -1.043
REMARK  Name = 
REMARK  6 active torsions:
REMARK  status: ('A' for Active; 'I' for Inactive)
REMARK    1  A    between atoms: C_2  and  C_4
REMARK    2  A    between atoms: N_8  and  C_9
REMARK    3  A    between atoms: C_9  and  C_10
REMARK    4  A    between atoms: C_15  and  C_16
REMARK    5  A    between atoms: C_20  and  O_21
REMARK    6  A    between atoms: O_21  and  C_22
REMARK                            x       y       z     vdW  Elec       q    Type
REMARK                         _______ _______ _______ _____ _____    ______ ____
ROOT
ATOM      1  C   UNL     1      47.449   8.480  12.558  0.00  0.00    +0.000 A 
ATOM      2  C   UNL     1      48.439   9.102  11.795  0.00  0.00    +0.000 A 
ATOM      3  C   UNL     1      49.777   8.984  12.165  0.00  0.00    +0.000 A 
ATOM      4  C   UNL     1      50.125   8.258  13.308  0.00  0.00    +0.000 A 
ATOM      5  F   UNL     1      51.429   8.205  13.623  0.00  0.00    +0.000 F 
ATOM      6  C   UNL     1      49.165   7.620  14.111  0.00  0.00    +0.000 A 
ATOM      7  C   UNL     1      47.821   7.750  13.702  0.00  0.00    +0.000 A 
ENDROOT
BRANCH   6   8
ATOM      8  C   UNL     1      49.518   6.848  15.327  0.00  0.00    +0.000 A 
ATOM      9  C   UNL     1      50.767   7.004  15.957  0.00  0.00    +0.000 A 
ATOM     10  C   UNL     1      51.101   6.282  17.107  0.00  0.00    +0.000 A 
ATOM     11  C   UNL     1      50.196   5.381  17.661  0.00  0.00    +0.000 A 
ATOM     12  C   UNL     1      48.937   5.232  17.087  0.00  0.00    +0.000 A 
ATOM     13  C   UNL     1      48.622   5.941  15.921  0.00  0.00    +0.000 A 
BRANCH  12  14
ATOM     14  O   UNL     1      47.955   4.396  17.527  0.00  0.00    +0.000 OA
BRANCH  14  15
ATOM     15  C   UNL     1      47.910   3.060  17.049  0.00  0.00    +0.000 C 
ATOM     16  F   UNL     1      49.052   2.365  17.239  0.00  0.00    +0.000 F 
ATOM     17  F   UNL     1      46.921   2.408  17.703  0.00  0.00    +0.000 F 
ATOM     18  F   UNL     1      47.613   3.061  15.732  0.00  0.00    +0.000 F 
ENDBRANCH  14  15
ENDBRANCH  12  14
ENDBRANCH   6   8
BRANCH   1  19
ATOM     19  C   UNL     1      45.990   8.615  12.187  0.00  0.00    +0.000 C 
BRANCH  19  24
ATOM     20  C   UNL     1      44.165   4.081  11.524  0.00  0.00    +0.000 A 
ATOM     21  C   UNL     1      45.149   4.852  10.954  0.00  0.00    +0.000 A 
ATOM     22  N   UNL     1      45.520   6.059  11.432  0.00  0.00    +0.000 NA
ATOM     23  C   UNL     1      44.850   6.533  12.494  0.00  0.00    +0.000 A 
ATOM     24  N   UNL     1      45.195   7.756  13.039  0.00  0.00    +0.000 N 
ATOM     25  N   UNL     1      43.843   5.881  13.086  0.00  0.00    +0.000 NA
ATOM     26  C   UNL     1      43.525   4.660  12.594  0.00  0.00    +0.000 A 
ATOM     27  H   UNL     1      44.373   8.161  13.467  0.00  0.00    +0.000 HD
BRANCH  20  29
ATOM     28  N   UNL     1      44.410   2.268   9.923  0.00  0.00    +0.000 N 
ATOM     29  C   UNL     1      43.774   2.752  11.038  0.00  0.00    +0.000 C 
ATOM     30  O   UNL     1      42.927   2.090  11.620  0.00  0.00    +0.000 OA
ATOM     31  H   UNL     1      44.187   1.315   9.664  0.00  0.00    +0.000 HD
ATOM     32  H   UNL     1      45.267   2.652   9.559  0.00  0.00    +0.000 HD
ENDBRANCH  20  29
ENDBRANCH  19  24
ENDBRANCH   1  19
TORSDOF 6
ENDMDL
MODEL 8
REMARK VINA RESULT:    -7.208      5.749      8.365
REMARK INTER + INTRA:         -10.780
REMARK INTER:                  -9.657
REMARK INTRA:                  -1.123
REMARK UNBOUND:                -1.043
REMARK  Name = 
REMARK  6 active torsions:
REMARK  status: ('A' for Active; 'I' for Inactive)
REMARK    1  A    between atoms: C_2  and  C_4
REMARK    2  A    between atoms: N_8  and  C_9
REMARK    3  A    between atoms: C_9  and  C_10
REMARK    4  A    between atoms: C_15  and  C_16
REMARK    5  A    between atoms: C_20  and  O_21
REMARK    6  A    between atoms: O_21  and  C_22
REMARK                            x       y       z     vdW  Elec       q    Type
REMARK                         _______ _______ _______ _____ _____    ______ ____
ROOT
ATOM      1  C   UNL     1      49.431   6.850  15.691  0.00  0.00    +0.000 A 
ATOM      2  C   UNL     1      50.526   7.455  15.069  0.00  0.00    +0.000 A 
ATOM      3  C   UNL     1      50.449   7.818  13.727  0.00  0.00    +0.000 A 
ATOM      4  C   UNL     1      49.282   7.562  12.999  0.00  0.00    +0.000 A 
ATOM      5  F   UNL     1      49.283   7.913  11.704  0.00  0.00    +0.000 F 
ATOM      6  C   UNL     1      48.157   6.951  13.578  0.00  0.00    +0.000 A 
ATOM      7  C   UNL     1      48.265   6.606  14.942  0.00  0.00    +0.000 A 
ENDROOT
BRANCH   6   8
ATOM      8  C   UNL     1      46.914   6.671  12.819  0.00  0.00    +0.000 A 
ATOM      9  C   UNL     1      46.209   7.699  12.164  0.00  0.00    +0.000 A 
ATOM     10  C   UNL     1      45.040   7.438  11.443  0.00  0.00    +0.000 A 
ATOM     11  C   UNL     1      44.540   6.141  11.356  0.00  0.00    +0.000 A 
ATOM     12  C   UNL     1      45.233   5.096  11.959  0.00  0.00    +0.000 A 
ATOM     13  C   UNL     1      46.390   5.372  12.700  0.00  0.00    +0.000 A 
BRANCH  12  14
ATOM     14  O   UNL     1      44.865   3.785  11.948  0.00  0.00    +0.000 OA
BRANCH  14  15
ATOM     15  C   UNL     1      43.558   3.424  12.369  0.00  0.00    +0.000 C 
ATOM     16  F   UNL     1      43.116   4.105  13.447  0.00  0.00    +0.000 F 
ATOM     17  F   UNL     1      42.701   3.668  11.351  0.00  0.00    +0.000 F 
ATOM     18  F   UNL     1      43.520   2.102  12.642  0.00  0.00    +0.000 F 
ENDBRANCH  14  15
ENDBRANCH  12  14
ENDBRANCH   6   8
BRANCH   1  19
ATOM     19  C   UNL     1      49.502   6.428  17.141  0.00  0.00    +0.000 C 
BRANCH  19  24
ATOM     20  C   UNL     1      51.882   2.136  17.619  0.00  0.00    +0.000 A 
ATOM     21  C   UNL     1      52.182   3.466  17.793  0.00  0.00    +0.000 A 
ATOM     22  N   UNL     1      51.266   4.453  17.696  0.00  0.00    +0.000 NA
ATOM     23  C   UNL     1      50.013   4.102  17.368  0.00  0.00    +0.000 A 
ATOM     24  N   UNL     1      49.028   5.066  17.269  0.00  0.00    +0.000 N 
ATOM     25  N   UNL     1      49.637   2.840  17.128  0.00  0.00    +0.000 NA
ATOM     26  C   UNL     1      50.579   1.878  17.267  0.00  0.00    +0.000 A 
ATOM     27  H   UNL     1      48.336   4.752  16.602  0.00  0.00    +0.000 HD
BRANCH  20  29
ATOM     28  N   UNL     1      52.420  -0.141  18.284  0.00  0.00    +0.000 N 
ATOM     29  C   UNL     1      52.858   1.047  17.755  0.00  0.00    +0.000 C 
ATOM     30  O   UNL     1      54.016   1.186  17.390  0.00  0.00    +0.000 OA
ATOM     31  H   UNL     1      53.089  -0.901  18.282  0.00  0.00    +0.000 HD
ATOM     32  H   UNL     1      51.447  -0.389  18.368  0.00  0.00    +0.000 HD
ENDBRANCH  20  29
ENDBRANCH  19  24
ENDBRANCH   1  19
TORSDOF 6
ENDMDL
MODEL 9
REMARK VINA RESULT:    -7.037      1.673      2.336
REMARK INTER + INTRA:         -10.548
REMARK INTER:                  -9.307
REMARK INTRA:                  -1.241
REMARK UNBOUND:                -1.043
REMARK  Name = 
REMARK  6 active torsions:
REMARK  status: ('A' for Active; 'I' for Inactive)
REMARK    1  A    between atoms: C_2  and  C_4
REMARK    2  A    between atoms: N_8  and  C_9
REMARK    3  A    between atoms: C_9  and  C_10
REMARK    4  A    between atoms: C_15  and  C_16
REMARK    5  A    between atoms: C_20  and  O_21
REMARK    6  A    between atoms: O_21  and  C_22
REMARK                            x       y       z     vdW  Elec       q    Type
REMARK                         _______ _______ _______ _____ _____    ______ ____
ROOT
ATOM      1  C   UNL     1      44.460   6.724  11.474  0.00  0.00    +0.000 A 
ATOM      2  C   UNL     1      43.815   7.942  11.248  0.00  0.00    +0.000 A 
ATOM      3  C   UNL     1      44.482   9.138  11.503  0.00  0.00    +0.000 A 
ATOM      4  C   UNL     1      45.789   9.117  12.001  0.00  0.00    +0.000 A 
ATOM      5  F   UNL     1      46.366  10.304  12.249  0.00  0.00    +0.000 F 
ATOM      6  C   UNL     1      46.477   7.918  12.250  0.00  0.00    +0.000 A 
ATOM      7  C   UNL     1      45.776   6.725  11.971  0.00  0.00    +0.000 A 
ENDROOT
BRANCH   6   8
ATOM      8  C   UNL     1      47.862   7.879  12.779  0.00  0.00    +0.000 A 
ATOM      9  C   UNL     1      48.157   7.271  14.014  0.00  0.00    +0.000 A 
ATOM     10  C   UNL     1      49.462   7.227  14.514  0.00  0.00    +0.000 A 
ATOM     11  C   UNL     1      50.512   7.792  13.794  0.00  0.00    +0.000 A 
ATOM     12  C   UNL     1      50.261   8.366  12.551  0.00  0.00    +0.000 A 
ATOM     13  C   UNL     1      48.946   8.427  12.071  0.00  0.00    +0.000 A 
BRANCH  12  14
ATOM     14  O   UNL     1      51.189   8.945  11.740  0.00  0.00    +0.000 OA
BRANCH  14  15
ATOM     15  C   UNL     1      51.974   8.130  10.883  0.00  0.00    +0.000 C 
ATOM     16  F   UNL     1      53.166   7.767  11.403  0.00  0.00    +0.000 F 
ATOM     17  F   UNL     1      51.280   6.998  10.621  0.00  0.00    +0.000 F 
ATOM     18  F   UNL     1      52.184   8.773   9.715  0.00  0.00    +0.000 F 
ENDBRANCH  14  15
ENDBRANCH  12  14
ENDBRANCH   6   8
BRANCH   1  19
ATOM     19  C   UNL     1      43.745   5.415  11.225  0.00  0.00    +0.000 C 
BRANCH  19  24
ATOM     20  C   UNL     1      45.991   2.165   8.273  0.00  0.00    +0.000 A 
ATOM     21  C   UNL     1      45.755   2.290   9.621  0.00  0.00    +0.000 A 
ATOM     22  N   UNL     1      44.985   3.261  10.155  0.00  0.00    +0.000 NA
ATOM     23  C   UNL     1      44.468   4.169   9.314  0.00  0.00    +0.000 A 
ATOM     24  N   UNL     1      43.657   5.179   9.800  0.00  0.00    +0.000 N 
ATOM     25  N   UNL     1      44.682   4.163   7.993  0.00  0.00    +0.000 NA
ATOM     26  C   UNL     1      45.434   3.153   7.496  0.00  0.00    +0.000 A 
ATOM     27  H   UNL     1      43.744   5.982   9.191  0.00  0.00    +0.000 HD
BRANCH  20  29
ATOM     28  N   UNL     1      47.843   1.461   6.864  0.00  0.00    +0.000 N 
ATOM     29  C   UNL     1      46.797   1.095   7.672  0.00  0.00    +0.000 C 
ATOM     30  O   UNL     1      46.558  -0.081   7.903  0.00  0.00    +0.000 OA
ATOM     31  H   UNL     1      48.436   0.707   6.538  0.00  0.00    +0.000 HD
ATOM     32  H   UNL     1      48.231   2.390   6.839  0.00  0.00    +0.000 HD
ENDBRANCH  20  29
ENDBRANCH  19  24
ENDBRANCH   1  19
TORSDOF 6
ENDMDL
