MODEL 1
REMARK VINA RESULT:    -7.965      0.000      0.000
REMARK INTER + INTRA:         -11.148
REMARK INTER:                 -10.526
REMARK INTRA:                  -0.622
REMARK UNBOUND:                -0.622
REMARK  Name = 
REMARK  6 active torsions:
REMARK  status: ('A' for Active; 'I' for Inactive)
REMARK    1  A    between atoms: C_2  and  C_3
REMARK    2  A    between atoms: C_6  and  N_7
REMARK    3  A    between atoms: N_7  and  C_8
REMARK    4  A    between atoms: C_8  and  C_9
REMARK    5  A    between atoms: C_13  and  N_14
REMARK    6  A    between atoms: C_17  and  O_18
REMARK                            x       y       z     vdW  Elec       q    Type
REMARK                         _______ _______ _______ _____ _____    ______ ____
ROOT
ATOM      1  C   UNL     1      44.860   6.071  11.654  0.00  0.00    +0.000 A 
ATOM      2  C   UNL     1      44.731   7.462  11.525  0.00  0.00    +0.000 A 
ATOM      3  C   UNL     1      45.570   8.321  12.222  0.00  0.00    +0.000 A 
ATOM      4  C   UNL     1      46.581   7.795  13.027  0.00  0.00    +0.000 A 
ATOM      5  C   UNL     1      46.817   6.416  13.109  0.00  0.00    +0.000 A 
ATOM      6  C   UNL     1      45.951   5.581  12.391  0.00  0.00    +0.000 A 
ENDROOT
BRANCH   5   7
ATOM      7  N   UNL     1      47.857   5.870  13.849  0.00  0.00    +0.000 N 
ATOM      8  C   UNL     1      48.900   6.736  14.395  0.00  0.00    +0.000 C 
ATOM      9  C   UNL     1      48.654   6.984  15.878  0.00  0.00    +0.000 C 
ATOM     10  C   UNL     1      48.509   5.669  16.640  0.00  0.00    +0.000 C 
ATOM     11  C   UNL     1      47.454   4.760  16.012  0.00  0.00    +0.000 C 
ATOM     12  C   UNL     1      47.672   4.570  14.510  0.00  0.00    +0.000 C 
BRANCH  10  13
ATOM     13  O   UNL     1      49.766   4.996  16.724  0.00  0.00    +0.000 OA
ATOM     14  H   UNL     1      49.611   4.039  16.766  0.00  0.00    +0.000 HD
ENDBRANCH  10  13
ENDBRANCH   5   7
BRANCH   1  15
ATOM     15  C   UNL     1      43.766   5.138  11.166  0.00  0.00    +0.000 C 
ATOM     16  C   UNL     1      43.043   4.267  12.178  0.00  0.00    +0.000 C 
ATOM     17  C   UNL     1      42.381   5.516  11.702  0.00  0.00    +0.000 C 
BRANCH  15  18
ATOM     18  N   UNL     1      43.814   4.797   9.752  0.00  0.00    +0.000 N 
ATOM     19  H   UNL     1      43.333   5.385   9.082  0.00  0.00    +0.000 HD
BRANCH  18  23
ATOM     20  C   UNL     1      46.569   2.681   7.567  0.00  0.00    +0.000 A 
ATOM     21  C   UNL     1      46.478   4.058   7.537  0.00  0.00    +0.000 A 
ATOM     22  N   UNL     1      45.580   4.748   8.284  0.00  0.00    +0.000 NA
ATOM     23  C   UNL     1      44.748   4.026   9.073  0.00  0.00    +0.000 A 
ATOM     24  C   UNL     1      44.846   2.637   9.092  0.00  0.00    +0.000 A 
ATOM     25  N   UNL     1      45.753   1.930   8.349  0.00  0.00    +0.000 NA
BRANCH  20  27
ATOM     26  N   UNL     1      48.351   1.499   6.092  0.00  0.00    +0.000 NA
ATOM     27  C   UNL     1      47.541   1.996   6.754  0.00  0.00    +0.000 C 
ENDBRANCH  20  27
ENDBRANCH  18  23
ENDBRANCH  15  18
ENDBRANCH   1  15
TORSDOF 6
ENDMDL
MODEL 2
REMARK VINA RESULT:    -7.951      0.982      1.352
REMARK INTER + INTRA:         -11.129
REMARK INTER:                 -10.584
REMARK INTRA:                  -0.545
REMARK UNBOUND:                -0.622
REMARK  Name = 
REMARK  6 active torsions:
REMARK  status: ('A' for Active; 'I' for Inactive)
REMARK    1  A    between atoms: C_2  and  C_3
REMARK    2  A    between atoms: C_6  and  N_7
REMARK    3  A    between atoms: N_7  and  C_8
REMARK    4  A    between atoms: C_8  and  C_9
REMARK    5  A    between atoms: C_13  and  N_14
REMARK    6  A    between atoms: C_17  and  O_18
REMARK                            x       y       z     vdW  Elec       q    Type
REMARK                         _______ _______ _______ _____ _____    ______ ____
ROOT
ATOM      1  C   UNL     1      44.828   6.336  11.497  0.00  0.00    +0.000 A 
ATOM      2  C   UNL     1      44.473   7.689  11.396  0.00  0.00    +0.000 A 
ATOM      3  C   UNL     1      45.270   8.677  11.959  0.00  0.00    +0.000 A 
ATOM      4  C   UNL     1      46.459   8.324  12.595  0.00  0.00    +0.000 A 
ATOM      5  C   UNL     1      46.909   6.997  12.635  0.00  0.00    +0.000 A 
ATOM      6  C   UNL     1      46.080   6.029  12.056  0.00  0.00    +0.000 A 
ENDROOT
BRANCH   5   7
ATOM      7  N   UNL     1      48.121   6.627  13.204  0.00  0.00    +0.000 N 
ATOM      8  C   UNL     1      49.376   7.103  12.627  0.00  0.00    +0.000 C 
ATOM      9  C   UNL     1      49.927   8.262  13.449  0.00  0.00    +0.000 C 
ATOM     10  C   UNL     1      50.052   7.881  14.922  0.00  0.00    +0.000 C 
ATOM     11  C   UNL     1      48.741   7.331  15.482  0.00  0.00    +0.000 C 
ATOM     12  C   UNL     1      48.163   6.213  14.614  0.00  0.00    +0.000 C 
BRANCH  10  13
ATOM     13  O   UNL     1      51.112   6.941  15.109  0.00  0.00    +0.000 OA
ATOM     14  H   UNL     1      50.741   6.109  15.444  0.00  0.00    +0.000 HD
ENDBRANCH  10  13
ENDBRANCH   5   7
BRANCH   1  15
ATOM     15  C   UNL     1      43.825   5.241  11.181  0.00  0.00    +0.000 C 
ATOM     16  C   UNL     1      43.300   4.380  12.316  0.00  0.00    +0.000 C 
ATOM     17  C   UNL     1      42.450   5.495  11.808  0.00  0.00    +0.000 C 
BRANCH  15  18
ATOM     18  N   UNL     1      43.803   4.788   9.797  0.00  0.00    +0.000 N 
ATOM     19  H   UNL     1      43.244   5.292   9.118  0.00  0.00    +0.000 HD
BRANCH  18  23
ATOM     20  C   UNL     1      46.560   2.677   7.611  0.00  0.00    +0.000 A 
ATOM     21  C   UNL     1      46.468   4.053   7.582  0.00  0.00    +0.000 A 
ATOM     22  N   UNL     1      45.569   4.742   8.330  0.00  0.00    +0.000 NA
ATOM     23  C   UNL     1      44.738   4.019   9.119  0.00  0.00    +0.000 A 
ATOM     24  C   UNL     1      44.836   2.630   9.136  0.00  0.00    +0.000 A 
ATOM     25  N   UNL     1      45.744   1.924   8.392  0.00  0.00    +0.000 NA
BRANCH  20  27
ATOM     26  N   UNL     1      48.334   1.498   6.125  0.00  0.00    +0.000 NA
ATOM     27  C   UNL     1      47.532   1.993   6.798  0.00  0.00    +0.000 C 
ENDBRANCH  20  27
ENDBRANCH  18  23
ENDBRANCH  15  18
ENDBRANCH   1  15
TORSDOF 6
ENDMDL
MODEL 3
REMARK VINA RESULT:    -7.767      1.932      2.731
REMARK INTER + INTRA:         -10.886
REMARK INTER:                 -10.037
REMARK INTRA:                  -0.849
REMARK UNBOUND:                -0.622
REMARK  Name = 
REMARK  6 active torsions:
REMARK  status: ('A' for Active; 'I' for Inactive)
REMARK    1  A    between atoms: C_2  and  C_3
REMARK    2  A    between atoms: C_6  and  N_7
REMARK    3  A    between atoms: N_7  and  C_8
REMARK    4  A    between atoms: C_8  and  C_9
REMARK    5  A    between atoms: C_13  and  N_14
REMARK    6  A    between atoms: C_17  and  O_18
REMARK                            x       y       z     vdW  Elec       q    Type
REMARK                         _______ _______ _______ _____ _____    ______ ____
ROOT
ATOM      1  C   UNL     1      45.092   5.306  12.244  0.00  0.00    +0.000 A 
ATOM      2  C   UNL     1      45.522   4.450  13.269  0.00  0.00    +0.000 A 
ATOM      3  C   UNL     1      46.717   4.684  13.934  0.00  0.00    +0.000 A 
ATOM      4  C   UNL     1      47.479   5.806  13.610  0.00  0.00    +0.000 A 
ATOM      5  C   UNL     1      47.045   6.746  12.665  0.00  0.00    +0.000 A 
ATOM      6  C   UNL     1      45.833   6.477  12.015  0.00  0.00    +0.000 A 
ENDROOT
BRANCH   5   7
ATOM      7  N   UNL     1      47.751   7.905  12.372  0.00  0.00    +0.000 N 
ATOM      8  C   UNL     1      47.715   9.037  13.294  0.00  0.00    +0.000 C 
ATOM      9  C   UNL     1      48.991   9.079  14.126  0.00  0.00    +0.000 C 
ATOM     10  C   UNL     1      50.230   9.073  13.234  0.00  0.00    +0.000 C 
ATOM     11  C   UNL     1      50.212   7.913  12.240  0.00  0.00    +0.000 C 
ATOM     12  C   UNL     1      48.900   7.840  11.457  0.00  0.00    +0.000 C 
BRANCH  10  13
ATOM     13  O   UNL     1      50.360  10.320  12.548  0.00  0.00    +0.000 OA
ATOM     14  H   UNL     1      49.482  10.613  12.255  0.00  0.00    +0.000 HD
ENDBRANCH  10  13
ENDBRANCH   5   7
BRANCH   1  15
ATOM     15  C   UNL     1      43.974   4.894  11.301  0.00  0.00    +0.000 C 
ATOM     16  C   UNL     1      42.877   3.983  11.822  0.00  0.00    +0.000 C 
ATOM     17  C   UNL     1      42.608   5.447  11.722  0.00  0.00    +0.000 C 
BRANCH  15  18
ATOM     18  N   UNL     1      44.278   5.000   9.881  0.00  0.00    +0.000 N 
ATOM     19  H   UNL     1      44.149   5.889   9.411  0.00  0.00    +0.000 HD
BRANCH  18  23
ATOM     20  C   UNL     1      46.735   2.821   7.421  0.00  0.00    +0.000 A 
ATOM     21  C   UNL     1      46.726   4.200   7.449  0.00  0.00    +0.000 A 
ATOM     22  N   UNL     1      45.927   4.910   8.286  0.00  0.00    +0.000 NA
ATOM     23  C   UNL     1      45.112   4.206   9.108  0.00  0.00    +0.000 A 
ATOM     24  C   UNL     1      45.126   2.814   9.068  0.00  0.00    +0.000 A 
ATOM     25  N   UNL     1      45.933   2.087   8.233  0.00  0.00    +0.000 NA
BRANCH  20  27
ATOM     26  N   UNL     1      48.345   1.587   5.800  0.00  0.00    +0.000 NA
ATOM     27  C   UNL     1      47.602   2.115   6.514  0.00  0.00    +0.000 C 
ENDBRANCH  20  27
ENDBRANCH  18  23
ENDBRANCH  15  18
ENDBRANCH   1  15
TORSDOF 6
ENDMDL
MODEL 4
REMARK VINA RESULT:    -7.438      1.167      1.558
REMARK INTER + INTRA:         -10.452
REMARK INTER:                  -9.669
REMARK INTRA:                  -0.783
REMARK UNBOUND:                -0.622
REMARK  Name = 
REMARK  6 active torsions:
REMARK  status: ('A' for Active; 'I' for Inactive)
REMARK    1  A    between atoms: C_2  and  C_3
REMARK    2  A    between atoms: C_6  and  N_7
REMARK    3  A    between atoms: N_7  and  C_8
REMARK    4  A    between atoms: C_8  and  C_9
REMARK    5  A    between atoms: C_13  and  N_14
REMARK    6  A    between atoms: C_17  and  O_18
REMARK                            x       y       z     vdW  Elec       q    Type
REMARK                         _______ _______ _______ _____ _____    ______ ____
ROOT
ATOM      1  C   UNL     1      45.519   5.403  12.414  0.00  0.00    +0.000 A 
ATOM      2  C   UNL     1      45.852   6.671  11.914  0.00  0.00    +0.000 A 
ATOM      3  C   UNL     1      46.829   7.442  12.528  0.00  0.00    +0.000 A 
ATOM      4  C   UNL     1      47.519   6.933  13.628  0.00  0.00    +0.000 A 
ATOM      5  C   UNL     1      47.296   5.634  14.103  0.00  0.00    +0.000 A 
ATOM      6  C   UNL     1      46.304   4.885  13.457  0.00  0.00    +0.000 A 
ENDROOT
BRANCH   5   7
ATOM      7  N   UNL     1      48.016   5.079  15.153  0.00  0.00    +0.000 N 
ATOM      8  C   UNL     1      48.811   5.936  16.029  0.00  0.00    +0.000 C 
ATOM      9  C   UNL     1      48.070   6.181  17.338  0.00  0.00    +0.000 C 
ATOM     10  C   UNL     1      47.666   4.864  17.996  0.00  0.00    +0.000 C 
ATOM     11  C   UNL     1      46.888   3.963  17.038  0.00  0.00    +0.000 C 
ATOM     12  C   UNL     1      47.609   3.778  15.702  0.00  0.00    +0.000 C 
BRANCH  10  13
ATOM     13  O   UNL     1      48.814   4.183  18.504  0.00  0.00    +0.000 OA
ATOM     14  H   UNL     1      48.523   3.454  19.075  0.00  0.00    +0.000 HD
ENDBRANCH  10  13
ENDBRANCH   5   7
BRANCH   1  15
ATOM     15  C   UNL     1      44.253   4.695  11.965  0.00  0.00    +0.000 C 
ATOM     16  C   UNL     1      43.584   3.721  12.917  0.00  0.00    +0.000 C 
ATOM     17  C   UNL     1      43.024   5.097  12.788  0.00  0.00    +0.000 C 
BRANCH  15  18
ATOM     18  N   UNL     1      44.043   4.633  10.526  0.00  0.00    +0.000 N 
ATOM     19  H   UNL     1      43.445   5.319  10.080  0.00  0.00    +0.000 HD
BRANCH  18  23
ATOM     20  C   UNL     1      46.451   2.714   7.812  0.00  0.00    +0.000 A 
ATOM     21  C   UNL     1      45.694   2.047   8.753  0.00  0.00    +0.000 A 
ATOM     22  N   UNL     1      44.881   2.692   9.629  0.00  0.00    +0.000 NA
ATOM     23  C   UNL     1      44.841   4.044   9.555  0.00  0.00    +0.000 A 
ATOM     24  C   UNL     1      45.613   4.707   8.604  0.00  0.00    +0.000 A 
ATOM     25  N   UNL     1      46.431   4.068   7.711  0.00  0.00    +0.000 NA
BRANCH  20  27
ATOM     26  N   UNL     1      47.993   1.449   6.149  0.00  0.00    +0.000 NA
ATOM     27  C   UNL     1      47.297   1.983   6.906  0.00  0.00    +0.000 C 
ENDBRANCH  20  27
ENDBRANCH  18  23
ENDBRANCH  15  18
ENDBRANCH   1  15
TORSDOF 6
ENDMDL
MODEL 5
REMARK VINA RESULT:    -6.687      3.285      6.894
REMARK INTER + INTRA:          -9.460
REMARK INTER:                  -9.328
REMARK INTRA:                  -0.131
REMARK UNBOUND:                -0.622
REMARK  Name = 
REMARK  6 active torsions:
REMARK  status: ('A' for Active; 'I' for Inactive)
REMARK    1  A    between atoms: C_2  and  C_3
REMARK    2  A    between atoms: C_6  and  N_7
REMARK    3  A    between atoms: N_7  and  C_8
REMARK    4  A    between atoms: C_8  and  C_9
REMARK    5  A    between atoms: C_13  and  N_14
REMARK    6  A    between atoms: C_17  and  O_18
REMARK                            x       y       z     vdW  Elec       q    Type
REMARK                         _______ _______ _______ _____ _____    ______ ____
ROOT
ATOM      1  C   UNL     1      47.059   8.170  12.352  0.00  0.00    +0.000 A 
ATOM      2  C   UNL     1      46.474   9.443  12.267  0.00  0.00    +0.000 A 
ATOM      3  C   UNL     1      45.207   9.608  11.726  0.00  0.00    +0.000 A 
ATOM      4  C   UNL     1      44.488   8.491  11.300  0.00  0.00    +0.000 A 
ATOM      5  C   UNL     1      44.985   7.190  11.456  0.00  0.00    +0.000 A 
ATOM      6  C   UNL     1      46.266   7.063  12.007  0.00  0.00    +0.000 A 
ENDROOT
BRANCH   5   7
ATOM      7  N   UNL     1      44.263   6.058  11.102  0.00  0.00    +0.000 N 
ATOM      8  C   UNL     1      44.961   4.846  10.679  0.00  0.00    +0.000 C 
ATOM      9  C   UNL     1      45.004   3.838  11.821  0.00  0.00    +0.000 C 
ATOM     10  C   UNL     1      43.605   3.563  12.365  0.00  0.00    +0.000 C 
ATOM     11  C   UNL     1      42.876   4.852  12.744  0.00  0.00    +0.000 C 
ATOM     12  C   UNL     1      42.896   5.882  11.614  0.00  0.00    +0.000 C 
BRANCH  10  13
ATOM     13  O   UNL     1      42.839   2.811  11.423  0.00  0.00    +0.000 OA
ATOM     14  H   UNL     1      41.915   2.779  11.720  0.00  0.00    +0.000 HD
ENDBRANCH  10  13
ENDBRANCH   5   7
BRANCH   1  15
ATOM     15  C   UNL     1      48.543   8.010  12.633  0.00  0.00    +0.000 C 
ATOM     16  C   UNL     1      49.460   7.589  11.499  0.00  0.00    +0.000 C 
ATOM     17  C   UNL     1      49.403   9.030  11.879  0.00  0.00    +0.000 C 
BRANCH  15  18
ATOM     18  N   UNL     1      48.900   7.807  14.029  0.00  0.00    +0.000 N 
ATOM     19  H   UNL     1      49.155   8.605  14.599  0.00  0.00    +0.000 HD
BRANCH  18  23
ATOM     20  C   UNL     1      47.722   4.648  16.369  0.00  0.00    +0.000 A 
ATOM     21  C   UNL     1      47.512   4.697  15.006  0.00  0.00    +0.000 A 
ATOM     22  N   UNL     1      47.930   5.736  14.239  0.00  0.00    +0.000 NA
ATOM     23  C   UNL     1      48.567   6.753  14.868  0.00  0.00    +0.000 A 
ATOM     24  C   UNL     1      48.769   6.694  16.245  0.00  0.00    +0.000 A 
ATOM     25  N   UNL     1      48.359   5.649  17.028  0.00  0.00    +0.000 NA
BRANCH  20  27
ATOM     26  N   UNL     1      46.830   2.628  17.736  0.00  0.00    +0.000 NA
ATOM     27  C   UNL     1      47.259   3.523  17.138  0.00  0.00    +0.000 C 
ENDBRANCH  20  27
ENDBRANCH  18  23
ENDBRANCH  15  18
ENDBRANCH   1  15
TORSDOF 6
ENDMDL
MODEL 6
REMARK VINA RESULT:    -6.297      3.295      5.210
REMARK INTER + INTRA:          -8.944
REMARK INTER:                  -8.715
REMARK INTRA:                  -0.229
REMARK UNBOUND:                -0.622
REMARK  Name = 
REMARK  6 active torsions:
REMARK  status: ('A' for Active; 'I' for Inactive)
REMARK    1  A    between atoms: C_2  and  C_3
REMARK    2  A    between atoms: C_6  and  N_7
REMARK    3  A    between atoms: N_7  and  C_8
REMARK    4  A    between atoms: C_8  and  C_9
REMARK    5  A    between atoms: C_13  and  N_14
REMARK    6  A    between atoms: C_17  and  O_18
REMARK                            x       y       z     vdW  Elec       q    Type
REMARK                         _______ _______ _______ _____ _____    ______ ____
ROOT
ATOM      1  C   UNL     1      49.233   7.367  14.214  0.00  0.00    +0.000 A 
ATOM      2  C   UNL     1      50.500   7.956  14.099  0.00  0.00    +0.000 A 
ATOM      3  C   UNL     1      51.426   7.858  15.128  0.00  0.00    +0.000 A 
ATOM      4  C   UNL     1      51.109   7.127  16.273  0.00  0.00    +0.000 A 
ATOM      5  C   UNL     1      49.896   6.435  16.395  0.00  0.00    +0.000 A 
ATOM      6  C   UNL     1      48.988   6.558  15.335  0.00  0.00    +0.000 A 
ENDROOT
BRANCH   5   7
ATOM      7  N   UNL     1      49.583   5.647  17.494  0.00  0.00    +0.000 N 
ATOM      8  C   UNL     1      48.226   5.653  18.037  0.00  0.00    +0.000 C 
ATOM      9  C   UNL     1      47.470   4.413  17.574  0.00  0.00    +0.000 C 
ATOM     10  C   UNL     1      48.242   3.140  17.910  0.00  0.00    +0.000 C 
ATOM     11  C   UNL     1      49.675   3.187  17.382  0.00  0.00    +0.000 C 
ATOM     12  C   UNL     1      50.404   4.466  17.796  0.00  0.00    +0.000 C 
BRANCH  10  13
ATOM     13  O   UNL     1      48.233   2.905  19.319  0.00  0.00    +0.000 OA
ATOM     14  H   UNL     1      47.332   3.035  19.656  0.00  0.00    +0.000 HD
ENDBRANCH  10  13
ENDBRANCH   5   7
BRANCH   1  15
ATOM     15  C   UNL     1      48.112   7.733  13.257  0.00  0.00    +0.000 C 
ATOM     16  C   UNL     1      48.324   8.884  12.290  0.00  0.00    +0.000 C 
ATOM     17  C   UNL     1      48.481   7.487  11.789  0.00  0.00    +0.000 C 
BRANCH  15  18
ATOM     18  N   UNL     1      46.782   7.289  13.646  0.00  0.00    +0.000 N 
ATOM     19  H   UNL     1      46.125   7.961  14.027  0.00  0.00    +0.000 HD
BRANCH  18  23
ATOM     20  C   UNL     1      44.495   4.132  12.364  0.00  0.00    +0.000 A 
ATOM     21  C   UNL     1      44.274   5.434  11.966  0.00  0.00    +0.000 A 
ATOM     22  N   UNL     1      45.054   6.467  12.377  0.00  0.00    +0.000 NA
ATOM     23  C   UNL     1      46.075   6.175  13.217  0.00  0.00    +0.000 A 
ATOM     24  C   UNL     1      46.286   4.857  13.615  0.00  0.00    +0.000 A 
ATOM     25  N   UNL     1      45.512   3.806  13.203  0.00  0.00    +0.000 NA
BRANCH  20  27
ATOM     26  N   UNL     1      42.984   2.180  11.560  0.00  0.00    +0.000 NA
ATOM     27  C   UNL     1      43.639   3.072  11.899  0.00  0.00    +0.000 C 
ENDBRANCH  20  27
ENDBRANCH  18  23
ENDBRANCH  15  18
ENDBRANCH   1  15
TORSDOF 6
ENDMDL
MODEL 7
REMARK VINA RESULT:    -6.284      3.489      7.823
REMARK INTER + INTRA:          -8.927
REMARK INTER:                  -8.549
REMARK INTRA:                  -0.378
REMARK UNBOUND:                -0.622
REMARK  Name = 
REMARK  6 active torsions:
REMARK  status: ('A' for Active; 'I' for Inactive)
REMARK    1  A    between atoms: C_2  and  C_3
REMARK    2  A    between atoms: C_6  and  N_7
REMARK    3  A    between atoms: N_7  and  C_8
REMARK    4  A    between atoms: C_8  and  C_9
REMARK    5  A    between atoms: C_13  and  N_14
REMARK    6  A    between atoms: C_17  and  O_18
REMARK                            x       y       z     vdW  Elec       q    Type
REMARK                         _______ _______ _______ _____ _____    ______ ____
ROOT
ATOM      1  C   UNL     1      47.603   7.495  13.022  0.00  0.00    +0.000 A 
ATOM      2  C   UNL     1      46.859   8.678  12.895  0.00  0.00    +0.000 A 
ATOM      3  C   UNL     1      45.487   8.636  12.697  0.00  0.00    +0.000 A 
ATOM      4  C   UNL     1      44.832   7.405  12.667  0.00  0.00    +0.000 A 
ATOM      5  C   UNL     1      45.513   6.200  12.890  0.00  0.00    +0.000 A 
ATOM      6  C   UNL     1      46.897   6.283  13.088  0.00  0.00    +0.000 A 
ENDROOT
BRANCH   5   7
ATOM      7  N   UNL     1      44.875   4.968  12.932  0.00  0.00    +0.000 N 
ATOM      8  C   UNL     1      43.415   4.899  12.944  0.00  0.00    +0.000 C 
ATOM      9  C   UNL     1      42.895   4.549  11.555  0.00  0.00    +0.000 C 
ATOM     10  C   UNL     1      43.550   3.275  11.027  0.00  0.00    +0.000 C 
ATOM     11  C   UNL     1      45.075   3.353  11.082  0.00  0.00    +0.000 C 
ATOM     12  C   UNL     1      45.584   3.769  12.462  0.00  0.00    +0.000 C 
BRANCH  10  13
ATOM     13  O   UNL     1      43.078   2.134  11.745  0.00  0.00    +0.000 OA
ATOM     14  H   UNL     1      43.710   1.405  11.631  0.00  0.00    +0.000 HD
ENDBRANCH  10  13
ENDBRANCH   5   7
BRANCH   1  15
ATOM     15  C   UNL     1      49.118   7.511  12.914  0.00  0.00    +0.000 C 
ATOM     16  C   UNL     1      49.753   7.453  11.536  0.00  0.00    +0.000 C 
ATOM     17  C   UNL     1      49.651   8.772  12.225  0.00  0.00    +0.000 C 
BRANCH  15  18
ATOM     18  N   UNL     1      49.839   7.105  14.112  0.00  0.00    +0.000 N 
ATOM     19  H   UNL     1      50.852   7.144  14.120  0.00  0.00    +0.000 HD
BRANCH  18  23
ATOM     20  C   UNL     1      48.385   6.743  17.932  0.00  0.00    +0.000 A 
ATOM     21  C   UNL     1      48.681   5.659  17.132  0.00  0.00    +0.000 A 
ATOM     22  N   UNL     1      49.186   5.792  15.879  0.00  0.00    +0.000 NA
ATOM     23  C   UNL     1      49.387   7.052  15.423  0.00  0.00    +0.000 A 
ATOM     24  C   UNL     1      49.080   8.138  16.238  0.00  0.00    +0.000 A 
ATOM     25  N   UNL     1      48.577   8.018  17.506  0.00  0.00    +0.000 NA
BRANCH  20  27
ATOM     26  N   UNL     1      47.461   6.347  20.327  0.00  0.00    +0.000 NA
ATOM     27  C   UNL     1      47.850   6.549  19.255  0.00  0.00    +0.000 C 
ENDBRANCH  20  27
ENDBRANCH  18  23
ENDBRANCH  15  18
ENDBRANCH   1  15
TORSDOF 6
ENDMDL
MODEL 8
REMARK VINA RESULT:    -6.116      2.927      7.632
REMARK INTER + INTRA:          -8.705
REMARK INTER:                  -8.801
REMARK INTRA:                   0.096
REMARK UNBOUND:                -0.622
REMARK  Name = 
REMARK  6 active torsions:
REMARK  status: ('A' for Active; 'I' for Inactive)
REMARK    1  A    between atoms: C_2  and  C_3
REMARK    2  A    between atoms: C_6  and  N_7
REMARK    3  A    between atoms: N_7  and  C_8
REMARK    4  A    between atoms: C_8  and  C_9
REMARK    5  A    between atoms: C_13  and  N_14
REMARK    6  A    between atoms: C_17  and  O_18
REMARK                            x       y       z     vdW  Elec       q    Type
REMARK                         _______ _______ _______ _____ _____    ______ ____
ROOT
ATOM      1  C   UNL     1      45.344   4.829  11.835  0.00  0.00    +0.000 A 
ATOM      2  C   UNL     1      44.409   4.203  12.673  0.00  0.00    +0.000 A 
ATOM      3  C   UNL     1      43.565   3.216  12.182  0.00  0.00    +0.000 A 
ATOM      4  C   UNL     1      43.678   2.810  10.853  0.00  0.00    +0.000 A 
ATOM      5  C   UNL     1      44.663   3.332  10.003  0.00  0.00    +0.000 A 
ATOM      6  C   UNL     1      45.496   4.325  10.533  0.00  0.00    +0.000 A 
ENDROOT
BRANCH   5   7
ATOM      7  N   UNL     1      44.839   2.898   8.695  0.00  0.00    +0.000 N 
ATOM      8  C   UNL     1      45.227   3.848   7.655  0.00  0.00    +0.000 C 
ATOM      9  C   UNL     1      46.716   3.723   7.358  0.00  0.00    +0.000 C 
ATOM     10  C   UNL     1      47.091   2.282   7.022  0.00  0.00    +0.000 C 
ATOM     11  C   UNL     1      46.621   1.305   8.098  0.00  0.00    +0.000 C 
ATOM     12  C   UNL     1      45.141   1.483   8.437  0.00  0.00    +0.000 C 
BRANCH  10  13
ATOM     13  O   UNL     1      46.569   1.912   5.745  0.00  0.00    +0.000 OA
ATOM     14  H   UNL     1      45.976   2.614   5.430  0.00  0.00    +0.000 HD
ENDBRANCH  10  13
ENDBRANCH   5   7
BRANCH   1  15
ATOM     15  C   UNL     1      46.037   6.112  12.261  0.00  0.00    +0.000 C 
ATOM     16  C   UNL     1      45.586   7.424  11.645  0.00  0.00    +0.000 C 
ATOM     17  C   UNL     1      45.104   7.069  13.011  0.00  0.00    +0.000 C 
BRANCH  15  18
ATOM     18  N   UNL     1      47.361   5.949  12.843  0.00  0.00    +0.000 N 
ATOM     19  H   UNL     1      48.161   6.368  12.384  0.00  0.00    +0.000 HD
BRANCH  18  23
ATOM     20  C   UNL     1      48.165   4.984  16.749  0.00  0.00    +0.000 A 
ATOM     21  C   UNL     1      47.433   4.172  15.907  0.00  0.00    +0.000 A 
ATOM     22  N   UNL     1      47.196   4.490  14.609  0.00  0.00    +0.000 NA
ATOM     23  C   UNL     1      47.704   5.662  14.157  0.00  0.00    +0.000 A 
ATOM     24  C   UNL     1      48.438   6.474  15.017  0.00  0.00    +0.000 A 
ATOM     25  N   UNL     1      48.691   6.161  16.326  0.00  0.00    +0.000 NA
BRANCH  20  27
ATOM     26  N   UNL     1      48.626   4.316  19.217  0.00  0.00    +0.000 NA
ATOM     27  C   UNL     1      48.389   4.600  18.119  0.00  0.00    +0.000 C 
ENDBRANCH  20  27
ENDBRANCH  18  23
ENDBRANCH  15  18
ENDBRANCH   1  15
TORSDOF 6
ENDMDL
MODEL 9
REMARK VINA RESULT:    -5.888      2.972      7.442
REMARK INTER + INTRA:          -8.404
REMARK INTER:                  -8.212
REMARK INTRA:                  -0.192
REMARK UNBOUND:                -0.622
REMARK  Name = 
REMARK  6 active torsions:
REMARK  status: ('A' for Active; 'I' for Inactive)
REMARK    1  A    between atoms: C_2  and  C_3
REMARK    2  A    between atoms: C_6  and  N_7
REMARK    3  A    between atoms: N_7  and  C_8
REMARK    4  A    between atoms: C_8  and  C_9
REMARK    5  A    between atoms: C_13  and  N_14
REMARK    6  A    between atoms: C_17  and  O_18
REMARK                            x       y       z     vdW  Elec       q    Type
REMARK                         _______ _______ _______ _____ _____    ______ ____
ROOT
ATOM      1  C   UNL     1      45.129   4.987  12.083  0.00  0.00    +0.000 A 
ATOM      2  C   UNL     1      44.369   4.228  12.985  0.00  0.00    +0.000 A 
ATOM      3  C   UNL     1      43.633   3.134  12.550  0.00  0.00    +0.000 A 
ATOM      4  C   UNL     1      43.684   2.759  11.207  0.00  0.00    +0.000 A 
ATOM      5  C   UNL     1      44.507   3.422  10.286  0.00  0.00    +0.000 A 
ATOM      6  C   UNL     1      45.235   4.520  10.763  0.00  0.00    +0.000 A 
ENDROOT
BRANCH   5   7
ATOM      7  N   UNL     1      44.627   3.028   8.960  0.00  0.00    +0.000 N 
ATOM      8  C   UNL     1      44.991   4.004   7.936  0.00  0.00    +0.000 C 
ATOM      9  C   UNL     1      46.466   3.867   7.579  0.00  0.00    +0.000 C 
ATOM     10  C   UNL     1      46.805   2.433   7.184  0.00  0.00    +0.000 C 
ATOM     11  C   UNL     1      46.361   1.428   8.246  0.00  0.00    +0.000 C 
ATOM     12  C   UNL     1      44.897   1.617   8.646  0.00  0.00    +0.000 C 
BRANCH  10  13
ATOM     13  O   UNL     1      46.230   2.111   5.917  0.00  0.00    +0.000 OA
ATOM     14  H   UNL     1      45.994   1.169   5.906  0.00  0.00    +0.000 HD
ENDBRANCH  10  13
ENDBRANCH   5   7
BRANCH   1  15
ATOM     15  C   UNL     1      45.667   6.353  12.472  0.00  0.00    +0.000 C 
ATOM     16  C   UNL     1      45.860   7.398  11.389  0.00  0.00    +0.000 C 
ATOM     17  C   UNL     1      44.648   7.477  12.255  0.00  0.00    +0.000 C 
BRANCH  15  18
ATOM     18  N   UNL     1      46.393   6.407  13.733  0.00  0.00    +0.000 N 
ATOM     19  H   UNL     1      46.068   5.852  14.517  0.00  0.00    +0.000 HD
BRANCH  18  23
ATOM     20  C   UNL     1      50.250   7.463  14.652  0.00  0.00    +0.000 A 
ATOM     21  C   UNL     1      49.507   6.582  15.411  0.00  0.00    +0.000 A 
ATOM     22  N   UNL     1      48.241   6.221  15.083  0.00  0.00    +0.000 NA
ATOM     23  C   UNL     1      47.712   6.771  13.964  0.00  0.00    +0.000 A 
ATOM     24  C   UNL     1      48.469   7.662  13.208  0.00  0.00    +0.000 A 
ATOM     25  N   UNL     1      49.749   8.029  13.525  0.00  0.00    +0.000 NA
BRANCH  20  27
ATOM     26  N   UNL     1      52.661   8.060  15.409  0.00  0.00    +0.000 NA
ATOM     27  C   UNL     1      51.590   7.814  15.044  0.00  0.00    +0.000 C 
ENDBRANCH  20  27
ENDBRANCH  18  23
ENDBRANCH  15  18
ENDBRANCH   1  15
TORSDOF 6
ENDMDL
