MODEL 1
REMARK VINA RESULT:    -7.637      0.000      0.000
REMARK INTER + INTRA:          -9.467
REMARK INTER:                  -8.977
REMARK INTRA:                  -0.490
REMARK UNBOUND:                -0.490
REMARK  Name = 
REMARK  3 active torsions:
REMARK  status: ('A' for Active; 'I' for Inactive)
REMARK    1  A    between atoms: C_2  and  C_4
REMARK    2  A    between atoms: N_8  and  C_9
REMARK    3  A    between atoms: C_9  and  C_10
REMARK                            x       y       z     vdW  Elec       q    Type
REMARK                         _______ _______ _______ _____ _____    ______ ____
ROOT
ATOM      1  C   UNL     1      46.474   2.922   7.363  0.00  0.00    +0.000 A 
ATOM      2  C   UNL     1      45.891   1.840   8.014  0.00  0.00    +0.000 A 
ATOM      3  C   UNL     1      45.160   2.069   9.178  0.00  0.00    +0.000 A 
ATOM      4  C   UNL     1      45.028   3.367   9.684  0.00  0.00    +0.000 A 
ATOM      5  N   UNL     1      44.199   3.527  10.822  0.00  0.00    +0.000 N 
ATOM      6  N   UNL     1      45.599   4.415   9.062  0.00  0.00    +0.000 NA
ATOM      7  C   UNL     1      46.309   4.178   7.926  0.00  0.00    +0.000 A 
ATOM      8  H   UNL     1      44.392   2.765  11.466  0.00  0.00    +0.000 HD
ENDROOT
BRANCH   1  10
ATOM      9  N   UNL     1      48.605   2.497   6.267  0.00  0.00    +0.000 N 
ATOM     10  C   UNL     1      47.272   2.782   6.127  0.00  0.00    +0.000 C 
ATOM     11  O   UNL     1      46.764   2.903   5.021  0.00  0.00    +0.000 OA
ATOM     12  H   UNL     1      49.118   2.323   5.412  0.00  0.00    +0.000 HD
ATOM     13  H   UNL     1      48.999   2.143   7.126  0.00  0.00    +0.000 HD
ENDBRANCH   1  10
BRANCH   5  14
ATOM     14  C   UNL     1      43.990   4.842  11.488  0.00  0.00    +0.000 C 
ATOM     15  C   UNL     1      42.543   5.131  11.867  0.00  0.00    +0.000 C 
ATOM     16  C   UNL     1      43.218   5.976  10.839  0.00  0.00    +0.000 C 
BRANCH  14  17
ATOM     17  C   UNL     1      45.062   5.244  12.509  0.00  0.00    +0.000 C 
ATOM     18  C   UNL     1      46.072   6.235  11.917  0.00  0.00    +0.000 C 
ATOM     19  C   UNL     1      47.165   6.548  12.928  0.00  0.00    +0.000 C 
ATOM     20  O   UNL     1      47.809   5.355  13.368  0.00  0.00    +0.000 OA
ATOM     21  C   UNL     1      46.907   4.475  14.035  0.00  0.00    +0.000 C 
ATOM     22  C   UNL     1      45.800   4.026  13.090  0.00  0.00    +0.000 C 
ENDBRANCH  14  17
ENDBRANCH   5  14
TORSDOF 3
ENDMDL
MODEL 2
REMARK VINA RESULT:    -6.393      2.408      6.503
REMARK INTER + INTRA:          -8.004
REMARK INTER:                  -7.834
REMARK INTRA:                  -0.170
REMARK UNBOUND:                -0.490
REMARK  Name = 
REMARK  3 active torsions:
REMARK  status: ('A' for Active; 'I' for Inactive)
REMARK    1  A    between atoms: C_2  and  C_4
REMARK    2  A    between atoms: N_8  and  C_9
REMARK    3  A    between atoms: C_9  and  C_10
REMARK                            x       y       z     vdW  Elec       q    Type
REMARK                         _______ _______ _______ _____ _____    ______ ____
ROOT
ATOM      1  C   UNL     1      47.523   5.328  14.936  0.00  0.00    +0.000 A 
ATOM      2  C   UNL     1      47.920   6.283  14.006  0.00  0.00    +0.000 A 
ATOM      3  C   UNL     1      47.229   6.377  12.799  0.00  0.00    +0.000 A 
ATOM      4  C   UNL     1      46.162   5.514  12.530  0.00  0.00    +0.000 A 
ATOM      5  N   UNL     1      45.457   5.729  11.319  0.00  0.00    +0.000 N 
ATOM      6  N   UNL     1      45.780   4.582  13.423  0.00  0.00    +0.000 NA
ATOM      7  C   UNL     1      46.462   4.502  14.597  0.00  0.00    +0.000 A 
ATOM      8  H   UNL     1      46.134   5.917  10.586  0.00  0.00    +0.000 HD
ENDROOT
BRANCH   1  10
ATOM      9  N   UNL     1      47.397   5.015  17.346  0.00  0.00    +0.000 N 
ATOM     10  C   UNL     1      48.194   5.147  16.239  0.00  0.00    +0.000 C 
ATOM     11  O   UNL     1      49.413   5.102  16.330  0.00  0.00    +0.000 OA
ATOM     12  H   UNL     1      47.870   4.808  18.216  0.00  0.00    +0.000 HD
ATOM     13  H   UNL     1      46.415   4.792  17.286  0.00  0.00    +0.000 HD
ENDBRANCH   1  10
BRANCH   5  14
ATOM     14  C   UNL     1      44.320   4.871  10.885  0.00  0.00    +0.000 C 
ATOM     15  C   UNL     1      42.954   5.539  10.986  0.00  0.00    +0.000 C 
ATOM     16  C   UNL     1      43.263   4.361  11.847  0.00  0.00    +0.000 C 
BRANCH  14  17
ATOM     17  C   UNL     1      44.577   4.015   9.638  0.00  0.00    +0.000 C 
ATOM     18  C   UNL     1      44.915   2.564  10.002  0.00  0.00    +0.000 C 
ATOM     19  C   UNL     1      45.244   1.765   8.749  0.00  0.00    +0.000 C 
ATOM     20  O   UNL     1      46.304   2.375   8.018  0.00  0.00    +0.000 OA
ATOM     21  C   UNL     1      45.958   3.682   7.563  0.00  0.00    +0.000 C 
ATOM     22  C   UNL     1      45.681   4.604   8.743  0.00  0.00    +0.000 C 
ENDBRANCH  14  17
ENDBRANCH   5  14
TORSDOF 3
ENDMDL
MODEL 3
REMARK VINA RESULT:    -5.224      2.310      3.573
REMARK INTER + INTRA:          -6.630
REMARK INTER:                  -6.193
REMARK INTRA:                  -0.436
REMARK UNBOUND:                -0.490
REMARK  Name = 
REMARK  3 active torsions:
REMARK  status: ('A' for Active; 'I' for Inactive)
REMARK    1  A    between atoms: C_2  and  C_4
REMARK    2  A    between atoms: N_8  and  C_9
REMARK    3  A    between atoms: C_9  and  C_10
REMARK                            x       y       z     vdW  Elec       q    Type
REMARK                         _______ _______ _______ _____ _____    ______ ____
ROOT
ATOM      1  C   UNL     1      44.660   3.995   9.768  0.00  0.00    +0.000 A 
ATOM      2  C   UNL     1      43.826   3.980  10.880  0.00  0.00    +0.000 A 
ATOM      3  C   UNL     1      43.873   5.049  11.773  0.00  0.00    +0.000 A 
ATOM      4  C   UNL     1      44.756   6.112  11.553  0.00  0.00    +0.000 A 
ATOM      5  N   UNL     1      44.682   7.200  12.458  0.00  0.00    +0.000 N 
ATOM      6  N   UNL     1      45.571   6.127  10.482  0.00  0.00    +0.000 NA
ATOM      7  C   UNL     1      45.514   5.077   9.618  0.00  0.00    +0.000 A 
ATOM      8  H   UNL     1      44.588   6.826  13.397  0.00  0.00    +0.000 HD
ENDROOT
BRANCH   1  10
ATOM      9  N   UNL     1      44.560   1.624   9.230  0.00  0.00    +0.000 N 
ATOM     10  C   UNL     1      44.688   2.908   8.768  0.00  0.00    +0.000 C 
ATOM     11  O   UNL     1      44.808   3.140   7.574  0.00  0.00    +0.000 OA
ATOM     12  H   UNL     1      44.497   0.899   8.526  0.00  0.00    +0.000 HD
ATOM     13  H   UNL     1      44.208   1.409  10.151  0.00  0.00    +0.000 HD
ENDBRANCH   1  10
BRANCH   5  14
ATOM     14  C   UNL     1      45.579   8.386  12.367  0.00  0.00    +0.000 C 
ATOM     15  C   UNL     1      44.882   9.720  12.600  0.00  0.00    +0.000 C 
ATOM     16  C   UNL     1      45.464   9.418  11.261  0.00  0.00    +0.000 C 
BRANCH  14  17
ATOM     17  C   UNL     1      46.967   8.215  12.999  0.00  0.00    +0.000 C 
ATOM     18  C   UNL     1      48.082   8.261  11.947  0.00  0.00    +0.000 C 
ATOM     19  C   UNL     1      49.435   8.006  12.596  0.00  0.00    +0.000 C 
ATOM     20  O   UNL     1      49.439   6.767  13.299  0.00  0.00    +0.000 OA
ATOM     21  C   UNL     1      48.491   6.753  14.365  0.00  0.00    +0.000 C 
ATOM     22  C   UNL     1      47.076   6.922  13.826  0.00  0.00    +0.000 C 
ENDBRANCH  14  17
ENDBRANCH   5  14
TORSDOF 3
ENDMDL
MODEL 4
REMARK VINA RESULT:    -5.133      3.459      5.426
REMARK INTER + INTRA:          -6.522
REMARK INTER:                  -6.931
REMARK INTRA:                   0.409
REMARK UNBOUND:                -0.490
REMARK  Name = 
REMARK  3 active torsions:
REMARK  status: ('A' for Active; 'I' for Inactive)
REMARK    1  A    between atoms: C_2  and  C_4
REMARK    2  A    between atoms: N_8  and  C_9
REMARK    3  A    between atoms: C_9  and  C_10
REMARK                            x       y       z     vdW  Elec       q    Type
REMARK                         _______ _______ _______ _____ _____    ______ ____
ROOT
ATOM      1  C   UNL     1      44.939   3.956  11.561  0.00  0.00    +0.000 A 
ATOM      2  C   UNL     1      45.295   3.916  12.904  0.00  0.00    +0.000 A 
ATOM      3  C   UNL     1      46.087   4.938  13.423  0.00  0.00    +0.000 A 
ATOM      4  C   UNL     1      46.525   5.979  12.595  0.00  0.00    +0.000 A 
ATOM      5  N   UNL     1      47.254   7.023  13.216  0.00  0.00    +0.000 N 
ATOM      6  N   UNL     1      46.190   6.016  11.292  0.00  0.00    +0.000 NA
ATOM      7  C   UNL     1      45.415   5.013  10.800  0.00  0.00    +0.000 A 
ATOM      8  H   UNL     1      47.910   6.608  13.871  0.00  0.00    +0.000 HD
ENDROOT
BRANCH   1  10
ATOM      9  N   UNL     1      44.647   2.252   9.849  0.00  0.00    +0.000 N 
ATOM     10  C   UNL     1      44.107   2.918  10.918  0.00  0.00    +0.000 C 
ATOM     11  O   UNL     1      42.986   2.652  11.327  0.00  0.00    +0.000 OA
ATOM     12  H   UNL     1      44.098   1.488   9.474  0.00  0.00    +0.000 HD
ATOM     13  H   UNL     1      45.636   2.256   9.647  0.00  0.00    +0.000 HD
ENDBRANCH   1  10
BRANCH   5  14
ATOM     14  C   UNL     1      47.809   8.179  12.458  0.00  0.00    +0.000 C 
ATOM     15  C   UNL     1      49.015   7.841  11.590  0.00  0.00    +0.000 C 
ATOM     16  C   UNL     1      49.178   8.768  12.748  0.00  0.00    +0.000 C 
BRANCH  14  17
ATOM     17  C   UNL     1      46.770   9.133  11.854  0.00  0.00    +0.000 C 
ATOM     18  C   UNL     1      47.302  10.568  11.755  0.00  0.00    +0.000 C 
ATOM     19  C   UNL     1      46.220  11.500  11.229  0.00  0.00    +0.000 C 
ATOM     20  O   UNL     1      45.051  11.436  12.042  0.00  0.00    +0.000 OA
ATOM     21  C   UNL     1      44.471  10.133  12.044  0.00  0.00    +0.000 C 
ATOM     22  C   UNL     1      45.442   9.115  12.629  0.00  0.00    +0.000 C 
ENDBRANCH  14  17
ENDBRANCH   5  14
TORSDOF 3
ENDMDL
MODEL 5
REMARK VINA RESULT:    -5.100      3.862      5.751
REMARK INTER + INTRA:          -6.485
REMARK INTER:                  -5.963
REMARK INTRA:                  -0.522
REMARK UNBOUND:                -0.490
REMARK  Name = 
REMARK  3 active torsions:
REMARK  status: ('A' for Active; 'I' for Inactive)
REMARK    1  A    between atoms: C_2  and  C_4
REMARK    2  A    between atoms: N_8  and  C_9
REMARK    3  A    between atoms: C_9  and  C_10
REMARK                            x       y       z     vdW  Elec       q    Type
REMARK                         _______ _______ _______ _____ _____    ______ ____
ROOT
ATOM      1  C   UNL     1      44.667   4.918  11.991  0.00  0.00    +0.000 A 
ATOM      2  C   UNL     1      44.084   6.179  11.932  0.00  0.00    +0.000 A 
ATOM      3  C   UNL     1      44.898   7.304  12.051  0.00  0.00    +0.000 A 
ATOM      4  C   UNL     1      46.277   7.159  12.238  0.00  0.00    +0.000 A 
ATOM      5  N   UNL     1      47.046   8.349  12.264  0.00  0.00    +0.000 N 
ATOM      6  N   UNL     1      46.844   5.940  12.305  0.00  0.00    +0.000 NA
ATOM      7  C   UNL     1      46.038   4.851  12.186  0.00  0.00    +0.000 A 
ATOM      8  H   UNL     1      46.545   9.040  12.816  0.00  0.00    +0.000 HD
ENDROOT
BRANCH   1  10
ATOM      9  N   UNL     1      44.255   2.624  12.693  0.00  0.00    +0.000 N 
ATOM     10  C   UNL     1      43.890   3.666  11.881  0.00  0.00    +0.000 C 
ATOM     11  O   UNL     1      42.949   3.564  11.107  0.00  0.00    +0.000 OA
ATOM     12  H   UNL     1      43.661   1.806  12.665  0.00  0.00    +0.000 HD
ATOM     13  H   UNL     1      44.839   2.747  13.507  0.00  0.00    +0.000 HD
ENDBRANCH   1  10
BRANCH   5  14
ATOM     14  C   UNL     1      48.519   8.353  12.485  0.00  0.00    +0.000 C 
ATOM     15  C   UNL     1      49.303   9.190  11.483  0.00  0.00    +0.000 C 
ATOM     16  C   UNL     1      49.495   7.711  11.517  0.00  0.00    +0.000 C 
BRANCH  14  17
ATOM     17  C   UNL     1      48.966   8.435  13.951  0.00  0.00    +0.000 C 
ATOM     18  C   UNL     1      49.360   7.061  14.506  0.00  0.00    +0.000 C 
ATOM     19  C   UNL     1      49.719   7.167  15.981  0.00  0.00    +0.000 C 
ATOM     20  O   UNL     1      48.648   7.738  16.727  0.00  0.00    +0.000 OA
ATOM     21  C   UNL     1      48.352   9.068  16.306  0.00  0.00    +0.000 C 
ATOM     22  C   UNL     1      47.899   9.081  14.852  0.00  0.00    +0.000 C 
ENDBRANCH  14  17
ENDBRANCH   5  14
TORSDOF 3
ENDMDL
MODEL 6
REMARK VINA RESULT:    -4.897      3.363      5.423
REMARK INTER + INTRA:          -6.245
REMARK INTER:                  -6.656
REMARK INTRA:                   0.411
REMARK UNBOUND:                -0.490
REMARK  Name = 
REMARK  3 active torsions:
REMARK  status: ('A' for Active; 'I' for Inactive)
REMARK    1  A    between atoms: C_2  and  C_4
REMARK    2  A    between atoms: N_8  and  C_9
REMARK    3  A    between atoms: C_9  and  C_10
REMARK                            x       y       z     vdW  Elec       q    Type
REMARK                         _______ _______ _______ _____ _____    ______ ____
ROOT
ATOM      1  C   UNL     1      44.988   4.469  11.418  0.00  0.00    +0.000 A 
ATOM      2  C   UNL     1      45.329   3.877  12.629  0.00  0.00    +0.000 A 
ATOM      3  C   UNL     1      46.217   4.537  13.476  0.00  0.00    +0.000 A 
ATOM      4  C   UNL     1      46.764   5.769  13.101  0.00  0.00    +0.000 A 
ATOM      5  N   UNL     1      47.592   6.416  14.052  0.00  0.00    +0.000 N 
ATOM      6  N   UNL     1      46.444   6.341  11.925  0.00  0.00    +0.000 NA
ATOM      7  C   UNL     1      45.574   5.687  11.109  0.00  0.00    +0.000 A 
ATOM      8  H   UNL     1      48.197   5.718  14.474  0.00  0.00    +0.000 HD
ENDROOT
BRANCH   1  10
ATOM      9  N   UNL     1      43.984   4.404   9.202  0.00  0.00    +0.000 N 
ATOM     10  C   UNL     1      44.060   3.846  10.452  0.00  0.00    +0.000 C 
ATOM     11  O   UNL     1      43.394   2.865  10.747  0.00  0.00    +0.000 OA
ATOM     12  H   UNL     1      43.408   3.916   8.529  0.00  0.00    +0.000 HD
ATOM     13  H   UNL     1      44.686   5.035   8.844  0.00  0.00    +0.000 HD
ENDBRANCH   1  10
BRANCH   5  14
ATOM     14  C   UNL     1      48.266   7.716  13.782  0.00  0.00    +0.000 C 
ATOM     15  C   UNL     1      48.095   8.754  14.884  0.00  0.00    +0.000 C 
ATOM     16  C   UNL     1      47.500   9.003  13.539  0.00  0.00    +0.000 C 
BRANCH  14  17
ATOM     17  C   UNL     1      49.656   7.619  13.137  0.00  0.00    +0.000 C 
ATOM     18  C   UNL     1      50.636   8.633  13.738  0.00  0.00    +0.000 C 
ATOM     19  C   UNL     1      51.977   8.564  13.021  0.00  0.00    +0.000 C 
ATOM     20  O   UNL     1      51.817   8.767  11.619  0.00  0.00    +0.000 OA
ATOM     21  C   UNL     1      51.007   7.757  11.021  0.00  0.00    +0.000 C 
ATOM     22  C   UNL     1      49.602   7.780  11.608  0.00  0.00    +0.000 C 
ENDBRANCH  14  17
ENDBRANCH   5  14
TORSDOF 3
ENDMDL
MODEL 7
REMARK VINA RESULT:    -4.881      3.207      6.956
REMARK INTER + INTRA:          -6.227
REMARK INTER:                  -6.750
REMARK INTRA:                   0.523
REMARK UNBOUND:                -0.490
REMARK  Name = 
REMARK  3 active torsions:
REMARK  status: ('A' for Active; 'I' for Inactive)
REMARK    1  A    between atoms: C_2  and  C_4
REMARK    2  A    between atoms: N_8  and  C_9
REMARK    3  A    between atoms: C_9  and  C_10
REMARK                            x       y       z     vdW  Elec       q    Type
REMARK                         _______ _______ _______ _____ _____    ______ ____
ROOT
ATOM      1  C   UNL     1      48.133   4.706  16.213  0.00  0.00    +0.000 A 
ATOM      2  C   UNL     1      48.459   5.859  15.508  0.00  0.00    +0.000 A 
ATOM      3  C   UNL     1      47.743   6.169  14.353  0.00  0.00    +0.000 A 
ATOM      4  C   UNL     1      46.722   5.321  13.909  0.00  0.00    +0.000 A 
ATOM      5  N   UNL     1      45.986   5.748  12.776  0.00  0.00    +0.000 N 
ATOM      6  N   UNL     1      46.409   4.199  14.584  0.00  0.00    +0.000 NA
ATOM      7  C   UNL     1      47.115   3.910  15.710  0.00  0.00    +0.000 A 
ATOM      8  H   UNL     1      46.639   6.128  12.098  0.00  0.00    +0.000 HD
ENDROOT
BRANCH   1  10
ATOM      9  N   UNL     1      49.934   3.483  17.301  0.00  0.00    +0.000 N 
ATOM     10  C   UNL     1      48.835   4.290  17.444  0.00  0.00    +0.000 C 
ATOM     11  O   UNL     1      48.462   4.658  18.549  0.00  0.00    +0.000 OA
ATOM     12  H   UNL     1      50.451   3.277  18.146  0.00  0.00    +0.000 HD
ATOM     13  H   UNL     1      50.417   3.372  16.421  0.00  0.00    +0.000 HD
ENDBRANCH   1  10
BRANCH   5  14
ATOM     14  C   UNL     1      44.892   4.937  12.173  0.00  0.00    +0.000 C 
ATOM     15  C   UNL     1      43.526   5.613  12.190  0.00  0.00    +0.000 C 
ATOM     16  C   UNL     1      43.744   4.372  12.990  0.00  0.00    +0.000 C 
BRANCH  14  17
ATOM     17  C   UNL     1      45.265   4.170  10.898  0.00  0.00    +0.000 C 
ATOM     18  C   UNL     1      45.362   5.098   9.681  0.00  0.00    +0.000 C 
ATOM     19  C   UNL     1      45.652   4.293   8.422  0.00  0.00    +0.000 C 
ATOM     20  O   UNL     1      44.667   3.282   8.224  0.00  0.00    +0.000 OA
ATOM     21  C   UNL     1      44.649   2.336   9.291  0.00  0.00    +0.000 C 
ATOM     22  C   UNL     1      44.289   3.017  10.605  0.00  0.00    +0.000 C 
ENDBRANCH  14  17
ENDBRANCH   5  14
TORSDOF 3
ENDMDL
MODEL 8
REMARK VINA RESULT:    -4.862      4.614      7.309
REMARK INTER + INTRA:          -6.205
REMARK INTER:                  -5.735
REMARK INTRA:                  -0.470
REMARK UNBOUND:                -0.490
REMARK  Name = 
REMARK  3 active torsions:
REMARK  status: ('A' for Active; 'I' for Inactive)
REMARK    1  A    between atoms: C_2  and  C_4
REMARK    2  A    between atoms: N_8  and  C_9
REMARK    3  A    between atoms: C_9  and  C_10
REMARK                            x       y       z     vdW  Elec       q    Type
REMARK                         _______ _______ _______ _____ _____    ______ ____
ROOT
ATOM      1  C   UNL     1      46.455   4.924  13.207  0.00  0.00    +0.000 A 
ATOM      2  C   UNL     1      47.025   6.067  12.657  0.00  0.00    +0.000 A 
ATOM      3  C   UNL     1      47.990   6.758  13.388  0.00  0.00    +0.000 A 
ATOM      4  C   UNL     1      48.366   6.308  14.659  0.00  0.00    +0.000 A 
ATOM      5  N   UNL     1      49.413   7.015  15.301  0.00  0.00    +0.000 N 
ATOM      6  N   UNL     1      47.810   5.208  15.198  0.00  0.00    +0.000 NA
ATOM      7  C   UNL     1      46.871   4.543  14.473  0.00  0.00    +0.000 A 
ATOM      8  H   UNL     1      49.263   8.009  15.156  0.00  0.00    +0.000 HD
ENDROOT
BRANCH   1  10
ATOM      9  N   UNL     1      45.443   2.770  12.699  0.00  0.00    +0.000 N 
ATOM     10  C   UNL     1      45.421   4.128  12.514  0.00  0.00    +0.000 C 
ATOM     11  O   UNL     1      44.570   4.656  11.813  0.00  0.00    +0.000 OA
ATOM     12  H   UNL     1      44.679   2.250  12.286  0.00  0.00    +0.000 HD
ATOM     13  H   UNL     1      45.950   2.331  13.453  0.00  0.00    +0.000 HD
ENDBRANCH   1  10
BRANCH   5  14
ATOM     14  C   UNL     1      49.899   6.671  16.667  0.00  0.00    +0.000 C 
ATOM     15  C   UNL     1      51.395   6.398  16.752  0.00  0.00    +0.000 C 
ATOM     16  C   UNL     1      50.428   5.295  17.026  0.00  0.00    +0.000 C 
BRANCH  14  17
ATOM     17  C   UNL     1      49.281   7.485  17.811  0.00  0.00    +0.000 C 
ATOM     18  C   UNL     1      48.167   6.711  18.526  0.00  0.00    +0.000 C 
ATOM     19  C   UNL     1      47.523   7.576  19.599  0.00  0.00    +0.000 C 
ATOM     20  O   UNL     1      47.032   8.795  19.046  0.00  0.00    +0.000 OA
ATOM     21  C   UNL     1      48.078   9.588  18.487  0.00  0.00    +0.000 C 
ATOM     22  C   UNL     1      48.753   8.850  17.338  0.00  0.00    +0.000 C 
ENDBRANCH  14  17
ENDBRANCH   5  14
TORSDOF 3
ENDMDL
MODEL 9
REMARK VINA RESULT:    -4.790      5.515      7.289
REMARK INTER + INTRA:          -6.119
REMARK INTER:                  -5.608
REMARK INTRA:                  -0.511
REMARK UNBOUND:                -0.490
REMARK  Name = 
REMARK  3 active torsions:
REMARK  status: ('A' for Active; 'I' for Inactive)
REMARK    1  A    between atoms: C_2  and  C_4
REMARK    2  A    between atoms: N_8  and  C_9
REMARK    3  A    between atoms: C_9  and  C_10
REMARK                            x       y       z     vdW  Elec       q    Type
REMARK                         _______ _______ _______ _____ _____    ______ ____
ROOT
ATOM      1  C   UNL     1      49.028   7.145  12.954  0.00  0.00    +0.000 A 
ATOM      2  C   UNL     1      47.927   6.306  12.830  0.00  0.00    +0.000 A 
ATOM      3  C   UNL     1      47.456   5.640  13.960  0.00  0.00    +0.000 A 
ATOM      4  C   UNL     1      48.095   5.809  15.194  0.00  0.00    +0.000 A 
ATOM      5  N   UNL     1      47.505   5.166  16.310  0.00  0.00    +0.000 N 
ATOM      6  N   UNL     1      49.167   6.613  15.316  0.00  0.00    +0.000 NA
ATOM      7  C   UNL     1      49.614   7.258  14.205  0.00  0.00    +0.000 A 
ATOM      8  H   UNL     1      47.222   4.232  16.027  0.00  0.00    +0.000 HD
ENDROOT
BRANCH   1  10
ATOM      9  N   UNL     1      50.783   7.425  11.290  0.00  0.00    +0.000 N 
ATOM     10  C   UNL     1      49.605   7.890  11.815  0.00  0.00    +0.000 C 
ATOM     11  O   UNL     1      49.050   8.874  11.348  0.00  0.00    +0.000 OA
ATOM     12  H   UNL     1      51.118   7.896  10.460  0.00  0.00    +0.000 HD
ATOM     13  H   UNL     1      51.129   6.494  11.469  0.00  0.00    +0.000 HD
ENDBRANCH   1  10
BRANCH   5  14
ATOM     14  C   UNL     1      48.089   5.230  17.679  0.00  0.00    +0.000 C 
ATOM     15  C   UNL     1      47.077   5.518  18.781  0.00  0.00    +0.000 C 
ATOM     16  C   UNL     1      48.147   6.514  18.486  0.00  0.00    +0.000 C 
BRANCH  14  17
ATOM     17  C   UNL     1      49.165   4.181  17.989  0.00  0.00    +0.000 C 
ATOM     18  C   UNL     1      50.575   4.781  17.949  0.00  0.00    +0.000 C 
ATOM     19  C   UNL     1      51.620   3.698  18.179  0.00  0.00    +0.000 C 
ATOM     20  O   UNL     1      51.479   2.644  17.230  0.00  0.00    +0.000 OA
ATOM     21  C   UNL     1      50.216   1.991  17.339  0.00  0.00    +0.000 C 
ATOM     22  C   UNL     1      49.082   2.966  17.048  0.00  0.00    +0.000 C 
ENDBRANCH  14  17
ENDBRANCH   5  14
TORSDOF 3
ENDMDL
