MODEL 1
REMARK VINA RESULT:    -7.283      0.000      0.000
REMARK INTER + INTRA:         -10.984
REMARK INTER:                  -9.838
REMARK INTRA:                  -1.146
REMARK UNBOUND:                -1.146
REMARK  Name = 
REMARK  6 active torsions:
REMARK  status: ('A' for Active; 'I' for Inactive)
REMARK    1  A    between atoms: C_2  and  C_3
REMARK    2  A    between atoms: N_10  and  C_11
REMARK    3  A    between atoms: C_11  and  C_12
REMARK    4  A    between atoms: C_15  and  C_16
REMARK    5  A    between atoms: C_16  and  N_17
REMARK    6  A    between atoms: C_18  and  C_20
REMARK                            x       y       z     vdW  Elec       q    Type
REMARK                         _______ _______ _______ _____ _____    ______ ____
ROOT
ATOM      1  C   UNL     1      49.415   6.300  17.539  0.00  0.00    +0.000 A 
ATOM      2  C   UNL     1      49.578   7.687  17.393  0.00  0.00    +0.000 A 
ATOM      3  C   UNL     1      49.134   8.342  16.237  0.00  0.00    +0.000 A 
ATOM      4  C   UNL     1      48.499   7.631  15.213  0.00  0.00    +0.000 A 
ATOM      5  C   UNL     1      48.356   6.243  15.351  0.00  0.00    +0.000 A 
ATOM      6  C   UNL     1      48.797   5.588  16.504  0.00  0.00    +0.000 A 
ENDROOT
BRANCH   1   7
ATOM      7  C   UNL     1      49.910   5.586  18.770  0.00  0.00    +0.000 C 
BRANCH   7  15
ATOM      8  C   UNL     1      51.693   1.747  17.523  0.00  0.00    +0.000 A 
ATOM      9  C   UNL     1      52.549   0.673  17.698  0.00  0.00    +0.000 A 
ATOM     10  C   UNL     1      53.700   1.146  18.366  0.00  0.00    +0.000 A 
ATOM     11  C   UNL     1      53.534   2.497  18.542  0.00  0.00    +0.000 A 
ATOM     12  N   UNL     1      52.279   2.874  18.079  0.00  0.00    +0.000 N 
ATOM     13  C   UNL     1      51.793   4.196  18.143  0.00  0.00    +0.000 C 
ATOM     14  O   UNL     1      52.575   5.127  18.013  0.00  0.00    +0.000 OA
ATOM     15  N   UNL     1      50.463   4.279  18.489  0.00  0.00    +0.000 N 
ATOM     16  H   UNL     1      49.939   3.468  18.794  0.00  0.00    +0.000 HD
BRANCH   8  18
ATOM     17  N   UNL     1      49.477   1.735  16.200  0.00  0.00    +0.000 NA
ATOM     18  C   UNL     1      50.472   1.739  16.795  0.00  0.00    +0.000 C 
ENDBRANCH   8  18
ENDBRANCH   7  15
ENDBRANCH   1   7
BRANCH   4  19
ATOM     19  C   UNL     1      47.996   8.325  13.973  0.00  0.00    +0.000 C 
BRANCH  19  20
ATOM     20  N   UNL     1      46.729   7.792  13.536  0.00  0.00    +0.000 N 
ATOM     21  C   UNL     1      46.640   7.022  12.405  0.00  0.00    +0.000 C 
ATOM     22  O   UNL     1      47.590   6.863  11.642  0.00  0.00    +0.000 OA
ATOM     23  H   UNL     1      45.980   7.764  14.221  0.00  0.00    +0.000 HD
BRANCH  21  24
ATOM     24  C   UNL     1      45.340   6.392  12.134  0.00  0.00    +0.000 A 
ATOM     25  C   UNL     1      44.298   7.143  11.605  0.00  0.00    +0.000 A 
ATOM     26  S   UNL     1      42.901   6.225  11.262  0.00  0.00    +0.000 S 
ATOM     27  C   UNL     1      43.668   4.782  11.740  0.00  0.00    +0.000 A 
ATOM     28  N   UNL     1      43.061   3.576  11.578  0.00  0.00    +0.000 NA
ATOM     29  C   UNL     1      43.769   2.567  11.965  0.00  0.00    +0.000 A 
ATOM     30  N   UNL     1      45.010   2.659  12.542  0.00  0.00    +0.000 N 
ATOM     31  C   UNL     1      45.637   3.859  12.775  0.00  0.00    +0.000 A 
ATOM     32  O   UNL     1      46.695   3.918  13.391  0.00  0.00    +0.000 OA
ATOM     33  C   UNL     1      44.926   5.016  12.267  0.00  0.00    +0.000 A 
ATOM     34  H   UNL     1      45.485   1.836  12.882  0.00  0.00    +0.000 HD
ENDBRANCH  21  24
ENDBRANCH  19  20
ENDBRANCH   4  19
TORSDOF 6
ENDMDL
MODEL 2
REMARK VINA RESULT:    -7.091      4.086      8.858
REMARK INTER + INTRA:         -10.724
REMARK INTER:                  -9.816
REMARK INTRA:                  -0.909
REMARK UNBOUND:                -1.146
REMARK  Name = 
REMARK  6 active torsions:
REMARK  status: ('A' for Active; 'I' for Inactive)
REMARK    1  A    between atoms: C_2  and  C_3
REMARK    2  A    between atoms: N_10  and  C_11
REMARK    3  A    between atoms: C_11  and  C_12
REMARK    4  A    between atoms: C_15  and  C_16
REMARK    5  A    between atoms: C_16  and  N_17
REMARK    6  A    between atoms: C_18  and  C_20
REMARK                            x       y       z     vdW  Elec       q    Type
REMARK                         _______ _______ _______ _____ _____    ______ ____
ROOT
ATOM      1  C   UNL     1      45.295   4.173  11.187  0.00  0.00    +0.000 A 
ATOM      2  C   UNL     1      45.685   4.016  12.526  0.00  0.00    +0.000 A 
ATOM      3  C   UNL     1      46.212   5.093  13.249  0.00  0.00    +0.000 A 
ATOM      4  C   UNL     1      46.343   6.354  12.659  0.00  0.00    +0.000 A 
ATOM      5  C   UNL     1      45.974   6.506  11.314  0.00  0.00    +0.000 A 
ATOM      6  C   UNL     1      45.445   5.432  10.591  0.00  0.00    +0.000 A 
ENDROOT
BRANCH   1   7
ATOM      7  C   UNL     1      44.748   3.014  10.396  0.00  0.00    +0.000 C 
BRANCH   7  15
ATOM      8  C   UNL     1      46.972   1.668   6.830  0.00  0.00    +0.000 A 
ATOM      9  C   UNL     1      47.829   1.877   5.763  0.00  0.00    +0.000 A 
ATOM     10  C   UNL     1      47.638   3.201   5.312  0.00  0.00    +0.000 A 
ATOM     11  C   UNL     1      46.645   3.749   6.084  0.00  0.00    +0.000 A 
ATOM     12  N   UNL     1      46.263   2.838   7.061  0.00  0.00    +0.000 N 
ATOM     13  C   UNL     1      45.279   3.109   8.034  0.00  0.00    +0.000 C 
ATOM     14  O   UNL     1      44.327   3.817   7.739  0.00  0.00    +0.000 OA
ATOM     15  N   UNL     1      45.592   2.629   9.286  0.00  0.00    +0.000 N 
ATOM     16  H   UNL     1      46.504   2.241   9.496  0.00  0.00    +0.000 HD
BRANCH   8  18
ATOM     17  N   UNL     1      46.580  -0.565   8.062  0.00  0.00    +0.000 NA
ATOM     18  C   UNL     1      46.757   0.438   7.508  0.00  0.00    +0.000 C 
ENDBRANCH   8  18
ENDBRANCH   7  15
ENDBRANCH   1   7
BRANCH   4  19
ATOM     19  C   UNL     1      46.888   7.529  13.431  0.00  0.00    +0.000 C 
BRANCH  19  20
ATOM     20  N   UNL     1      47.579   7.112  14.626  0.00  0.00    +0.000 N 
ATOM     21  C   UNL     1      48.940   6.950  14.635  0.00  0.00    +0.000 C 
ATOM     22  O   UNL     1      49.615   7.016  13.610  0.00  0.00    +0.000 OA
ATOM     23  H   UNL     1      47.081   7.215  15.505  0.00  0.00    +0.000 HD
BRANCH  21  24
ATOM     24  C   UNL     1      49.567   6.684  15.937  0.00  0.00    +0.000 A 
ATOM     25  C   UNL     1      50.537   7.545  16.434  0.00  0.00    +0.000 A 
ATOM     26  S   UNL     1      51.077   7.134  17.999  0.00  0.00    +0.000 S 
ATOM     27  C   UNL     1      49.979   5.837  18.094  0.00  0.00    +0.000 A 
ATOM     28  N   UNL     1      49.830   5.125  19.244  0.00  0.00    +0.000 NA
ATOM     29  C   UNL     1      48.947   4.185  19.177  0.00  0.00    +0.000 A 
ATOM     30  N   UNL     1      48.234   3.861  18.051  0.00  0.00    +0.000 N 
ATOM     31  C   UNL     1      48.393   4.516  16.854  0.00  0.00    +0.000 A 
ATOM     32  O   UNL     1      47.824   4.136  15.837  0.00  0.00    +0.000 OA
ATOM     33  C   UNL     1      49.300   5.646  16.904  0.00  0.00    +0.000 A 
ATOM     34  H   UNL     1      47.605   3.072  18.046  0.00  0.00    +0.000 HD
ENDBRANCH  21  24
ENDBRANCH  19  20
ENDBRANCH   4  19
TORSDOF 6
ENDMDL
MODEL 3
REMARK VINA RESULT:    -7.034      3.392      9.433
REMARK INTER + INTRA:         -10.647
REMARK INTER:                  -9.699
REMARK INTRA:                  -0.948
REMARK UNBOUND:                -1.146
REMARK  Name = 
REMARK  6 active torsions:
REMARK  status: ('A' for Active; 'I' for Inactive)
REMARK    1  A    between atoms: C_2  and  C_3
REMARK    2  A    between atoms: N_10  and  C_11
REMARK    3  A    between atoms: C_11  and  C_12
REMARK    4  A    between atoms: C_15  and  C_16
REMARK    5  A    between atoms: C_16  and  N_17
REMARK    6  A    between atoms: C_18  and  C_20
REMARK                            x       y       z     vdW  Elec       q    Type
REMARK                         _______ _______ _______ _____ _____    ______ ____
ROOT
ATOM      1  C   UNL     1      47.162   5.672  14.163  0.00  0.00    +0.000 A 
ATOM      2  C   UNL     1      46.769   4.433  14.693  0.00  0.00    +0.000 A 
ATOM      3  C   UNL     1      47.363   3.933  15.859  0.00  0.00    +0.000 A 
ATOM      4  C   UNL     1      48.345   4.668  16.532  0.00  0.00    +0.000 A 
ATOM      5  C   UNL     1      48.751   5.896  15.990  0.00  0.00    +0.000 A 
ATOM      6  C   UNL     1      48.158   6.398  14.827  0.00  0.00    +0.000 A 
ENDROOT
BRANCH   1   7
ATOM      7  C   UNL     1      46.543   6.205  12.897  0.00  0.00    +0.000 C 
BRANCH   7  15
ATOM      8  C   UNL     1      44.561   3.249  10.289  0.00  0.00    +0.000 A 
ATOM      9  C   UNL     1      44.474   2.486   9.137  0.00  0.00    +0.000 A 
ATOM     10  C   UNL     1      45.048   3.232   8.084  0.00  0.00    +0.000 A 
ATOM     11  C   UNL     1      45.428   4.441   8.610  0.00  0.00    +0.000 A 
ATOM     12  N   UNL     1      45.187   4.447   9.979  0.00  0.00    +0.000 N 
ATOM     13  C   UNL     1      45.494   5.538  10.817  0.00  0.00    +0.000 C 
ATOM     14  O   UNL     1      45.394   6.675  10.378  0.00  0.00    +0.000 OA
ATOM     15  N   UNL     1      46.017   5.168  12.037  0.00  0.00    +0.000 N 
ATOM     16  H   UNL     1      46.272   4.210  12.239  0.00  0.00    +0.000 HD
BRANCH   8  18
ATOM     17  N   UNL     1      43.548   2.664  12.589  0.00  0.00    +0.000 NA
ATOM     18  C   UNL     1      44.002   2.926  11.556  0.00  0.00    +0.000 C 
ENDBRANCH   8  18
ENDBRANCH   7  15
ENDBRANCH   1   7
BRANCH   4  19
ATOM     19  C   UNL     1      48.978   4.154  17.799  0.00  0.00    +0.000 C 
BRANCH  19  20
ATOM     20  N   UNL     1      50.366   3.815  17.607  0.00  0.00    +0.000 N 
ATOM     21  C   UNL     1      51.294   4.053  18.589  0.00  0.00    +0.000 C 
ATOM     22  O   UNL     1      51.022   4.681  19.609  0.00  0.00    +0.000 OA
ATOM     23  H   UNL     1      50.581   3.157  16.864  0.00  0.00    +0.000 HD
BRANCH  21  24
ATOM     24  C   UNL     1      52.646   3.525  18.363  0.00  0.00    +0.000 A 
ATOM     25  C   UNL     1      53.754   4.342  18.550  0.00  0.00    +0.000 A 
ATOM     26  S   UNL     1      55.242   3.533  18.342  0.00  0.00    +0.000 S 
ATOM     27  C   UNL     1      54.455   2.049  18.068  0.00  0.00    +0.000 A 
ATOM     28  N   UNL     1      55.161   0.892  17.941  0.00  0.00    +0.000 NA
ATOM     29  C   UNL     1      54.432  -0.159  17.758  0.00  0.00    +0.000 A 
ATOM     30  N   UNL     1      53.065  -0.151  17.644  0.00  0.00    +0.000 N 
ATOM     31  C   UNL     1      52.318   0.999  17.710  0.00  0.00    +0.000 A 
ATOM     32  O   UNL     1      51.111   0.990  17.496  0.00  0.00    +0.000 OA
ATOM     33  C   UNL     1      53.080   2.194  18.015  0.00  0.00    +0.000 A 
ATOM     34  H   UNL     1      52.559  -1.000  17.437  0.00  0.00    +0.000 HD
ENDBRANCH  21  24
ENDBRANCH  19  20
ENDBRANCH   4  19
TORSDOF 6
ENDMDL
MODEL 4
REMARK VINA RESULT:    -6.681      5.581      6.403
REMARK INTER + INTRA:         -10.170
REMARK INTER:                  -9.165
REMARK INTRA:                  -1.005
REMARK UNBOUND:                -1.146
REMARK  Name = 
REMARK  6 active torsions:
REMARK  status: ('A' for Active; 'I' for Inactive)
REMARK    1  A    between atoms: C_2  and  C_3
REMARK    2  A    between atoms: N_10  and  C_11
REMARK    3  A    between atoms: C_11  and  C_12
REMARK    4  A    between atoms: C_15  and  C_16
REMARK    5  A    between atoms: C_16  and  N_17
REMARK    6  A    between atoms: C_18  and  C_20
REMARK                            x       y       z     vdW  Elec       q    Type
REMARK                         _______ _______ _______ _____ _____    ______ ____
ROOT
ATOM      1  C   UNL     1      50.147   9.095  11.360  0.00  0.00    +0.000 A 
ATOM      2  C   UNL     1      49.271  10.155  11.643  0.00  0.00    +0.000 A 
ATOM      3  C   UNL     1      47.960   9.905  12.066  0.00  0.00    +0.000 A 
ATOM      4  C   UNL     1      47.501   8.595  12.237  0.00  0.00    +0.000 A 
ATOM      5  C   UNL     1      48.371   7.537  11.934  0.00  0.00    +0.000 A 
ATOM      6  C   UNL     1      49.681   7.784  11.514  0.00  0.00    +0.000 A 
ENDROOT
BRANCH   1   7
ATOM      7  C   UNL     1      51.552   9.356  10.883  0.00  0.00    +0.000 C 
BRANCH   7  15
ATOM      8  C   UNL     1      53.744   6.075   8.909  0.00  0.00    +0.000 A 
ATOM      9  C   UNL     1      54.443   4.879   8.921  0.00  0.00    +0.000 A 
ATOM     10  C   UNL     1      55.169   4.818  10.131  0.00  0.00    +0.000 A 
ATOM     11  C   UNL     1      54.928   5.990  10.803  0.00  0.00    +0.000 A 
ATOM     12  N   UNL     1      54.008   6.751  10.091  0.00  0.00    +0.000 N 
ATOM     13  C   UNL     1      53.531   8.003  10.530  0.00  0.00    +0.000 C 
ATOM     14  O   UNL     1      54.278   8.742  11.155  0.00  0.00    +0.000 OA
ATOM     15  N   UNL     1      52.185   8.192  10.304  0.00  0.00    +0.000 N 
ATOM     16  H   UNL     1      51.589   7.441   9.977  0.00  0.00    +0.000 HD
BRANCH   8  18
ATOM     17  N   UNL     1      52.355   7.012   6.947  0.00  0.00    +0.000 NA
ATOM     18  C   UNL     1      52.978   6.591   7.829  0.00  0.00    +0.000 C 
ENDBRANCH   8  18
ENDBRANCH   7  15
ENDBRANCH   1   7
BRANCH   4  19
ATOM     19  C   UNL     1      46.100   8.310  12.713  0.00  0.00    +0.000 C 
BRANCH  19  20
ATOM     20  N   UNL     1      45.737   6.928  12.519  0.00  0.00    +0.000 N 
ATOM     21  C   UNL     1      44.628   6.585  11.790  0.00  0.00    +0.000 C 
ATOM     22  O   UNL     1      43.822   7.422  11.388  0.00  0.00    +0.000 OA
ATOM     23  H   UNL     1      46.459   6.234  12.688  0.00  0.00    +0.000 HD
BRANCH  21  24
ATOM     24  C   UNL     1      44.435   5.155  11.511  0.00  0.00    +0.000 A 
ATOM     25  C   UNL     1      43.716   4.362  12.398  0.00  0.00    +0.000 A 
ATOM     26  S   UNL     1      43.508   2.756  11.862  0.00  0.00    +0.000 S 
ATOM     27  C   UNL     1      44.307   3.086  10.396  0.00  0.00    +0.000 A 
ATOM     28  N   UNL     1      44.371   2.156   9.405  0.00  0.00    +0.000 NA
ATOM     29  C   UNL     1      44.989   2.552   8.342  0.00  0.00    +0.000 A 
ATOM     30  N   UNL     1      45.590   3.777   8.198  0.00  0.00    +0.000 N 
ATOM     31  C   UNL     1      45.598   4.725   9.193  0.00  0.00    +0.000 A 
ATOM     32  O   UNL     1      46.235   5.766   9.078  0.00  0.00    +0.000 OA
ATOM     33  C   UNL     1      44.830   4.367  10.369  0.00  0.00    +0.000 A 
ATOM     34  H   UNL     1      46.114   4.002   7.365  0.00  0.00    +0.000 HD
ENDBRANCH  21  24
ENDBRANCH  19  20
ENDBRANCH   4  19
TORSDOF 6
ENDMDL
MODEL 5
REMARK VINA RESULT:    -6.606      3.066      8.410
REMARK INTER + INTRA:         -10.069
REMARK INTER:                  -8.900
REMARK INTRA:                  -1.169
REMARK UNBOUND:                -1.146
REMARK  Name = 
REMARK  6 active torsions:
REMARK  status: ('A' for Active; 'I' for Inactive)
REMARK    1  A    between atoms: C_2  and  C_3
REMARK    2  A    between atoms: N_10  and  C_11
REMARK    3  A    between atoms: C_11  and  C_12
REMARK    4  A    between atoms: C_15  and  C_16
REMARK    5  A    between atoms: C_16  and  N_17
REMARK    6  A    between atoms: C_18  and  C_20
REMARK                            x       y       z     vdW  Elec       q    Type
REMARK                         _______ _______ _______ _____ _____    ______ ____
ROOT
ATOM      1  C   UNL     1      48.623   7.642  13.410  0.00  0.00    +0.000 A 
ATOM      2  C   UNL     1      49.595   8.645  13.550  0.00  0.00    +0.000 A 
ATOM      3  C   UNL     1      50.300   8.794  14.751  0.00  0.00    +0.000 A 
ATOM      4  C   UNL     1      50.067   7.932  15.828  0.00  0.00    +0.000 A 
ATOM      5  C   UNL     1      49.080   6.945  15.694  0.00  0.00    +0.000 A 
ATOM      6  C   UNL     1      48.376   6.793  14.496  0.00  0.00    +0.000 A 
ENDROOT
BRANCH   1   7
ATOM      7  C   UNL     1      47.844   7.490  12.129  0.00  0.00    +0.000 C 
BRANCH   7  15
ATOM      8  C   UNL     1      45.287   3.902  12.376  0.00  0.00    +0.000 A 
ATOM      9  C   UNL     1      44.316   3.046  11.883  0.00  0.00    +0.000 A 
ATOM     10  C   UNL     1      43.390   3.823  11.153  0.00  0.00    +0.000 A 
ATOM     11  C   UNL     1      43.795   5.130  11.253  0.00  0.00    +0.000 A 
ATOM     12  N   UNL     1      44.993   5.191  11.956  0.00  0.00    +0.000 N 
ATOM     13  C   UNL     1      45.685   6.393  12.208  0.00  0.00    +0.000 C 
ATOM     14  O   UNL     1      45.049   7.422  12.391  0.00  0.00    +0.000 OA
ATOM     15  N   UNL     1      47.052   6.281  12.081  0.00  0.00    +0.000 N 
ATOM     16  H   UNL     1      47.487   5.444  11.712  0.00  0.00    +0.000 HD
BRANCH   8  18
ATOM     17  N   UNL     1      47.208   3.272  13.979  0.00  0.00    +0.000 NA
ATOM     18  C   UNL     1      46.344   3.555  13.260  0.00  0.00    +0.000 C 
ENDBRANCH   8  18
ENDBRANCH   7  15
ENDBRANCH   1   7
BRANCH   4  19
ATOM     19  C   UNL     1      50.834   8.066  17.119  0.00  0.00    +0.000 C 
BRANCH  19  20
ATOM     20  N   UNL     1      51.726   6.953  17.332  0.00  0.00    +0.000 N 
ATOM     21  C   UNL     1      51.447   5.993  18.270  0.00  0.00    +0.000 C 
ATOM     22  O   UNL     1      50.511   6.101  19.060  0.00  0.00    +0.000 OA
ATOM     23  H   UNL     1      52.397   6.753  16.596  0.00  0.00    +0.000 HD
BRANCH  21  24
ATOM     24  C   UNL     1      52.328   4.818  18.298  0.00  0.00    +0.000 A 
ATOM     25  C   UNL     1      53.630   4.934  18.770  0.00  0.00    +0.000 A 
ATOM     26  S   UNL     1      54.470   3.450  18.823  0.00  0.00    +0.000 S 
ATOM     27  C   UNL     1      53.099   2.594  18.288  0.00  0.00    +0.000 A 
ATOM     28  N   UNL     1      53.096   1.235  18.232  0.00  0.00    +0.000 NA
ATOM     29  C   UNL     1      51.982   0.721  17.828  0.00  0.00    +0.000 A 
ATOM     30  N   UNL     1      50.887   1.445  17.430  0.00  0.00    +0.000 N 
ATOM     31  C   UNL     1      50.865   2.818  17.417  0.00  0.00    +0.000 A 
ATOM     32  O   UNL     1      49.915   3.438  16.954  0.00  0.00    +0.000 OA
ATOM     33  C   UNL     1      52.057   3.442  17.958  0.00  0.00    +0.000 A 
ATOM     34  H   UNL     1      50.068   0.983  17.063  0.00  0.00    +0.000 HD
ENDBRANCH  21  24
ENDBRANCH  19  20
ENDBRANCH   4  19
TORSDOF 6
ENDMDL
MODEL 6
REMARK VINA RESULT:    -6.197      3.530      8.753
REMARK INTER + INTRA:          -9.517
REMARK INTER:                  -8.445
REMARK INTRA:                  -1.072
REMARK UNBOUND:                -1.146
REMARK  Name = 
REMARK  6 active torsions:
REMARK  status: ('A' for Active; 'I' for Inactive)
REMARK    1  A    between atoms: C_2  and  C_3
REMARK    2  A    between atoms: N_10  and  C_11
REMARK    3  A    between atoms: C_11  and  C_12
REMARK    4  A    between atoms: C_15  and  C_16
REMARK    5  A    between atoms: C_16  and  N_17
REMARK    6  A    between atoms: C_18  and  C_20
REMARK                            x       y       z     vdW  Elec       q    Type
REMARK                         _______ _______ _______ _____ _____    ______ ____
ROOT
ATOM      1  C   UNL     1      46.583   6.761  13.118  0.00  0.00    +0.000 A 
ATOM      2  C   UNL     1      47.759   6.011  12.953  0.00  0.00    +0.000 A 
ATOM      3  C   UNL     1      49.014   6.632  12.986  0.00  0.00    +0.000 A 
ATOM      4  C   UNL     1      49.124   8.009  13.206  0.00  0.00    +0.000 A 
ATOM      5  C   UNL     1      47.948   8.760  13.348  0.00  0.00    +0.000 A 
ATOM      6  C   UNL     1      46.695   8.142  13.318  0.00  0.00    +0.000 A 
ENDROOT
BRANCH   1   7
ATOM      7  C   UNL     1      45.229   6.103  13.061  0.00  0.00    +0.000 C 
BRANCH   7  15
ATOM      8  C   UNL     1      44.569   3.078   9.917  0.00  0.00    +0.000 A 
ATOM      9  C   UNL     1      44.942   2.384   8.778  0.00  0.00    +0.000 A 
ATOM     10  C   UNL     1      45.686   3.266   7.964  0.00  0.00    +0.000 A 
ATOM     11  C   UNL     1      45.711   4.479   8.604  0.00  0.00    +0.000 A 
ATOM     12  N   UNL     1      45.076   4.366   9.835  0.00  0.00    +0.000 N 
ATOM     13  C   UNL     1      44.956   5.434  10.748  0.00  0.00    +0.000 C 
ATOM     14  O   UNL     1      44.825   6.572  10.322  0.00  0.00    +0.000 OA
ATOM     15  N   UNL     1      45.141   5.061  12.061  0.00  0.00    +0.000 N 
ATOM     16  H   UNL     1      45.462   4.134  12.313  0.00  0.00    +0.000 HD
BRANCH   8  18
ATOM     17  N   UNL     1      43.017   2.216  11.790  0.00  0.00    +0.000 NA
ATOM     18  C   UNL     1      43.713   2.603  10.948  0.00  0.00    +0.000 C 
ENDBRANCH   8  18
ENDBRANCH   7  15
ENDBRANCH   1   7
BRANCH   4  19
ATOM     19  C   UNL     1      50.468   8.688  13.265  0.00  0.00    +0.000 C 
BRANCH  19  20
ATOM     20  N   UNL     1      51.419   7.929  14.039  0.00  0.00    +0.000 N 
ATOM     21  C   UNL     1      51.678   8.245  15.348  0.00  0.00    +0.000 C 
ATOM     22  O   UNL     1      51.225   9.256  15.880  0.00  0.00    +0.000 OA
ATOM     23  H   UNL     1      51.672   7.011  13.686  0.00  0.00    +0.000 HD
BRANCH  21  24
ATOM     24  C   UNL     1      52.536   7.317  16.096  0.00  0.00    +0.000 A 
ATOM     25  C   UNL     1      53.897   7.568  16.216  0.00  0.00    +0.000 A 
ATOM     26  S   UNL     1      54.715   6.440  17.202  0.00  0.00    +0.000 S 
ATOM     27  C   UNL     1      53.265   5.623  17.559  0.00  0.00    +0.000 A 
ATOM     28  N   UNL     1      53.234   4.611  18.467  0.00  0.00    +0.000 NA
ATOM     29  C   UNL     1      52.063   4.098  18.654  0.00  0.00    +0.000 A 
ATOM     30  N   UNL     1      50.930   4.474  17.980  0.00  0.00    +0.000 N 
ATOM     31  C   UNL     1      50.925   5.452  17.016  0.00  0.00    +0.000 A 
ATOM     32  O   UNL     1      49.922   5.692  16.353  0.00  0.00    +0.000 OA
ATOM     33  C   UNL     1      52.196   6.129  16.841  0.00  0.00    +0.000 A 
ATOM     34  H   UNL     1      50.057   3.989  18.125  0.00  0.00    +0.000 HD
ENDBRANCH  21  24
ENDBRANCH  19  20
ENDBRANCH   4  19
TORSDOF 6
ENDMDL
MODEL 7
REMARK VINA RESULT:    -6.092      5.338      7.043
REMARK INTER + INTRA:          -9.375
REMARK INTER:                  -8.322
REMARK INTRA:                  -1.053
REMARK UNBOUND:                -1.146
REMARK  Name = 
REMARK  6 active torsions:
REMARK  status: ('A' for Active; 'I' for Inactive)
REMARK    1  A    between atoms: C_2  and  C_3
REMARK    2  A    between atoms: N_10  and  C_11
REMARK    3  A    between atoms: C_11  and  C_12
REMARK    4  A    between atoms: C_15  and  C_16
REMARK    5  A    between atoms: C_16  and  N_17
REMARK    6  A    between atoms: C_18  and  C_20
REMARK                            x       y       z     vdW  Elec       q    Type
REMARK                         _______ _______ _______ _____ _____    ______ ____
ROOT
ATOM      1  C   UNL     1      50.906   9.109  11.206  0.00  0.00    +0.000 A 
ATOM      2  C   UNL     1      50.006  10.082  11.668  0.00  0.00    +0.000 A 
ATOM      3  C   UNL     1      48.823   9.711  12.319  0.00  0.00    +0.000 A 
ATOM      4  C   UNL     1      48.523   8.364  12.544  0.00  0.00    +0.000 A 
ATOM      5  C   UNL     1      49.412   7.391  12.063  0.00  0.00    +0.000 A 
ATOM      6  C   UNL     1      50.594   7.759  11.414  0.00  0.00    +0.000 A 
ENDROOT
BRANCH   1   7
ATOM      7  C   UNL     1      52.169   9.499  10.485  0.00  0.00    +0.000 C 
BRANCH   7  15
ATOM      8  C   UNL     1      53.614   6.950   7.186  0.00  0.00    +0.000 A 
ATOM      9  C   UNL     1      54.004   5.734   6.649  0.00  0.00    +0.000 A 
ATOM     10  C   UNL     1      54.625   4.992   7.677  0.00  0.00    +0.000 A 
ATOM     11  C   UNL     1      54.636   5.786   8.796  0.00  0.00    +0.000 A 
ATOM     12  N   UNL     1      53.967   6.974   8.526  0.00  0.00    +0.000 N 
ATOM     13  C   UNL     1      53.781   7.994   9.482  0.00  0.00    +0.000 C 
ATOM     14  O   UNL     1      54.648   8.192  10.321  0.00  0.00    +0.000 OA
ATOM     15  N   UNL     1      52.535   8.578   9.431  0.00  0.00    +0.000 N 
ATOM     16  H   UNL     1      51.794   8.206   8.848  0.00  0.00    +0.000 HD
BRANCH   8  18
ATOM     17  N   UNL     1      52.598   8.935   5.887  0.00  0.00    +0.000 NA
ATOM     18  C   UNL     1      53.055   8.045   6.471  0.00  0.00    +0.000 C 
ENDBRANCH   8  18
ENDBRANCH   7  15
ENDBRANCH   1   7
BRANCH   4  19
ATOM     19  C   UNL     1      47.265   7.949  13.262  0.00  0.00    +0.000 C 
BRANCH  19  20
ATOM     20  N   UNL     1      46.620   6.833  12.616  0.00  0.00    +0.000 N 
ATOM     21  C   UNL     1      45.713   7.030  11.606  0.00  0.00    +0.000 C 
ATOM     22  O   UNL     1      45.307   8.148  11.297  0.00  0.00    +0.000 OA
ATOM     23  H   UNL     1      47.053   5.922  12.730  0.00  0.00    +0.000 HD
BRANCH  21  24
ATOM     24  C   UNL     1      45.236   5.831  10.902  0.00  0.00    +0.000 A 
ATOM     25  C   UNL     1      45.588   5.614   9.576  0.00  0.00    +0.000 A 
ATOM     26  S   UNL     1      45.029   4.126   8.957  0.00  0.00    +0.000 S 
ATOM     27  C   UNL     1      44.361   3.691  10.461  0.00  0.00    +0.000 A 
ATOM     28  N   UNL     1      43.827   2.456  10.663  0.00  0.00    +0.000 NA
ATOM     29  C   UNL     1      43.378   2.259  11.858  0.00  0.00    +0.000 A 
ATOM     30  N   UNL     1      43.372   3.200  12.855  0.00  0.00    +0.000 N 
ATOM     31  C   UNL     1      43.849   4.476  12.679  0.00  0.00    +0.000 A 
ATOM     32  O   UNL     1      43.732   5.329  13.553  0.00  0.00    +0.000 OA
ATOM     33  C   UNL     1      44.457   4.716  11.385  0.00  0.00    +0.000 A 
ATOM     34  H   UNL     1      42.947   3.004  13.749  0.00  0.00    +0.000 HD
ENDBRANCH  21  24
ENDBRANCH  19  20
ENDBRANCH   4  19
TORSDOF 6
ENDMDL
MODEL 8
REMARK VINA RESULT:    -6.007      3.088      4.026
REMARK INTER + INTRA:          -9.261
REMARK INTER:                  -8.427
REMARK INTRA:                  -0.833
REMARK UNBOUND:                -1.146
REMARK  Name = 
REMARK  6 active torsions:
REMARK  status: ('A' for Active; 'I' for Inactive)
REMARK    1  A    between atoms: C_2  and  C_3
REMARK    2  A    between atoms: N_10  and  C_11
REMARK    3  A    between atoms: C_11  and  C_12
REMARK    4  A    between atoms: C_15  and  C_16
REMARK    5  A    between atoms: C_16  and  N_17
REMARK    6  A    between atoms: C_18  and  C_20
REMARK                            x       y       z     vdW  Elec       q    Type
REMARK                         _______ _______ _______ _____ _____    ______ ____
ROOT
ATOM      1  C   UNL     1      50.947   8.366  13.277  0.00  0.00    +0.000 A 
ATOM      2  C   UNL     1      50.573   8.182  11.936  0.00  0.00    +0.000 A 
ATOM      3  C   UNL     1      49.221   8.129  11.572  0.00  0.00    +0.000 A 
ATOM      4  C   UNL     1      48.216   8.282  12.532  0.00  0.00    +0.000 A 
ATOM      5  C   UNL     1      48.590   8.444  13.874  0.00  0.00    +0.000 A 
ATOM      6  C   UNL     1      49.938   8.499  14.240  0.00  0.00    +0.000 A 
ENDROOT
BRANCH   1   7
ATOM      7  C   UNL     1      52.398   8.401  13.679  0.00  0.00    +0.000 C 
BRANCH   7  15
ATOM      8  C   UNL     1      53.208   5.972  17.273  0.00  0.00    +0.000 A 
ATOM      9  C   UNL     1      53.917   5.678  18.426  0.00  0.00    +0.000 A 
ATOM     10  C   UNL     1      55.261   6.056  18.212  0.00  0.00    +0.000 A 
ATOM     11  C   UNL     1      55.345   6.529  16.926  0.00  0.00    +0.000 A 
ATOM     12  N   UNL     1      54.079   6.537  16.353  0.00  0.00    +0.000 N 
ATOM     13  C   UNL     1      53.823   6.994  15.044  0.00  0.00    +0.000 C 
ATOM     14  O   UNL     1      54.665   6.821  14.175  0.00  0.00    +0.000 OA
ATOM     15  N   UNL     1      52.661   7.725  14.931  0.00  0.00    +0.000 N 
ATOM     16  H   UNL     1      52.128   8.009  15.744  0.00  0.00    +0.000 HD
BRANCH   8  18
ATOM     17  N   UNL     1      50.740   5.383  16.805  0.00  0.00    +0.000 NA
ATOM     18  C   UNL     1      51.848   5.648  17.016  0.00  0.00    +0.000 C 
ENDBRANCH   8  18
ENDBRANCH   7  15
ENDBRANCH   1   7
BRANCH   4  19
ATOM     19  C   UNL     1      46.757   8.249  12.152  0.00  0.00    +0.000 C 
BRANCH  19  20
ATOM     20  N   UNL     1      46.248   6.902  12.090  0.00  0.00    +0.000 N 
ATOM     21  C   UNL     1      44.996   6.642  11.594  0.00  0.00    +0.000 C 
ATOM     22  O   UNL     1      44.205   7.538  11.310  0.00  0.00    +0.000 OA
ATOM     23  H   UNL     1      46.927   6.149  12.155  0.00  0.00    +0.000 HD
BRANCH  21  24
ATOM     24  C   UNL     1      44.633   5.229  11.420  0.00  0.00    +0.000 A 
ATOM     25  C   UNL     1      43.925   4.563  12.413  0.00  0.00    +0.000 A 
ATOM     26  S   UNL     1      43.505   2.963  11.995  0.00  0.00    +0.000 S 
ATOM     27  C   UNL     1      44.191   3.132  10.447  0.00  0.00    +0.000 A 
ATOM     28  N   UNL     1      44.065   2.152   9.512  0.00  0.00    +0.000 NA
ATOM     29  C   UNL     1      44.617   2.426   8.376  0.00  0.00    +0.000 A 
ATOM     30  N   UNL     1      45.322   3.570   8.106  0.00  0.00    +0.000 N 
ATOM     31  C   UNL     1      45.522   4.560   9.037  0.00  0.00    +0.000 A 
ATOM     32  O   UNL     1      46.247   5.520   8.803  0.00  0.00    +0.000 OA
ATOM     33  C   UNL     1      44.837   4.346  10.297  0.00  0.00    +0.000 A 
ATOM     34  H   UNL     1      45.785   3.695   7.218  0.00  0.00    +0.000 HD
ENDBRANCH  21  24
ENDBRANCH  19  20
ENDBRANCH   4  19
TORSDOF 6
ENDMDL
MODEL 9
REMARK VINA RESULT:    -5.952      5.786      7.621
REMARK INTER + INTRA:          -9.186
REMARK INTER:                  -8.193
REMARK INTRA:                  -0.993
REMARK UNBOUND:                -1.146
REMARK  Name = 
REMARK  6 active torsions:
REMARK  status: ('A' for Active; 'I' for Inactive)
REMARK    1  A    between atoms: C_2  and  C_3
REMARK    2  A    between atoms: N_10  and  C_11
REMARK    3  A    between atoms: C_11  and  C_12
REMARK    4  A    between atoms: C_15  and  C_16
REMARK    5  A    between atoms: C_16  and  N_17
REMARK    6  A    between atoms: C_18  and  C_20
REMARK                            x       y       z     vdW  Elec       q    Type
REMARK                         _______ _______ _______ _____ _____    ______ ____
ROOT
ATOM      1  C   UNL     1      51.462   8.345  11.612  0.00  0.00    +0.000 A 
ATOM      2  C   UNL     1      50.866   9.352  12.389  0.00  0.00    +0.000 A 
ATOM      3  C   UNL     1      49.476   9.397  12.557  0.00  0.00    +0.000 A 
ATOM      4  C   UNL     1      48.654   8.428  11.973  0.00  0.00    +0.000 A 
ATOM      5  C   UNL     1      49.248   7.436  11.180  0.00  0.00    +0.000 A 
ATOM      6  C   UNL     1      50.635   7.387  11.012  0.00  0.00    +0.000 A 
ENDROOT
BRANCH   1   7
ATOM      7  C   UNL     1      52.953   8.303  11.409  0.00  0.00    +0.000 C 
BRANCH   7  15
ATOM      8  C   UNL     1      53.752   8.368   7.069  0.00  0.00    +0.000 A 
ATOM      9  C   UNL     1      54.534   8.666   5.965  0.00  0.00    +0.000 A 
ATOM     10  C   UNL     1      55.245   9.852   6.252  0.00  0.00    +0.000 A 
ATOM     11  C   UNL     1      54.850  10.266   7.499  0.00  0.00    +0.000 A 
ATOM     12  N   UNL     1      53.973   9.333   8.040  0.00  0.00    +0.000 N 
ATOM     13  C   UNL     1      53.405   9.455   9.325  0.00  0.00    +0.000 C 
ATOM     14  O   UNL     1      53.139  10.567   9.758  0.00  0.00    +0.000 OA
ATOM     15  N   UNL     1      53.340   8.265  10.015  0.00  0.00    +0.000 N 
ATOM     16  H   UNL     1      53.783   7.422   9.669  0.00  0.00    +0.000 HD
BRANCH   8  18
ATOM     17  N   UNL     1      52.013   6.470   7.241  0.00  0.00    +0.000 NA
ATOM     18  C   UNL     1      52.794   7.322   7.163  0.00  0.00    +0.000 C 
ENDBRANCH   8  18
ENDBRANCH   7  15
ENDBRANCH   1   7
BRANCH   4  19
ATOM     19  C   UNL     1      47.159   8.451  12.163  0.00  0.00    +0.000 C 
BRANCH  19  20
ATOM     20  N   UNL     1      46.599   7.122  12.181  0.00  0.00    +0.000 N 
ATOM     21  C   UNL     1      45.334   6.882  11.709  0.00  0.00    +0.000 C 
ATOM     22  O   UNL     1      44.574   7.789  11.380  0.00  0.00    +0.000 OA
ATOM     23  H   UNL     1      47.251   6.350  12.284  0.00  0.00    +0.000 HD
BRANCH  21  24
ATOM     24  C   UNL     1      44.918   5.476  11.619  0.00  0.00    +0.000 A 
ATOM     25  C   UNL     1      44.294   4.862  12.698  0.00  0.00    +0.000 A 
ATOM     26  S   UNL     1      43.790   3.264  12.376  0.00  0.00    +0.000 S 
ATOM     27  C   UNL     1      44.324   3.365  10.763  0.00  0.00    +0.000 A 
ATOM     28  N   UNL     1      44.080   2.361   9.877  0.00  0.00    +0.000 NA
ATOM     29  C   UNL     1      44.523   2.584   8.685  0.00  0.00    +0.000 A 
ATOM     30  N   UNL     1      45.229   3.698   8.309  0.00  0.00    +0.000 N 
ATOM     31  C   UNL     1      45.547   4.709   9.183  0.00  0.00    +0.000 A 
ATOM     32  O   UNL     1      46.272   5.639   8.848  0.00  0.00    +0.000 OA
ATOM     33  C   UNL     1      44.984   4.554  10.510  0.00  0.00    +0.000 A 
ATOM     34  H   UNL     1      45.605   3.782   7.376  0.00  0.00    +0.000 HD
ENDBRANCH  21  24
ENDBRANCH  19  20
ENDBRANCH   4  19
TORSDOF 6
ENDMDL
