MODEL 1
REMARK VINA RESULT:    -7.344      0.000      0.000
REMARK INTER + INTRA:          -9.948
REMARK INTER:                  -9.276
REMARK INTRA:                  -0.673
REMARK UNBOUND:                -0.673
REMARK  Name = 
REMARK  5 active torsions:
REMARK  status: ('A' for Active; 'I' for Inactive)
REMARK    1  A    between atoms: N_1  and  C_2
REMARK    2  A    between atoms: C_2  and  C_3
REMARK    3  A    between atoms: C_6  and  O_7
REMARK    4  A    between atoms: O_7  and  C_8
REMARK    5  A    between atoms: C_8  and  C_9
REMARK                            x       y       z     vdW  Elec       q    Type
REMARK                         _______ _______ _______ _____ _____    ______ ____
ROOT
ATOM      1  C   UNL     1      46.554   2.228   7.619  0.00  0.00    +0.000 A 
ATOM      2  C   UNL     1      45.740   1.425   8.430  0.00  0.00    +0.000 A 
ATOM      3  C   UNL     1      44.711   1.994   9.189  0.00  0.00    +0.000 A 
ATOM      4  C   UNL     1      44.495   3.373   9.160  0.00  0.00    +0.000 A 
ATOM      5  C   UNL     1      45.258   4.166   8.299  0.00  0.00    +0.000 A 
ATOM      6  C   UNL     1      46.288   3.600   7.547  0.00  0.00    +0.000 A 
ENDROOT
BRANCH   1   7
ATOM      7  C   UNL     1      47.717   1.641   6.861  0.00  0.00    +0.000 C 
BRANCH   7   8
ATOM      8  N   UNL     1      48.607   2.673   6.349  0.00  0.00    +0.000 NA
ATOM      9  H   UNL     1      48.909   2.413   5.412  0.00  0.00    +0.000 HD
ATOM     10  H   UNL     1      49.446   2.697   6.926  0.00  0.00    +0.000 HD
ENDBRANCH   7   8
ENDBRANCH   1   7
BRANCH   4  11
ATOM     11  O   UNL     1      43.529   3.846  10.007  0.00  0.00    +0.000 OA
BRANCH  11  12
ATOM     12  C   UNL     1      43.581   3.300  11.326  0.00  0.00    +0.000 C 
BRANCH  12  13
ATOM     13  C   UNL     1      44.563   4.074  12.163  0.00  0.00    +0.000 A 
ATOM     14  C   UNL     1      45.662   3.437  12.747  0.00  0.00    +0.000 A 
ATOM     15  C   UNL     1      46.585   4.203  13.442  0.00  0.00    +0.000 A 
ATOM     16  N   UNL     1      46.491   5.540  13.592  0.00  0.00    +0.000 NA
ATOM     17  C   UNL     1      45.421   6.132  13.024  0.00  0.00    +0.000 A 
ATOM     18  F   UNL     1      45.312   7.462  13.146  0.00  0.00    +0.000 F 
ATOM     19  C   UNL     1      44.448   5.457  12.307  0.00  0.00    +0.000 A 
ENDBRANCH  12  13
ENDBRANCH  11  12
ENDBRANCH   4  11
TORSDOF 5
ENDMDL
MODEL 2
REMARK VINA RESULT:    -7.310      1.200      2.009
REMARK INTER + INTRA:          -9.906
REMARK INTER:                  -9.267
REMARK INTRA:                  -0.638
REMARK UNBOUND:                -0.673
REMARK  Name = 
REMARK  5 active torsions:
REMARK  status: ('A' for Active; 'I' for Inactive)
REMARK    1  A    between atoms: N_1  and  C_2
REMARK    2  A    between atoms: C_2  and  C_3
REMARK    3  A    between atoms: C_6  and  O_7
REMARK    4  A    between atoms: O_7  and  C_8
REMARK    5  A    between atoms: C_8  and  C_9
REMARK                            x       y       z     vdW  Elec       q    Type
REMARK                         _______ _______ _______ _____ _____    ______ ____
ROOT
ATOM      1  C   UNL     1      46.568   2.344   7.602  0.00  0.00    +0.000 A 
ATOM      2  C   UNL     1      46.491   3.743   7.601  0.00  0.00    +0.000 A 
ATOM      3  C   UNL     1      45.517   4.402   8.360  0.00  0.00    +0.000 A 
ATOM      4  C   UNL     1      44.600   3.670   9.116  0.00  0.00    +0.000 A 
ATOM      5  C   UNL     1      44.720   2.280   9.176  0.00  0.00    +0.000 A 
ATOM      6  C   UNL     1      45.686   1.621   8.414  0.00  0.00    +0.000 A 
ENDROOT
BRANCH   1   7
ATOM      7  C   UNL     1      47.558   1.618   6.726  0.00  0.00    +0.000 C 
BRANCH   7   8
ATOM      8  N   UNL     1      48.652   2.485   6.312  0.00  0.00    +0.000 NA
ATOM      9  H   UNL     1      48.268   3.280   5.804  0.00  0.00    +0.000 HD
ATOM     10  H   UNL     1      49.239   1.978   5.652  0.00  0.00    +0.000 HD
ENDBRANCH   7   8
ENDBRANCH   1   7
BRANCH   4  11
ATOM     11  O   UNL     1      43.628   4.398   9.748  0.00  0.00    +0.000 OA
BRANCH  11  12
ATOM     12  C   UNL     1      43.445   4.070  11.126  0.00  0.00    +0.000 C 
BRANCH  12  13
ATOM     13  C   UNL     1      44.618   4.562  11.930  0.00  0.00    +0.000 A 
ATOM     14  C   UNL     1      44.871   5.931  12.060  0.00  0.00    +0.000 A 
ATOM     15  C   UNL     1      45.914   6.343  12.875  0.00  0.00    +0.000 A 
ATOM     16  N   UNL     1      46.710   5.497  13.560  0.00  0.00    +0.000 NA
ATOM     17  C   UNL     1      46.451   4.182  13.416  0.00  0.00    +0.000 A 
ATOM     18  F   UNL     1      47.219   3.321  14.097  0.00  0.00    +0.000 F 
ATOM     19  C   UNL     1      45.431   3.672  12.630  0.00  0.00    +0.000 A 
ENDBRANCH  12  13
ENDBRANCH  11  12
ENDBRANCH   4  11
TORSDOF 5
ENDMDL
MODEL 3
REMARK VINA RESULT:    -7.257      2.658      6.170
REMARK INTER + INTRA:          -9.839
REMARK INTER:                  -9.274
REMARK INTRA:                  -0.565
REMARK UNBOUND:                -0.673
REMARK  Name = 
REMARK  5 active torsions:
REMARK  status: ('A' for Active; 'I' for Inactive)
REMARK    1  A    between atoms: N_1  and  C_2
REMARK    2  A    between atoms: C_2  and  C_3
REMARK    3  A    between atoms: C_6  and  O_7
REMARK    4  A    between atoms: O_7  and  C_8
REMARK    5  A    between atoms: C_8  and  C_9
REMARK                            x       y       z     vdW  Elec       q    Type
REMARK                         _______ _______ _______ _____ _____    ______ ____
ROOT
ATOM      1  C   UNL     1      46.399   5.580  12.792  0.00  0.00    +0.000 A 
ATOM      2  C   UNL     1      46.042   6.122  11.550  0.00  0.00    +0.000 A 
ATOM      3  C   UNL     1      45.339   5.355  10.615  0.00  0.00    +0.000 A 
ATOM      4  C   UNL     1      44.999   4.032  10.903  0.00  0.00    +0.000 A 
ATOM      5  C   UNL     1      45.291   3.512  12.166  0.00  0.00    +0.000 A 
ATOM      6  C   UNL     1      45.998   4.274  13.097  0.00  0.00    +0.000 A 
ENDROOT
BRANCH   1   7
ATOM      7  C   UNL     1      47.228   6.366  13.775  0.00  0.00    +0.000 C 
BRANCH   7   8
ATOM      8  N   UNL     1      47.783   5.516  14.819  0.00  0.00    +0.000 NA
ATOM      9  H   UNL     1      48.594   5.026  14.447  0.00  0.00    +0.000 HD
ATOM     10  H   UNL     1      47.098   4.801  15.056  0.00  0.00    +0.000 HD
ENDBRANCH   7   8
ENDBRANCH   1   7
BRANCH   4  11
ATOM     11  O   UNL     1      44.397   3.334   9.890  0.00  0.00    +0.000 OA
BRANCH  11  12
ATOM     12  C   UNL     1      44.719   3.798   8.578  0.00  0.00    +0.000 C 
BRANCH  12  13
ATOM     13  C   UNL     1      45.772   2.914   7.967  0.00  0.00    +0.000 A 
ATOM     14  C   UNL     1      46.828   3.463   7.234  0.00  0.00    +0.000 A 
ATOM     15  C   UNL     1      47.819   2.619   6.757  0.00  0.00    +0.000 A 
ATOM     16  N   UNL     1      47.832   1.285   6.959  0.00  0.00    +0.000 NA
ATOM     17  C   UNL     1      46.801   0.778   7.666  0.00  0.00    +0.000 A 
ATOM     18  F   UNL     1      46.797  -0.543   7.893  0.00  0.00    +0.000 F 
ATOM     19  C   UNL     1      45.767   1.537   8.187  0.00  0.00    +0.000 A 
ENDBRANCH  12  13
ENDBRANCH  11  12
ENDBRANCH   4  11
TORSDOF 5
ENDMDL
MODEL 4
REMARK VINA RESULT:    -7.075      1.103      1.544
REMARK INTER + INTRA:          -9.608
REMARK INTER:                  -9.054
REMARK INTRA:                  -0.554
REMARK UNBOUND:                -0.673
REMARK  Name = 
REMARK  5 active torsions:
REMARK  status: ('A' for Active; 'I' for Inactive)
REMARK    1  A    between atoms: N_1  and  C_2
REMARK    2  A    between atoms: C_2  and  C_3
REMARK    3  A    between atoms: C_6  and  O_7
REMARK    4  A    between atoms: O_7  and  C_8
REMARK    5  A    between atoms: C_8  and  C_9
REMARK                            x       y       z     vdW  Elec       q    Type
REMARK                         _______ _______ _______ _____ _____    ______ ____
ROOT
ATOM      1  C   UNL     1      47.028   2.359   7.290  0.00  0.00    +0.000 A 
ATOM      2  C   UNL     1      46.361   1.395   8.059  0.00  0.00    +0.000 A 
ATOM      3  C   UNL     1      45.253   1.749   8.837  0.00  0.00    +0.000 A 
ATOM      4  C   UNL     1      44.810   3.072   8.869  0.00  0.00    +0.000 A 
ATOM      5  C   UNL     1      45.428   4.020   8.050  0.00  0.00    +0.000 A 
ATOM      6  C   UNL     1      46.537   3.669   7.278  0.00  0.00    +0.000 A 
ENDROOT
BRANCH   1   7
ATOM      7  C   UNL     1      48.272   2.009   6.512  0.00  0.00    +0.000 C 
BRANCH   7   8
ATOM      8  N   UNL     1      48.227   2.533   5.155  0.00  0.00    +0.000 NA
ATOM      9  H   UNL     1      47.919   3.503   5.187  0.00  0.00    +0.000 HD
ATOM     10  H   UNL     1      47.519   2.023   4.630  0.00  0.00    +0.000 HD
ENDBRANCH   7   8
ENDBRANCH   1   7
BRANCH   4  11
ATOM     11  O   UNL     1      43.781   3.338   9.732  0.00  0.00    +0.000 OA
BRANCH  11  12
ATOM     12  C   UNL     1      44.089   3.114  11.108  0.00  0.00    +0.000 C 
BRANCH  12  13
ATOM     13  C   UNL     1      44.695   4.354  11.706  0.00  0.00    +0.000 A 
ATOM     14  C   UNL     1      44.301   5.623  11.270  0.00  0.00    +0.000 A 
ATOM     15  C   UNL     1      44.825   6.739  11.903  0.00  0.00    +0.000 A 
ATOM     16  N   UNL     1      45.700   6.680  12.928  0.00  0.00    +0.000 NA
ATOM     17  C   UNL     1      46.068   5.447  13.329  0.00  0.00    +0.000 A 
ATOM     18  F   UNL     1      46.926   5.360  14.355  0.00  0.00    +0.000 F 
ATOM     19  C   UNL     1      45.599   4.272  12.764  0.00  0.00    +0.000 A 
ENDBRANCH  12  13
ENDBRANCH  11  12
ENDBRANCH   4  11
TORSDOF 5
ENDMDL
MODEL 5
REMARK VINA RESULT:    -6.282      2.813      6.215
REMARK INTER + INTRA:          -8.608
REMARK INTER:                  -8.159
REMARK INTRA:                  -0.449
REMARK UNBOUND:                -0.673
REMARK  Name = 
REMARK  5 active torsions:
REMARK  status: ('A' for Active; 'I' for Inactive)
REMARK    1  A    between atoms: N_1  and  C_2
REMARK    2  A    between atoms: C_2  and  C_3
REMARK    3  A    between atoms: C_6  and  O_7
REMARK    4  A    between atoms: O_7  and  C_8
REMARK    5  A    between atoms: C_8  and  C_9
REMARK                            x       y       z     vdW  Elec       q    Type
REMARK                         _______ _______ _______ _____ _____    ______ ____
ROOT
ATOM      1  C   UNL     1      45.496   6.789  12.308  0.00  0.00    +0.000 A 
ATOM      2  C   UNL     1      45.063   5.634  12.974  0.00  0.00    +0.000 A 
ATOM      3  C   UNL     1      44.903   4.430  12.279  0.00  0.00    +0.000 A 
ATOM      4  C   UNL     1      45.156   4.371  10.907  0.00  0.00    +0.000 A 
ATOM      5  C   UNL     1      45.654   5.501  10.255  0.00  0.00    +0.000 A 
ATOM      6  C   UNL     1      45.809   6.704  10.947  0.00  0.00    +0.000 A 
ENDROOT
BRANCH   1   7
ATOM      7  C   UNL     1      45.593   8.111  13.027  0.00  0.00    +0.000 C 
BRANCH   7   8
ATOM      8  N   UNL     1      45.794   9.217  12.102  0.00  0.00    +0.000 NA
ATOM      9  H   UNL     1      46.536   8.970  11.449  0.00  0.00    +0.000 HD
ATOM     10  H   UNL     1      46.127  10.025  12.625  0.00  0.00    +0.000 HD
ENDBRANCH   7   8
ENDBRANCH   1   7
BRANCH   4  11
ATOM     11  O   UNL     1      44.880   3.176  10.298  0.00  0.00    +0.000 OA
BRANCH  11  12
ATOM     12  C   UNL     1      44.530   3.283   8.918  0.00  0.00    +0.000 C 
BRANCH  12  13
ATOM     13  C   UNL     1      45.585   2.625   8.070  0.00  0.00    +0.000 A 
ATOM     14  C   UNL     1      46.043   1.339   8.369  0.00  0.00    +0.000 A 
ATOM     15  C   UNL     1      46.956   0.740   7.516  0.00  0.00    +0.000 A 
ATOM     16  N   UNL     1      47.437   1.325   6.400  0.00  0.00    +0.000 NA
ATOM     17  C   UNL     1      46.985   2.567   6.134  0.00  0.00    +0.000 A 
ATOM     18  F   UNL     1      47.436   3.165   5.023  0.00  0.00    +0.000 F 
ATOM     19  C   UNL     1      46.071   3.248   6.921  0.00  0.00    +0.000 A 
ENDBRANCH  12  13
ENDBRANCH  11  12
ENDBRANCH   4  11
TORSDOF 5
ENDMDL
MODEL 6
REMARK VINA RESULT:    -5.229      4.756      6.180
REMARK INTER + INTRA:          -7.277
REMARK INTER:                  -6.920
REMARK INTRA:                  -0.357
REMARK UNBOUND:                -0.673
REMARK  Name = 
REMARK  5 active torsions:
REMARK  status: ('A' for Active; 'I' for Inactive)
REMARK    1  A    between atoms: N_1  and  C_2
REMARK    2  A    between atoms: C_2  and  C_3
REMARK    3  A    between atoms: C_6  and  O_7
REMARK    4  A    between atoms: O_7  and  C_8
REMARK    5  A    between atoms: C_8  and  C_9
REMARK                            x       y       z     vdW  Elec       q    Type
REMARK                         _______ _______ _______ _____ _____    ______ ____
ROOT
ATOM      1  C   UNL     1      44.441   5.573  11.894  0.00  0.00    +0.000 A 
ATOM      2  C   UNL     1      45.421   6.562  11.734  0.00  0.00    +0.000 A 
ATOM      3  C   UNL     1      46.651   6.456  12.394  0.00  0.00    +0.000 A 
ATOM      4  C   UNL     1      46.908   5.372  13.234  0.00  0.00    +0.000 A 
ATOM      5  C   UNL     1      45.961   4.350  13.340  0.00  0.00    +0.000 A 
ATOM      6  C   UNL     1      44.732   4.457  12.687  0.00  0.00    +0.000 A 
ENDROOT
BRANCH   1   7
ATOM      7  C   UNL     1      43.082   5.715  11.256  0.00  0.00    +0.000 C 
BRANCH   7   8
ATOM      8  N   UNL     1      42.665   7.107  11.173  0.00  0.00    +0.000 NA
ATOM      9  H   UNL     1      41.657   7.141  11.036  0.00  0.00    +0.000 HD
ATOM     10  H   UNL     1      43.083   7.524  10.342  0.00  0.00    +0.000 HD
ENDBRANCH   7   8
ENDBRANCH   1   7
BRANCH   4  11
ATOM     11  O   UNL     1      48.099   5.406  13.908  0.00  0.00    +0.000 OA
BRANCH  11  12
ATOM     12  C   UNL     1      48.045   6.067  15.173  0.00  0.00    +0.000 C 
BRANCH  12  13
ATOM     13  C   UNL     1      48.272   5.074  16.280  0.00  0.00    +0.000 A 
ATOM     14  C   UNL     1      49.374   5.193  17.132  0.00  0.00    +0.000 A 
ATOM     15  C   UNL     1      49.501   4.304  18.188  0.00  0.00    +0.000 A 
ATOM     16  N   UNL     1      48.618   3.320  18.451  0.00  0.00    +0.000 NA
ATOM     17  C   UNL     1      47.565   3.221  17.614  0.00  0.00    +0.000 A 
ATOM     18  F   UNL     1      46.665   2.260  17.862  0.00  0.00    +0.000 F 
ATOM     19  C   UNL     1      47.347   4.061  16.536  0.00  0.00    +0.000 A 
ENDBRANCH  12  13
ENDBRANCH  11  12
ENDBRANCH   4  11
TORSDOF 5
ENDMDL
MODEL 7
REMARK VINA RESULT:    -5.178      4.097      7.726
REMARK INTER + INTRA:          -7.212
REMARK INTER:                  -6.869
REMARK INTRA:                  -0.343
REMARK UNBOUND:                -0.673
REMARK  Name = 
REMARK  5 active torsions:
REMARK  status: ('A' for Active; 'I' for Inactive)
REMARK    1  A    between atoms: N_1  and  C_2
REMARK    2  A    between atoms: C_2  and  C_3
REMARK    3  A    between atoms: C_6  and  O_7
REMARK    4  A    between atoms: O_7  and  C_8
REMARK    5  A    between atoms: C_8  and  C_9
REMARK                            x       y       z     vdW  Elec       q    Type
REMARK                         _______ _______ _______ _____ _____    ______ ____
ROOT
ATOM      1  C   UNL     1      49.136   4.706  17.772  0.00  0.00    +0.000 A 
ATOM      2  C   UNL     1      48.699   5.648  16.830  0.00  0.00    +0.000 A 
ATOM      3  C   UNL     1      47.852   5.266  15.783  0.00  0.00    +0.000 A 
ATOM      4  C   UNL     1      47.448   3.936  15.655  0.00  0.00    +0.000 A 
ATOM      5  C   UNL     1      47.824   3.011  16.630  0.00  0.00    +0.000 A 
ATOM      6  C   UNL     1      48.673   3.389  17.672  0.00  0.00    +0.000 A 
ENDROOT
BRANCH   1   7
ATOM      7  C   UNL     1      50.113   5.085  18.856  0.00  0.00    +0.000 C 
BRANCH   7   8
ATOM      8  N   UNL     1      49.840   4.382  20.101  0.00  0.00    +0.000 NA
ATOM      9  H   UNL     1      50.712   4.275  20.617  0.00  0.00    +0.000 HD
ATOM     10  H   UNL     1      49.518   3.441  19.881  0.00  0.00    +0.000 HD
ENDBRANCH   7   8
ENDBRANCH   1   7
BRANCH   4  11
ATOM     11  O   UNL     1      46.700   3.642  14.546  0.00  0.00    +0.000 OA
BRANCH  11  12
ATOM     12  C   UNL     1      46.337   4.778  13.759  0.00  0.00    +0.000 C 
BRANCH  12  13
ATOM     13  C   UNL     1      45.116   4.463  12.939  0.00  0.00    +0.000 A 
ATOM     14  C   UNL     1      43.977   5.271  13.014  0.00  0.00    +0.000 A 
ATOM     15  C   UNL     1      42.905   4.992  12.182  0.00  0.00    +0.000 A 
ATOM     16  N   UNL     1      42.889   3.979  11.291  0.00  0.00    +0.000 NA
ATOM     17  C   UNL     1      43.996   3.211  11.239  0.00  0.00    +0.000 A 
ATOM     18  F   UNL     1      44.011   2.206  10.353  0.00  0.00    +0.000 F 
ATOM     19  C   UNL     1      45.119   3.410  12.024  0.00  0.00    +0.000 A 
ENDBRANCH  12  13
ENDBRANCH  11  12
ENDBRANCH   4  11
TORSDOF 5
ENDMDL
MODEL 8
REMARK VINA RESULT:    -5.123      3.427      5.800
REMARK INTER + INTRA:          -7.143
REMARK INTER:                  -6.496
REMARK INTRA:                  -0.647
REMARK UNBOUND:                -0.673
REMARK  Name = 
REMARK  5 active torsions:
REMARK  status: ('A' for Active; 'I' for Inactive)
REMARK    1  A    between atoms: N_1  and  C_2
REMARK    2  A    between atoms: C_2  and  C_3
REMARK    3  A    between atoms: C_6  and  O_7
REMARK    4  A    between atoms: O_7  and  C_8
REMARK    5  A    between atoms: C_8  and  C_9
REMARK                            x       y       z     vdW  Elec       q    Type
REMARK                         _______ _______ _______ _____ _____    ______ ____
ROOT
ATOM      1  C   UNL     1      48.927   7.870  12.262  0.00  0.00    +0.000 A 
ATOM      2  C   UNL     1      47.748   8.551  11.927  0.00  0.00    +0.000 A 
ATOM      3  C   UNL     1      46.501   7.943  12.107  0.00  0.00    +0.000 A 
ATOM      4  C   UNL     1      46.417   6.643  12.608  0.00  0.00    +0.000 A 
ATOM      5  C   UNL     1      47.584   5.989  13.009  0.00  0.00    +0.000 A 
ATOM      6  C   UNL     1      48.830   6.592  12.824  0.00  0.00    +0.000 A 
ENDROOT
BRANCH   1   7
ATOM      7  C   UNL     1      50.280   8.480  11.997  0.00  0.00    +0.000 C 
BRANCH   7   8
ATOM      8  N   UNL     1      51.186   7.533  11.363  0.00  0.00    +0.000 NA
ATOM      9  H   UNL     1      51.760   8.029  10.684  0.00  0.00    +0.000 HD
ATOM     10  H   UNL     1      50.636   6.856  10.836  0.00  0.00    +0.000 HD
ENDBRANCH   7   8
ENDBRANCH   1   7
BRANCH   4  11
ATOM     11  O   UNL     1      45.161   6.100  12.658  0.00  0.00    +0.000 OA
BRANCH  11  12
ATOM     12  C   UNL     1      44.416   6.219  11.446  0.00  0.00    +0.000 C 
BRANCH  12  13
ATOM     13  C   UNL     1      44.651   5.010  10.580  0.00  0.00    +0.000 A 
ATOM     14  C   UNL     1      44.074   3.778  10.902  0.00  0.00    +0.000 A 
ATOM     15  C   UNL     1      44.251   2.711  10.035  0.00  0.00    +0.000 A 
ATOM     16  N   UNL     1      44.951   2.787   8.885  0.00  0.00    +0.000 NA
ATOM     17  C   UNL     1      45.501   3.983   8.597  0.00  0.00    +0.000 A 
ATOM     18  F   UNL     1      46.191   4.089   7.452  0.00  0.00    +0.000 F 
ATOM     19  C   UNL     1      45.380   5.108   9.395  0.00  0.00    +0.000 A 
ENDBRANCH  12  13
ENDBRANCH  11  12
ENDBRANCH   4  11
TORSDOF 5
ENDMDL
MODEL 9
REMARK VINA RESULT:    -4.901      3.428      6.245
REMARK INTER + INTRA:          -6.863
REMARK INTER:                  -6.389
REMARK INTRA:                  -0.474
REMARK UNBOUND:                -0.673
REMARK  Name = 
REMARK  5 active torsions:
REMARK  status: ('A' for Active; 'I' for Inactive)
REMARK    1  A    between atoms: N_1  and  C_2
REMARK    2  A    between atoms: C_2  and  C_3
REMARK    3  A    between atoms: C_6  and  O_7
REMARK    4  A    between atoms: O_7  and  C_8
REMARK    5  A    between atoms: C_8  and  C_9
REMARK                            x       y       z     vdW  Elec       q    Type
REMARK                         _______ _______ _______ _____ _____    ______ ____
ROOT
ATOM      1  C   UNL     1      47.811   8.849  12.203  0.00  0.00    +0.000 A 
ATOM      2  C   UNL     1      48.370   7.563  12.186  0.00  0.00    +0.000 A 
ATOM      3  C   UNL     1      47.547   6.431  12.155  0.00  0.00    +0.000 A 
ATOM      4  C   UNL     1      46.159   6.571  12.158  0.00  0.00    +0.000 A 
ATOM      5  C   UNL     1      45.600   7.850  12.103  0.00  0.00    +0.000 A 
ATOM      6  C   UNL     1      46.419   8.979  12.141  0.00  0.00    +0.000 A 
ENDROOT
BRANCH   1   7
ATOM      7  C   UNL     1      48.682  10.074  12.320  0.00  0.00    +0.000 C 
BRANCH   7   8
ATOM      8  N   UNL     1      48.362  11.065  11.303  0.00  0.00    +0.000 NA
ATOM      9  H   UNL     1      48.093  10.584  10.447  0.00  0.00    +0.000 HD
ATOM     10  H   UNL     1      49.205  11.593  11.084  0.00  0.00    +0.000 HD
ENDBRANCH   7   8
ENDBRANCH   1   7
BRANCH   4  11
ATOM     11  O   UNL     1      45.440   5.407  12.223  0.00  0.00    +0.000 OA
BRANCH  11  12
ATOM     12  C   UNL     1      44.359   5.326  11.293  0.00  0.00    +0.000 C 
BRANCH  12  13
ATOM     13  C   UNL     1      44.751   4.460  10.127  0.00  0.00    +0.000 A 
ATOM     14  C   UNL     1      45.553   4.967   9.099  0.00  0.00    +0.000 A 
ATOM     15  C   UNL     1      45.956   4.112   8.085  0.00  0.00    +0.000 A 
ATOM     16  N   UNL     1      45.623   2.807   8.025  0.00  0.00    +0.000 NA
ATOM     17  C   UNL     1      44.846   2.342   9.024  0.00  0.00    +0.000 A 
ATOM     18  F   UNL     1      44.512   1.044   8.996  0.00  0.00    +0.000 F 
ATOM     19  C   UNL     1      44.395   3.113  10.083  0.00  0.00    +0.000 A 
ENDBRANCH  12  13
ENDBRANCH  11  12
ENDBRANCH   4  11
TORSDOF 5
ENDMDL
