MODEL 1
REMARK VINA RESULT:    -8.824      0.000      0.000
REMARK INTER + INTRA:         -11.684
REMARK INTER:                 -10.888
REMARK INTRA:                  -0.796
REMARK UNBOUND:                -0.796
REMARK  Name = 
REMARK  4 active torsions:
REMARK  status: ('A' for Active; 'I' for Inactive)
REMARK    1  A    between atoms: C_2  and  C_4
REMARK    2  A    between atoms: N_8  and  C_9
REMARK    3  A    between atoms: C_9  and  C_10
REMARK    4  A    between atoms: C_14  and  C_15
REMARK                            x       y       z     vdW  Elec       q    Type
REMARK                         _______ _______ _______ _____ _____    ______ ____
ROOT
ATOM      1  C   UNL     1      46.396   2.256   7.637  0.00  0.00    +0.000 A 
ATOM      2  C   UNL     1      45.724   1.828   8.776  0.00  0.00    +0.000 A 
ATOM      3  C   UNL     1      44.891   2.721   9.453  0.00  0.00    +0.000 A 
ATOM      4  C   UNL     1      44.753   4.026   8.991  0.00  0.00    +0.000 A 
ATOM      5  N   UNL     1      43.874   4.936   9.533  0.00  0.00    +0.000 N 
ATOM      6  N   UNL     1      45.433   4.461   7.910  0.00  0.00    +0.000 NA
ATOM      7  C   UNL     1      46.241   3.579   7.262  0.00  0.00    +0.000 A 
ATOM      8  H   UNL     1      43.986   5.834   9.071  0.00  0.00    +0.000 HD
ENDROOT
BRANCH   1  10
ATOM      9  N   UNL     1      48.310   1.935   6.179  0.00  0.00    +0.000 N 
ATOM     10  C   UNL     1      47.247   1.362   6.825  0.00  0.00    +0.000 C 
ATOM     11  O   UNL     1      47.038   0.159   6.764  0.00  0.00    +0.000 OA
ATOM     12  H   UNL     1      48.952   1.302   5.719  0.00  0.00    +0.000 HD
ATOM     13  H   UNL     1      48.655   2.856   6.413  0.00  0.00    +0.000 HD
ENDBRANCH   1  10
BRANCH   5  14
ATOM     14  C   UNL     1      43.546   4.994  10.945  0.00  0.00    +0.000 C 
BRANCH  14  15
ATOM     15  C   UNL     1      44.705   5.317  11.865  0.00  0.00    +0.000 A 
ATOM     16  C   UNL     1      44.953   4.466  12.952  0.00  0.00    +0.000 A 
ATOM     17  C   UNL     1      46.021   4.707  13.814  0.00  0.00    +0.000 A 
ATOM     18  C   UNL     1      46.874   5.791  13.589  0.00  0.00    +0.000 A 
ATOM     19  C   UNL     1      46.669   6.668  12.513  0.00  0.00    +0.000 A 
ATOM     20  C   UNL     1      45.551   6.424  11.687  0.00  0.00    +0.000 A 
BRANCH  19  21
ATOM     21  C   UNL     1      47.597   7.782  12.214  0.00  0.00    +0.000 A 
ATOM     22  C   UNL     1      48.917   7.550  11.790  0.00  0.00    +0.000 A 
ATOM     23  C   UNL     1      49.786   8.606  11.517  0.00  0.00    +0.000 A 
ATOM     24  C   UNL     1      49.320   9.892  11.693  0.00  0.00    +0.000 A 
ATOM     25  N   UNL     1      48.068  10.182  12.105  0.00  0.00    +0.000 NA
ATOM     26  C   UNL     1      47.246   9.128  12.349  0.00  0.00    +0.000 A 
ENDBRANCH  19  21
ENDBRANCH  14  15
ENDBRANCH   5  14
TORSDOF 4
ENDMDL
MODEL 2
REMARK VINA RESULT:    -8.452      2.216      3.550
REMARK INTER + INTRA:         -11.225
REMARK INTER:                 -10.410
REMARK INTRA:                  -0.815
REMARK UNBOUND:                -0.796
REMARK  Name = 
REMARK  4 active torsions:
REMARK  status: ('A' for Active; 'I' for Inactive)
REMARK    1  A    between atoms: C_2  and  C_4
REMARK    2  A    between atoms: N_8  and  C_9
REMARK    3  A    between atoms: C_9  and  C_10
REMARK    4  A    between atoms: C_14  and  C_15
REMARK                            x       y       z     vdW  Elec       q    Type
REMARK                         _______ _______ _______ _____ _____    ______ ____
ROOT
ATOM      1  C   UNL     1      46.270   1.985   7.901  0.00  0.00    +0.000 A 
ATOM      2  C   UNL     1      45.572   1.724   9.075  0.00  0.00    +0.000 A 
ATOM      3  C   UNL     1      44.780   2.729   9.634  0.00  0.00    +0.000 A 
ATOM      4  C   UNL     1      44.709   3.977   9.024  0.00  0.00    +0.000 A 
ATOM      5  N   UNL     1      43.872   4.985   9.446  0.00  0.00    +0.000 N 
ATOM      6  N   UNL     1      45.416   4.251   7.907  0.00  0.00    +0.000 NA
ATOM      7  C   UNL     1      46.183   3.261   7.375  0.00  0.00    +0.000 A 
ATOM      8  H   UNL     1      44.031   5.817   8.886  0.00  0.00    +0.000 HD
ENDROOT
BRANCH   1  10
ATOM      9  N   UNL     1      46.820  -0.346   7.508  0.00  0.00    +0.000 N 
ATOM     10  C   UNL     1      47.081   0.964   7.208  0.00  0.00    +0.000 C 
ATOM     11  O   UNL     1      47.920   1.270   6.372  0.00  0.00    +0.000 OA
ATOM     12  H   UNL     1      47.298  -1.041   6.948  0.00  0.00    +0.000 HD
ATOM     13  H   UNL     1      45.977  -0.636   7.986  0.00  0.00    +0.000 HD
ENDBRANCH   1  10
BRANCH   5  14
ATOM     14  C   UNL     1      43.539   5.221  10.839  0.00  0.00    +0.000 C 
BRANCH  14  15
ATOM     15  C   UNL     1      44.656   5.801  11.681  0.00  0.00    +0.000 A 
ATOM     16  C   UNL     1      44.972   7.159  11.531  0.00  0.00    +0.000 A 
ATOM     17  C   UNL     1      45.976   7.745  12.299  0.00  0.00    +0.000 A 
ATOM     18  C   UNL     1      46.667   6.987  13.249  0.00  0.00    +0.000 A 
ATOM     19  C   UNL     1      46.385   5.625  13.438  0.00  0.00    +0.000 A 
ATOM     20  C   UNL     1      45.395   5.051  12.611  0.00  0.00    +0.000 A 
BRANCH  19  21
ATOM     21  C   UNL     1      47.054   4.818  14.483  0.00  0.00    +0.000 A 
ATOM     22  C   UNL     1      47.580   5.406  15.647  0.00  0.00    +0.000 A 
ATOM     23  C   UNL     1      48.214   4.639  16.622  0.00  0.00    +0.000 A 
ATOM     24  C   UNL     1      48.330   3.281  16.407  0.00  0.00    +0.000 A 
ATOM     25  N   UNL     1      47.855   2.657  15.310  0.00  0.00    +0.000 NA
ATOM     26  C   UNL     1      47.232   3.435  14.386  0.00  0.00    +0.000 A 
ENDBRANCH  19  21
ENDBRANCH  14  15
ENDBRANCH   5  14
TORSDOF 4
ENDMDL
MODEL 3
REMARK VINA RESULT:    -7.862      1.718      2.401
REMARK INTER + INTRA:         -10.496
REMARK INTER:                 -10.320
REMARK INTRA:                  -0.176
REMARK UNBOUND:                -0.796
REMARK  Name = 
REMARK  4 active torsions:
REMARK  status: ('A' for Active; 'I' for Inactive)
REMARK    1  A    between atoms: C_2  and  C_4
REMARK    2  A    between atoms: N_8  and  C_9
REMARK    3  A    between atoms: C_9  and  C_10
REMARK    4  A    between atoms: C_14  and  C_15
REMARK                            x       y       z     vdW  Elec       q    Type
REMARK                         _______ _______ _______ _____ _____    ______ ____
ROOT
ATOM      1  C   UNL     1      46.735   2.455   7.103  0.00  0.00    +0.000 A 
ATOM      2  C   UNL     1      46.261   3.671   7.582  0.00  0.00    +0.000 A 
ATOM      3  C   UNL     1      45.495   3.692   8.748  0.00  0.00    +0.000 A 
ATOM      4  C   UNL     1      45.204   2.503   9.409  0.00  0.00    +0.000 A 
ATOM      5  N   UNL     1      44.550   2.444  10.618  0.00  0.00    +0.000 N 
ATOM      6  N   UNL     1      45.626   1.314   8.929  0.00  0.00    +0.000 NA
ATOM      7  C   UNL     1      46.371   1.311   7.790  0.00  0.00    +0.000 A 
ATOM      8  H   UNL     1      44.402   1.474  10.879  0.00  0.00    +0.000 HD
ENDROOT
BRANCH   1  10
ATOM      9  N   UNL     1      47.413   3.268   4.919  0.00  0.00    +0.000 N 
ATOM     10  C   UNL     1      47.603   2.346   5.912  0.00  0.00    +0.000 C 
ATOM     11  O   UNL     1      48.480   1.497   5.833  0.00  0.00    +0.000 OA
ATOM     12  H   UNL     1      48.084   3.258   4.160  0.00  0.00    +0.000 HD
ATOM     13  H   UNL     1      46.889   4.121   5.062  0.00  0.00    +0.000 HD
ENDBRANCH   1  10
BRANCH   5  14
ATOM     14  C   UNL     1      43.498   3.365  11.008  0.00  0.00    +0.000 C 
BRANCH  14  15
ATOM     15  C   UNL     1      43.944   4.791  11.251  0.00  0.00    +0.000 A 
ATOM     16  C   UNL     1      43.002   5.820  11.109  0.00  0.00    +0.000 A 
ATOM     17  C   UNL     1      43.357   7.147  11.344  0.00  0.00    +0.000 A 
ATOM     18  C   UNL     1      44.657   7.465  11.748  0.00  0.00    +0.000 A 
ATOM     19  C   UNL     1      45.634   6.470  11.907  0.00  0.00    +0.000 A 
ATOM     20  C   UNL     1      45.254   5.142  11.615  0.00  0.00    +0.000 A 
BRANCH  19  21
ATOM     21  C   UNL     1      46.997   6.773  12.399  0.00  0.00    +0.000 A 
ATOM     22  C   UNL     1      47.883   7.582  11.666  0.00  0.00    +0.000 A 
ATOM     23  C   UNL     1      49.167   7.857  12.135  0.00  0.00    +0.000 A 
ATOM     24  C   UNL     1      49.555   7.295  13.334  0.00  0.00    +0.000 A 
ATOM     25  N   UNL     1      48.757   6.504  14.079  0.00  0.00    +0.000 NA
ATOM     26  C   UNL     1      47.508   6.269  13.598  0.00  0.00    +0.000 A 
ENDBRANCH  19  21
ENDBRANCH  14  15
ENDBRANCH   5  14
TORSDOF 4
ENDMDL
MODEL 4
REMARK VINA RESULT:    -7.512      2.886      7.066
REMARK INTER + INTRA:         -10.065
REMARK INTER:                  -9.518
REMARK INTRA:                  -0.547
REMARK UNBOUND:                -0.796
REMARK  Name = 
REMARK  4 active torsions:
REMARK  status: ('A' for Active; 'I' for Inactive)
REMARK    1  A    between atoms: C_2  and  C_4
REMARK    2  A    between atoms: N_8  and  C_9
REMARK    3  A    between atoms: C_9  and  C_10
REMARK    4  A    between atoms: C_14  and  C_15
REMARK                            x       y       z     vdW  Elec       q    Type
REMARK                         _______ _______ _______ _____ _____    ______ ____
ROOT
ATOM      1  C   UNL     1      47.745   7.174  13.971  0.00  0.00    +0.000 A 
ATOM      2  C   UNL     1      47.089   5.979  13.699  0.00  0.00    +0.000 A 
ATOM      3  C   UNL     1      46.067   5.964  12.748  0.00  0.00    +0.000 A 
ATOM      4  C   UNL     1      45.709   7.138  12.095  0.00  0.00    +0.000 A 
ATOM      5  N   UNL     1      44.790   7.191  11.072  0.00  0.00    +0.000 N 
ATOM      6  N   UNL     1      46.313   8.311  12.382  0.00  0.00    +0.000 NA
ATOM      7  C   UNL     1      47.307   8.309  13.312  0.00  0.00    +0.000 A 
ATOM      8  H   UNL     1      44.651   8.157  10.787  0.00  0.00    +0.000 HD
ENDROOT
BRANCH   1  10
ATOM      9  N   UNL     1      48.581   7.614  16.206  0.00  0.00    +0.000 N 
ATOM     10  C   UNL     1      48.877   7.271  14.914  0.00  0.00    +0.000 C 
ATOM     11  O   UNL     1      50.023   7.015  14.571  0.00  0.00    +0.000 OA
ATOM     12  H   UNL     1      49.344   7.568  16.871  0.00  0.00    +0.000 HD
ATOM     13  H   UNL     1      47.641   7.578  16.576  0.00  0.00    +0.000 HD
ENDBRANCH   1  10
BRANCH   5  14
ATOM     14  C   UNL     1      43.615   6.342  11.002  0.00  0.00    +0.000 C 
BRANCH  14  15
ATOM     15  C   UNL     1      43.888   4.885  10.692  0.00  0.00    +0.000 A 
ATOM     16  C   UNL     1      43.229   3.906  11.449  0.00  0.00    +0.000 A 
ATOM     17  C   UNL     1      43.428   2.552  11.188  0.00  0.00    +0.000 A 
ATOM     18  C   UNL     1      44.274   2.154  10.149  0.00  0.00    +0.000 A 
ATOM     19  C   UNL     1      44.953   3.096   9.362  0.00  0.00    +0.000 A 
ATOM     20  C   UNL     1      44.766   4.458   9.683  0.00  0.00    +0.000 A 
BRANCH  19  21
ATOM     21  C   UNL     1      45.800   2.703   8.214  0.00  0.00    +0.000 A 
ATOM     22  C   UNL     1      46.061   3.587   7.151  0.00  0.00    +0.000 A 
ATOM     23  C   UNL     1      46.854   3.205   6.071  0.00  0.00    +0.000 A 
ATOM     24  C   UNL     1      47.364   1.923   6.060  0.00  0.00    +0.000 A 
ATOM     25  N   UNL     1      47.144   1.025   7.042  0.00  0.00    +0.000 NA
ATOM     26  C   UNL     1      46.377   1.436   8.086  0.00  0.00    +0.000 A 
ENDBRANCH  19  21
ENDBRANCH  14  15
ENDBRANCH   5  14
TORSDOF 4
ENDMDL
MODEL 5
REMARK VINA RESULT:    -7.351      2.249      2.936
REMARK INTER + INTRA:          -9.866
REMARK INTER:                  -9.297
REMARK INTRA:                  -0.569
REMARK UNBOUND:                -0.796
REMARK  Name = 
REMARK  4 active torsions:
REMARK  status: ('A' for Active; 'I' for Inactive)
REMARK    1  A    between atoms: C_2  and  C_4
REMARK    2  A    between atoms: N_8  and  C_9
REMARK    3  A    between atoms: C_9  and  C_10
REMARK    4  A    between atoms: C_14  and  C_15
REMARK                            x       y       z     vdW  Elec       q    Type
REMARK                         _______ _______ _______ _____ _____    ______ ____
ROOT
ATOM      1  C   UNL     1      46.475   2.860   7.347  0.00  0.00    +0.000 A 
ATOM      2  C   UNL     1      46.304   4.076   7.997  0.00  0.00    +0.000 A 
ATOM      3  C   UNL     1      45.549   4.121   9.170  0.00  0.00    +0.000 A 
ATOM      4  C   UNL     1      44.968   2.960   9.667  0.00  0.00    +0.000 A 
ATOM      5  N   UNL     1      44.301   2.895  10.869  0.00  0.00    +0.000 N 
ATOM      6  N   UNL     1      45.095   1.782   9.020  0.00  0.00    +0.000 NA
ATOM      7  C   UNL     1      45.833   1.755   7.877  0.00  0.00    +0.000 A 
ATOM      8  H   UNL     1      43.917   1.963  10.997  0.00  0.00    +0.000 HD
ENDROOT
BRANCH   1  10
ATOM      9  N   UNL     1      48.649   2.506   6.326  0.00  0.00    +0.000 N 
ATOM     10  C   UNL     1      47.308   2.708   6.136  0.00  0.00    +0.000 C 
ATOM     11  O   UNL     1      46.819   2.720   5.015  0.00  0.00    +0.000 OA
ATOM     12  H   UNL     1      49.194   2.291   5.501  0.00  0.00    +0.000 HD
ATOM     13  H   UNL     1      49.036   2.237   7.221  0.00  0.00    +0.000 HD
ENDBRANCH   1  10
BRANCH   5  14
ATOM     14  C   UNL     1      43.499   3.981  11.402  0.00  0.00    +0.000 C 
BRANCH  14  15
ATOM     15  C   UNL     1      44.281   5.173  11.911  0.00  0.00    +0.000 A 
ATOM     16  C   UNL     1      45.345   4.946  12.796  0.00  0.00    +0.000 A 
ATOM     17  C   UNL     1      46.111   6.007  13.275  0.00  0.00    +0.000 A 
ATOM     18  C   UNL     1      45.839   7.313  12.858  0.00  0.00    +0.000 A 
ATOM     19  C   UNL     1      44.787   7.591  11.971  0.00  0.00    +0.000 A 
ATOM     20  C   UNL     1      44.002   6.499  11.542  0.00  0.00    +0.000 A 
BRANCH  19  21
ATOM     21  C   UNL     1      44.523   8.955  11.461  0.00  0.00    +0.000 A 
ATOM     22  C   UNL     1      43.416   9.235  10.640  0.00  0.00    +0.000 A 
ATOM     23  C   UNL     1      43.179  10.521  10.159  0.00  0.00    +0.000 A 
ATOM     24  C   UNL     1      44.073  11.516  10.497  0.00  0.00    +0.000 A 
ATOM     25  N   UNL     1      45.158  11.312  11.273  0.00  0.00    +0.000 NA
ATOM     26  C   UNL     1      45.350  10.048  11.733  0.00  0.00    +0.000 A 
ENDBRANCH  19  21
ENDBRANCH  14  15
ENDBRANCH   5  14
TORSDOF 4
ENDMDL
MODEL 6
REMARK VINA RESULT:    -7.089      1.817      2.563
REMARK INTER + INTRA:          -9.543
REMARK INTER:                  -8.931
REMARK INTRA:                  -0.612
REMARK UNBOUND:                -0.796
REMARK  Name = 
REMARK  4 active torsions:
REMARK  status: ('A' for Active; 'I' for Inactive)
REMARK    1  A    between atoms: C_2  and  C_4
REMARK    2  A    between atoms: N_8  and  C_9
REMARK    3  A    between atoms: C_9  and  C_10
REMARK    4  A    between atoms: C_14  and  C_15
REMARK                            x       y       z     vdW  Elec       q    Type
REMARK                         _______ _______ _______ _____ _____    ______ ____
ROOT
ATOM      1  C   UNL     1      46.350   2.072   7.958  0.00  0.00    +0.000 A 
ATOM      2  C   UNL     1      45.668   1.874   9.154  0.00  0.00    +0.000 A 
ATOM      3  C   UNL     1      45.008   2.951   9.748  0.00  0.00    +0.000 A 
ATOM      4  C   UNL     1      45.049   4.206   9.151  0.00  0.00    +0.000 A 
ATOM      5  N   UNL     1      44.339   5.292   9.610  0.00  0.00    +0.000 N 
ATOM      6  N   UNL     1      45.742   4.416   8.011  0.00  0.00    +0.000 NA
ATOM      7  C   UNL     1      46.381   3.357   7.445  0.00  0.00    +0.000 A 
ATOM      8  H   UNL     1      44.566   6.109   9.051  0.00  0.00    +0.000 HD
ENDROOT
BRANCH   1  10
ATOM      9  N   UNL     1      46.677  -0.301   7.570  0.00  0.00    +0.000 N 
ATOM     10  C   UNL     1      47.023   0.979   7.229  0.00  0.00    +0.000 C 
ATOM     11  O   UNL     1      47.823   1.204   6.331  0.00  0.00    +0.000 OA
ATOM     12  H   UNL     1      47.055  -1.040   6.991  0.00  0.00    +0.000 HD
ATOM     13  H   UNL     1      45.849  -0.514   8.111  0.00  0.00    +0.000 HD
ENDBRANCH   1  10
BRANCH   5  14
ATOM     14  C   UNL     1      44.082   5.547  11.015  0.00  0.00    +0.000 C 
BRANCH  14  15
ATOM     15  C   UNL     1      44.855   6.703  11.615  0.00  0.00    +0.000 A 
ATOM     16  C   UNL     1      44.388   8.007  11.395  0.00  0.00    +0.000 A 
ATOM     17  C   UNL     1      45.050   9.102  11.944  0.00  0.00    +0.000 A 
ATOM     18  C   UNL     1      46.181   8.911  12.743  0.00  0.00    +0.000 A 
ATOM     19  C   UNL     1      46.685   7.625  12.995  0.00  0.00    +0.000 A 
ATOM     20  C   UNL     1      46.018   6.541  12.385  0.00  0.00    +0.000 A 
BRANCH  19  21
ATOM     21  C   UNL     1      47.838   7.391  13.893  0.00  0.00    +0.000 A 
ATOM     22  C   UNL     1      47.901   6.269  14.738  0.00  0.00    +0.000 A 
ATOM     23  C   UNL     1      48.988   6.060  15.585  0.00  0.00    +0.000 A 
ATOM     24  C   UNL     1      49.999   6.999  15.587  0.00  0.00    +0.000 A 
ATOM     25  N   UNL     1      49.995   8.101  14.809  0.00  0.00    +0.000 NA
ATOM     26  C   UNL     1      48.925   8.264  13.987  0.00  0.00    +0.000 A 
ENDBRANCH  19  21
ENDBRANCH  14  15
ENDBRANCH   5  14
TORSDOF 4
ENDMDL
MODEL 7
REMARK VINA RESULT:    -6.939      4.663      7.820
REMARK INTER + INTRA:          -9.358
REMARK INTER:                  -8.899
REMARK INTRA:                  -0.460
REMARK UNBOUND:                -0.796
REMARK  Name = 
REMARK  4 active torsions:
REMARK  status: ('A' for Active; 'I' for Inactive)
REMARK    1  A    between atoms: C_2  and  C_4
REMARK    2  A    between atoms: N_8  and  C_9
REMARK    3  A    between atoms: C_9  and  C_10
REMARK    4  A    between atoms: C_14  and  C_15
REMARK                            x       y       z     vdW  Elec       q    Type
REMARK                         _______ _______ _______ _____ _____    ______ ____
ROOT
ATOM      1  C   UNL     1      49.434   3.975  17.235  0.00  0.00    +0.000 A 
ATOM      2  C   UNL     1      49.077   5.267  16.868  0.00  0.00    +0.000 A 
ATOM      3  C   UNL     1      48.007   5.456  15.991  0.00  0.00    +0.000 A 
ATOM      4  C   UNL     1      47.322   4.357  15.486  0.00  0.00    +0.000 A 
ATOM      5  N   UNL     1      46.193   4.456  14.706  0.00  0.00    +0.000 N 
ATOM      6  N   UNL     1      47.687   3.097  15.805  0.00  0.00    +0.000 NA
ATOM      7  C   UNL     1      48.733   2.930  16.660  0.00  0.00    +0.000 A 
ATOM      8  H   UNL     1      45.899   3.529  14.411  0.00  0.00    +0.000 HD
ENDROOT
BRANCH   1  10
ATOM      9  N   UNL     1      51.164   2.489  18.066  0.00  0.00    +0.000 N 
ATOM     10  C   UNL     1      50.511   3.684  18.203  0.00  0.00    +0.000 C 
ATOM     11  O   UNL     1      50.834   4.491  19.064  0.00  0.00    +0.000 OA
ATOM     12  H   UNL     1      51.973   2.347  18.659  0.00  0.00    +0.000 HD
ATOM     13  H   UNL     1      51.100   1.929  17.227  0.00  0.00    +0.000 HD
ENDBRANCH   1  10
BRANCH   5  14
ATOM     14  C   UNL     1      45.974   5.518  13.741  0.00  0.00    +0.000 C 
BRANCH  14  15
ATOM     15  C   UNL     1      45.126   5.140  12.545  0.00  0.00    +0.000 A 
ATOM     16  C   UNL     1      43.765   5.475  12.556  0.00  0.00    +0.000 A 
ATOM     17  C   UNL     1      42.948   5.170  11.470  0.00  0.00    +0.000 A 
ATOM     18  C   UNL     1      43.485   4.544  10.341  0.00  0.00    +0.000 A 
ATOM     19  C   UNL     1      44.843   4.193  10.280  0.00  0.00    +0.000 A 
ATOM     20  C   UNL     1      45.632   4.473  11.416  0.00  0.00    +0.000 A 
BRANCH  19  21
ATOM     21  C   UNL     1      45.450   3.593   9.071  0.00  0.00    +0.000 A 
ATOM     22  C   UNL     1      45.647   2.205   8.955  0.00  0.00    +0.000 A 
ATOM     23  C   UNL     1      46.225   1.650   7.815  0.00  0.00    +0.000 A 
ATOM     24  C   UNL     1      46.620   2.503   6.805  0.00  0.00    +0.000 A 
ATOM     25  N   UNL     1      46.467   3.842   6.858  0.00  0.00    +0.000 NA
ATOM     26  C   UNL     1      45.888   4.347   7.979  0.00  0.00    +0.000 A 
ENDBRANCH  19  21
ENDBRANCH  14  15
ENDBRANCH   5  14
TORSDOF 4
ENDMDL
MODEL 8
REMARK VINA RESULT:    -6.242      3.373      7.378
REMARK INTER + INTRA:          -8.498
REMARK INTER:                  -7.857
REMARK INTRA:                  -0.641
REMARK UNBOUND:                -0.796
REMARK  Name = 
REMARK  4 active torsions:
REMARK  status: ('A' for Active; 'I' for Inactive)
REMARK    1  A    between atoms: C_2  and  C_4
REMARK    2  A    between atoms: N_8  and  C_9
REMARK    3  A    between atoms: C_9  and  C_10
REMARK    4  A    between atoms: C_14  and  C_15
REMARK                            x       y       z     vdW  Elec       q    Type
REMARK                         _______ _______ _______ _____ _____    ______ ____
ROOT
ATOM      1  C   UNL     1      50.100   8.467  13.730  0.00  0.00    +0.000 A 
ATOM      2  C   UNL     1      49.288   7.464  14.245  0.00  0.00    +0.000 A 
ATOM      3  C   UNL     1      48.047   7.222  13.654  0.00  0.00    +0.000 A 
ATOM      4  C   UNL     1      47.632   7.989  12.571  0.00  0.00    +0.000 A 
ATOM      5  N   UNL     1      46.476   7.747  11.864  0.00  0.00    +0.000 N 
ATOM      6  N   UNL     1      48.397   8.992  12.090  0.00  0.00    +0.000 NA
ATOM      7  C   UNL     1      49.604   9.216  12.678  0.00  0.00    +0.000 A 
ATOM      8  H   UNL     1      46.354   8.464  11.155  0.00  0.00    +0.000 HD
ENDROOT
BRANCH   1  10
ATOM      9  N   UNL     1      52.221   7.674  14.603  0.00  0.00    +0.000 N 
ATOM     10  C   UNL     1      51.452   8.751  14.253  0.00  0.00    +0.000 C 
ATOM     11  O   UNL     1      51.884   9.894  14.331  0.00  0.00    +0.000 OA
ATOM     12  H   UNL     1      53.183   7.869  14.852  0.00  0.00    +0.000 HD
ATOM     13  H   UNL     1      52.000   6.731  14.314  0.00  0.00    +0.000 HD
ENDBRANCH   1  10
BRANCH   5  14
ATOM     14  C   UNL     1      45.255   7.248  12.467  0.00  0.00    +0.000 C 
BRANCH  14  15
ATOM     15  C   UNL     1      44.703   5.979  11.854  0.00  0.00    +0.000 A 
ATOM     16  C   UNL     1      43.465   5.499  12.308  0.00  0.00    +0.000 A 
ATOM     17  C   UNL     1      42.903   4.349  11.759  0.00  0.00    +0.000 A 
ATOM     18  C   UNL     1      43.559   3.669  10.729  0.00  0.00    +0.000 A 
ATOM     19  C   UNL     1      44.798   4.112  10.238  0.00  0.00    +0.000 A 
ATOM     20  C   UNL     1      45.362   5.253  10.848  0.00  0.00    +0.000 A 
BRANCH  19  21
ATOM     21  C   UNL     1      45.480   3.450   9.103  0.00  0.00    +0.000 A 
ATOM     22  C   UNL     1      46.009   4.187   8.029  0.00  0.00    +0.000 A 
ATOM     23  C   UNL     1      46.644   3.555   6.961  0.00  0.00    +0.000 A 
ATOM     24  C   UNL     1      46.723   2.177   6.976  0.00  0.00    +0.000 A 
ATOM     25  N   UNL     1      46.228   1.413   7.971  0.00  0.00    +0.000 NA
ATOM     26  C   UNL     1      45.627   2.064   9.001  0.00  0.00    +0.000 A 
ENDBRANCH  19  21
ENDBRANCH  14  15
ENDBRANCH   5  14
TORSDOF 4
ENDMDL
MODEL 9
REMARK VINA RESULT:    -6.160      2.875      5.304
REMARK INTER + INTRA:          -8.397
REMARK INTER:                  -7.704
REMARK INTRA:                  -0.693
REMARK UNBOUND:                -0.796
REMARK  Name = 
REMARK  4 active torsions:
REMARK  status: ('A' for Active; 'I' for Inactive)
REMARK    1  A    between atoms: C_2  and  C_4
REMARK    2  A    between atoms: N_8  and  C_9
REMARK    3  A    between atoms: C_9  and  C_10
REMARK    4  A    between atoms: C_14  and  C_15
REMARK                            x       y       z     vdW  Elec       q    Type
REMARK                         _______ _______ _______ _____ _____    ______ ____
ROOT
ATOM      1  C   UNL     1      44.886   4.257  11.578  0.00  0.00    +0.000 A 
ATOM      2  C   UNL     1      45.179   5.434  10.898  0.00  0.00    +0.000 A 
ATOM      3  C   UNL     1      45.852   6.458  11.568  0.00  0.00    +0.000 A 
ATOM      4  C   UNL     1      46.209   6.298  12.902  0.00  0.00    +0.000 A 
ATOM      5  N   UNL     1      46.965   7.209  13.603  0.00  0.00    +0.000 N 
ATOM      6  N   UNL     1      45.892   5.175  13.581  0.00  0.00    +0.000 NA
ATOM      7  C   UNL     1      45.235   4.187  12.915  0.00  0.00    +0.000 A 
ATOM      8  H   UNL     1      47.053   6.908  14.569  0.00  0.00    +0.000 HD
ENDROOT
BRANCH   1  10
ATOM      9  N   UNL     1      44.977   2.393  10.027  0.00  0.00    +0.000 N 
ATOM     10  C   UNL     1      44.233   3.100  10.933  0.00  0.00    +0.000 C 
ATOM     11  O   UNL     1      43.094   2.761  11.223  0.00  0.00    +0.000 OA
ATOM     12  H   UNL     1      44.565   1.538   9.674  0.00  0.00    +0.000 HD
ATOM     13  H   UNL     1      45.982   2.486   9.959  0.00  0.00    +0.000 HD
ENDBRANCH   1  10
BRANCH   5  14
ATOM     14  C   UNL     1      46.888   8.644  13.398  0.00  0.00    +0.000 C 
BRANCH  14  15
ATOM     15  C   UNL     1      47.972   9.231  12.519  0.00  0.00    +0.000 A 
ATOM     16  C   UNL     1      47.774  10.508  11.975  0.00  0.00    +0.000 A 
ATOM     17  C   UNL     1      48.751  11.101  11.178  0.00  0.00    +0.000 A 
ATOM     18  C   UNL     1      49.955  10.436  10.931  0.00  0.00    +0.000 A 
ATOM     19  C   UNL     1      50.202   9.158  11.456  0.00  0.00    +0.000 A 
ATOM     20  C   UNL     1      49.172   8.565  12.219  0.00  0.00    +0.000 A 
BRANCH  19  21
ATOM     21  C   UNL     1      51.494   8.461  11.266  0.00  0.00    +0.000 A 
ATOM     22  C   UNL     1      51.666   7.484  10.270  0.00  0.00    +0.000 A 
ATOM     23  C   UNL     1      52.885   6.828  10.103  0.00  0.00    +0.000 A 
ATOM     24  C   UNL     1      53.919   7.152  10.957  0.00  0.00    +0.000 A 
ATOM     25  N   UNL     1      53.816   8.073  11.937  0.00  0.00    +0.000 NA
ATOM     26  C   UNL     1      52.617   8.700  12.063  0.00  0.00    +0.000 A 
ENDBRANCH  19  21
ENDBRANCH  14  15
ENDBRANCH   5  14
TORSDOF 4
ENDMDL
