MODEL 1
REMARK VINA RESULT:    -5.765      0.000      0.000
REMARK INTER + INTRA:          -7.489
REMARK INTER:                  -6.776
REMARK INTRA:                  -0.714
REMARK UNBOUND:                -0.714
REMARK  Name = 
REMARK  6 active torsions:
REMARK  status: ('A' for Active; 'I' for Inactive)
REMARK    1  A    between atoms: C_1  and  C_2
REMARK    2  A    between atoms: C_2  and  C_3
REMARK    3  A    between atoms: C_2  and  C_4
REMARK    4  A    between atoms: C_2  and  C_5
REMARK    5  A    between atoms: N_13  and  C_14
REMARK    6  A    between atoms: C_14  and  C_15
REMARK                            x       y       z     vdW  Elec       q    Type
REMARK                         _______ _______ _______ _____ _____    ______ ____
ROOT
ATOM      1  C   UNL     1      44.585   3.915  11.068  0.00  0.00    +0.000 A 
ATOM      2  N   UNL     1      44.834   2.711  10.561  0.00  0.00    +0.000 NA
ATOM      3  C   UNL     1      45.450   2.909   9.365  0.00  0.00    +0.000 A 
ATOM      4  N   UNL     1      45.878   1.948   8.505  0.00  0.00    +0.000 NA
ATOM      5  C   UNL     1      46.455   2.467   7.401  0.00  0.00    +0.000 A 
ATOM      6  C   UNL     1      46.606   3.831   7.163  0.00  0.00    +0.000 A 
ATOM      7  N   UNL     1      46.184   4.807   8.012  0.00  0.00    +0.000 NA
ATOM      8  C   UNL     1      45.606   4.262   9.110  0.00  0.00    +0.000 A 
ATOM      9  N   UNL     1      45.012   4.896  10.178  0.00  0.00    +0.000 N 
ENDROOT
BRANCH   1  11
ATOM     10  C   UNL     1      45.180   4.443  13.429  0.00  0.00    +0.000 C 
ATOM     11  C   UNL     1      44.020   4.090  12.478  0.00  0.00    +0.000 C 
ATOM     12  C   UNL     1      43.403   2.742  12.930  0.00  0.00    +0.000 C 
ATOM     13  C   UNL     1      42.904   5.131  12.634  0.00  0.00    +0.000 C 
ENDBRANCH   1  11
BRANCH   9  14
ATOM     14  C   UNL     1      44.897   6.345  10.272  0.00  0.00    +0.000 C 
BRANCH  14  15
ATOM     15  C   UNL     1      45.819   6.949  11.316  0.00  0.00    +0.000 A 
ATOM     16  C   UNL     1      45.308   7.859  12.257  0.00  0.00    +0.000 A 
ATOM     17  C   UNL     1      46.149   8.469  13.192  0.00  0.00    +0.000 A 
ATOM     18  C   UNL     1      47.507   8.160  13.219  0.00  0.00    +0.000 A 
ATOM     19  C   UNL     1      48.019   7.218  12.334  0.00  0.00    +0.000 A 
ATOM     20  C   UNL     1      47.179   6.608  11.401  0.00  0.00    +0.000 A 
ENDBRANCH  14  15
ENDBRANCH   9  14
TORSDOF 3
ENDMDL
MODEL 2
REMARK VINA RESULT:    -5.645      1.894      4.869
REMARK INTER + INTRA:          -7.349
REMARK INTER:                  -7.210
REMARK INTRA:                  -0.139
REMARK UNBOUND:                -0.714
REMARK  Name = 
REMARK  6 active torsions:
REMARK  status: ('A' for Active; 'I' for Inactive)
REMARK    1  A    between atoms: C_1  and  C_2
REMARK    2  A    between atoms: C_2  and  C_3
REMARK    3  A    between atoms: C_2  and  C_4
REMARK    4  A    between atoms: C_2  and  C_5
REMARK    5  A    between atoms: N_13  and  C_14
REMARK    6  A    between atoms: C_14  and  C_15
REMARK                            x       y       z     vdW  Elec       q    Type
REMARK                         _______ _______ _______ _____ _____    ______ ____
ROOT
ATOM      1  C   UNL     1      44.874   4.892  12.430  0.00  0.00    +0.000 A 
ATOM      2  N   UNL     1      45.616   4.966  13.531  0.00  0.00    +0.000 NA
ATOM      3  C   UNL     1      46.720   5.693  13.210  0.00  0.00    +0.000 A 
ATOM      4  N   UNL     1      47.749   6.012  14.039  0.00  0.00    +0.000 NA
ATOM      5  C   UNL     1      48.696   6.747  13.421  0.00  0.00    +0.000 A 
ATOM      6  C   UNL     1      48.634   7.147  12.089  0.00  0.00    +0.000 A 
ATOM      7  N   UNL     1      47.613   6.838  11.245  0.00  0.00    +0.000 NA
ATOM      8  C   UNL     1      46.677   6.096  11.886  0.00  0.00    +0.000 A 
ATOM      9  N   UNL     1      45.519   5.543  11.383  0.00  0.00    +0.000 N 
ENDROOT
BRANCH   1  11
ATOM     10  C   UNL     1      42.502   5.230  11.747  0.00  0.00    +0.000 C 
ATOM     11  C   UNL     1      43.479   4.264  12.443  0.00  0.00    +0.000 C 
ATOM     12  C   UNL     1      43.035   4.089  13.918  0.00  0.00    +0.000 C 
ATOM     13  C   UNL     1      43.357   2.875  11.805  0.00  0.00    +0.000 C 
ENDBRANCH   1  11
BRANCH   9  14
ATOM     14  C   UNL     1      45.124   5.672   9.987  0.00  0.00    +0.000 C 
BRANCH  14  15
ATOM     15  C   UNL     1      45.590   4.511   9.127  0.00  0.00    +0.000 A 
ATOM     16  C   UNL     1      46.419   4.753   8.018  0.00  0.00    +0.000 A 
ATOM     17  C   UNL     1      46.816   3.706   7.180  0.00  0.00    +0.000 A 
ATOM     18  C   UNL     1      46.414   2.401   7.452  0.00  0.00    +0.000 A 
ATOM     19  C   UNL     1      45.643   2.135   8.578  0.00  0.00    +0.000 A 
ATOM     20  C   UNL     1      45.248   3.180   9.416  0.00  0.00    +0.000 A 
ENDBRANCH  14  15
ENDBRANCH   9  14
TORSDOF 3
ENDMDL
MODEL 3
REMARK VINA RESULT:    -5.644      2.647      4.500
REMARK INTER + INTRA:          -7.347
REMARK INTER:                  -6.862
REMARK INTRA:                  -0.486
REMARK UNBOUND:                -0.714
REMARK  Name = 
REMARK  6 active torsions:
REMARK  status: ('A' for Active; 'I' for Inactive)
REMARK    1  A    between atoms: C_1  and  C_2
REMARK    2  A    between atoms: C_2  and  C_3
REMARK    3  A    between atoms: C_2  and  C_4
REMARK    4  A    between atoms: C_2  and  C_5
REMARK    5  A    between atoms: N_13  and  C_14
REMARK    6  A    between atoms: C_14  and  C_15
REMARK                            x       y       z     vdW  Elec       q    Type
REMARK                         _______ _______ _______ _____ _____    ______ ____
ROOT
ATOM      1  C   UNL     1      45.501   4.699  12.499  0.00  0.00    +0.000 A 
ATOM      2  N   UNL     1      45.453   4.021  13.641  0.00  0.00    +0.000 NA
ATOM      3  C   UNL     1      46.449   4.509  14.428  0.00  0.00    +0.000 A 
ATOM      4  N   UNL     1      46.764   4.099  15.685  0.00  0.00    +0.000 NA
ATOM      5  C   UNL     1      47.805   4.783  16.203  0.00  0.00    +0.000 A 
ATOM      6  C   UNL     1      48.482   5.802  15.538  0.00  0.00    +0.000 A 
ATOM      7  N   UNL     1      48.181   6.226  14.280  0.00  0.00    +0.000 NA
ATOM      8  C   UNL     1      47.137   5.522  13.780  0.00  0.00    +0.000 A 
ATOM      9  N   UNL     1      46.555   5.606  12.534  0.00  0.00    +0.000 N 
ENDROOT
BRANCH   1  11
ATOM     10  C   UNL     1      43.341   5.582  11.624  0.00  0.00    +0.000 C 
ATOM     11  C   UNL     1      44.437   4.520  11.414  0.00  0.00    +0.000 C 
ATOM     12  C   UNL     1      43.802   3.115  11.579  0.00  0.00    +0.000 C 
ATOM     13  C   UNL     1      44.933   4.585   9.964  0.00  0.00    +0.000 C 
ENDBRANCH   1  11
BRANCH   9  14
ATOM     14  C   UNL     1      47.031   6.515  11.500  0.00  0.00    +0.000 C 
BRANCH  14  15
ATOM     15  C   UNL     1      46.649   7.961  11.758  0.00  0.00    +0.000 A 
ATOM     16  C   UNL     1      45.292   8.326  11.816  0.00  0.00    +0.000 A 
ATOM     17  C   UNL     1      44.916   9.660  11.997  0.00  0.00    +0.000 A 
ATOM     18  C   UNL     1      45.888  10.646  12.150  0.00  0.00    +0.000 A 
ATOM     19  C   UNL     1      47.234  10.296  12.154  0.00  0.00    +0.000 A 
ATOM     20  C   UNL     1      47.609   8.964  11.975  0.00  0.00    +0.000 A 
ENDBRANCH  14  15
ENDBRANCH   9  14
TORSDOF 3
ENDMDL
MODEL 4
REMARK VINA RESULT:    -5.484      2.568      4.519
REMARK INTER + INTRA:          -7.160
REMARK INTER:                  -6.779
REMARK INTRA:                  -0.381
REMARK UNBOUND:                -0.714
REMARK  Name = 
REMARK  6 active torsions:
REMARK  status: ('A' for Active; 'I' for Inactive)
REMARK    1  A    between atoms: C_1  and  C_2
REMARK    2  A    between atoms: C_2  and  C_3
REMARK    3  A    between atoms: C_2  and  C_4
REMARK    4  A    between atoms: C_2  and  C_5
REMARK    5  A    between atoms: N_13  and  C_14
REMARK    6  A    between atoms: C_14  and  C_15
REMARK                            x       y       z     vdW  Elec       q    Type
REMARK                         _______ _______ _______ _____ _____    ______ ____
ROOT
ATOM      1  C   UNL     1      45.599   4.434  12.320  0.00  0.00    +0.000 A 
ATOM      2  N   UNL     1      46.132   3.326  12.827  0.00  0.00    +0.000 NA
ATOM      3  C   UNL     1      46.796   3.693  13.956  0.00  0.00    +0.000 A 
ATOM      4  N   UNL     1      47.490   2.875  14.790  0.00  0.00    +0.000 NA
ATOM      5  C   UNL     1      48.036   3.542  15.828  0.00  0.00    +0.000 A 
ATOM      6  C   UNL     1      47.902   4.913  16.035  0.00  0.00    +0.000 A 
ATOM      7  N   UNL     1      47.211   5.747  15.213  0.00  0.00    +0.000 NA
ATOM      8  C   UNL     1      46.677   5.056  14.177  0.00  0.00    +0.000 A 
ATOM      9  N   UNL     1      45.951   5.527  13.106  0.00  0.00    +0.000 N 
ENDROOT
BRANCH   1  11
ATOM     10  C   UNL     1      44.453   2.922  10.706  0.00  0.00    +0.000 C 
ATOM     11  C   UNL     1      44.657   4.392  11.116  0.00  0.00    +0.000 C 
ATOM     12  C   UNL     1      45.331   5.144   9.940  0.00  0.00    +0.000 C 
ATOM     13  C   UNL     1      43.289   5.059  11.306  0.00  0.00    +0.000 C 
ENDBRANCH   1  11
BRANCH   9  14
ATOM     14  C   UNL     1      45.654   6.940  12.914  0.00  0.00    +0.000 C 
BRANCH  14  15
ATOM     15  C   UNL     1      46.841   7.733  12.399  0.00  0.00    +0.000 A 
ATOM     16  C   UNL     1      47.961   7.059  11.882  0.00  0.00    +0.000 A 
ATOM     17  C   UNL     1      49.088   7.766  11.453  0.00  0.00    +0.000 A 
ATOM     18  C   UNL     1      49.103   9.158  11.508  0.00  0.00    +0.000 A 
ATOM     19  C   UNL     1      47.982   9.844  11.961  0.00  0.00    +0.000 A 
ATOM     20  C   UNL     1      46.856   9.138  12.388  0.00  0.00    +0.000 A 
ENDBRANCH  14  15
ENDBRANCH   9  14
TORSDOF 3
ENDMDL
MODEL 5
REMARK VINA RESULT:    -5.255      3.268      5.201
REMARK INTER + INTRA:          -6.891
REMARK INTER:                  -6.389
REMARK INTRA:                  -0.502
REMARK UNBOUND:                -0.714
REMARK  Name = 
REMARK  6 active torsions:
REMARK  status: ('A' for Active; 'I' for Inactive)
REMARK    1  A    between atoms: C_1  and  C_2
REMARK    2  A    between atoms: C_2  and  C_3
REMARK    3  A    between atoms: C_2  and  C_4
REMARK    4  A    between atoms: C_2  and  C_5
REMARK    5  A    between atoms: N_13  and  C_14
REMARK    6  A    between atoms: C_14  and  C_15
REMARK                            x       y       z     vdW  Elec       q    Type
REMARK                         _______ _______ _______ _____ _____    ______ ____
ROOT
ATOM      1  C   UNL     1      46.277   4.942  13.109  0.00  0.00    +0.000 A 
ATOM      2  N   UNL     1      46.440   3.747  13.669  0.00  0.00    +0.000 NA
ATOM      3  C   UNL     1      47.230   3.930  14.761  0.00  0.00    +0.000 A 
ATOM      4  N   UNL     1      47.653   2.972  15.626  0.00  0.00    +0.000 NA
ATOM      5  C   UNL     1      48.424   3.474  16.613  0.00  0.00    +0.000 A 
ATOM      6  C   UNL     1      48.750   4.822  16.744  0.00  0.00    +0.000 A 
ATOM      7  N   UNL     1      48.336   5.795  15.888  0.00  0.00    +0.000 NA
ATOM      8  C   UNL     1      47.567   5.267  14.906  0.00  0.00    +0.000 A 
ATOM      9  N   UNL     1      46.994   5.897  13.823  0.00  0.00    +0.000 N 
ENDROOT
BRANCH   1  11
ATOM     10  C   UNL     1      44.082   5.905  12.432  0.00  0.00    +0.000 C 
ATOM     11  C   UNL     1      45.327   5.152  11.929  0.00  0.00    +0.000 C 
ATOM     12  C   UNL     1      44.886   3.762  11.403  0.00  0.00    +0.000 C 
ATOM     13  C   UNL     1      45.910   5.889  10.716  0.00  0.00    +0.000 C 
ENDBRANCH   1  11
BRANCH   9  14
ATOM     14  C   UNL     1      47.164   7.319  13.557  0.00  0.00    +0.000 C 
BRANCH  14  15
ATOM     15  C   UNL     1      48.557   7.670  13.069  0.00  0.00    +0.000 A 
ATOM     16  C   UNL     1      49.443   8.354  13.919  0.00  0.00    +0.000 A 
ATOM     17  C   UNL     1      50.712   8.737  13.473  0.00  0.00    +0.000 A 
ATOM     18  C   UNL     1      51.124   8.419  12.181  0.00  0.00    +0.000 A 
ATOM     19  C   UNL     1      50.284   7.692  11.346  0.00  0.00    +0.000 A 
ATOM     20  C   UNL     1      49.018   7.309  11.792  0.00  0.00    +0.000 A 
ENDBRANCH  14  15
ENDBRANCH   9  14
TORSDOF 3
ENDMDL
MODEL 6
REMARK VINA RESULT:    -5.224      2.270      5.288
REMARK INTER + INTRA:          -6.854
REMARK INTER:                  -6.249
REMARK INTRA:                  -0.605
REMARK UNBOUND:                -0.714
REMARK  Name = 
REMARK  6 active torsions:
REMARK  status: ('A' for Active; 'I' for Inactive)
REMARK    1  A    between atoms: C_1  and  C_2
REMARK    2  A    between atoms: C_2  and  C_3
REMARK    3  A    between atoms: C_2  and  C_4
REMARK    4  A    between atoms: C_2  and  C_5
REMARK    5  A    between atoms: N_13  and  C_14
REMARK    6  A    between atoms: C_14  and  C_15
REMARK                            x       y       z     vdW  Elec       q    Type
REMARK                         _______ _______ _______ _____ _____    ______ ____
ROOT
ATOM      1  C   UNL     1      45.399   5.830  12.668  0.00  0.00    +0.000 A 
ATOM      2  N   UNL     1      46.029   6.918  13.098  0.00  0.00    +0.000 NA
ATOM      3  C   UNL     1      45.492   7.972  12.426  0.00  0.00    +0.000 A 
ATOM      4  N   UNL     1      45.844   9.279  12.554  0.00  0.00    +0.000 NA
ATOM      5  C   UNL     1      45.122  10.086  11.750  0.00  0.00    +0.000 A 
ATOM      6  C   UNL     1      44.122   9.643  10.888  0.00  0.00    +0.000 A 
ATOM      7  N   UNL     1      43.756   8.340  10.747  0.00  0.00    +0.000 NA
ATOM      8  C   UNL     1      44.496   7.550  11.561  0.00  0.00    +0.000 A 
ATOM      9  N   UNL     1      44.474   6.178  11.687  0.00  0.00    +0.000 N 
ENDROOT
BRANCH   1  11
ATOM     10  C   UNL     1      44.276   3.838  13.657  0.00  0.00    +0.000 C 
ATOM     11  C   UNL     1      45.640   4.459  13.303  0.00  0.00    +0.000 C 
ATOM     12  C   UNL     1      46.446   4.661  14.611  0.00  0.00    +0.000 C 
ATOM     13  C   UNL     1      46.449   3.460  12.466  0.00  0.00    +0.000 C 
ENDBRANCH   1  11
BRANCH   9  14
ATOM     14  C   UNL     1      43.602   5.325  10.891  0.00  0.00    +0.000 C 
BRANCH  14  15
ATOM     15  C   UNL     1      44.363   4.393   9.967  0.00  0.00    +0.000 A 
ATOM     16  C   UNL     1      45.317   4.916   9.077  0.00  0.00    +0.000 A 
ATOM     17  C   UNL     1      45.990   4.083   8.178  0.00  0.00    +0.000 A 
ATOM     18  C   UNL     1      45.741   2.713   8.173  0.00  0.00    +0.000 A 
ATOM     19  C   UNL     1      44.845   2.170   9.086  0.00  0.00    +0.000 A 
ATOM     20  C   UNL     1      44.173   3.001   9.984  0.00  0.00    +0.000 A 
ENDBRANCH  14  15
ENDBRANCH   9  14
TORSDOF 3
ENDMDL
MODEL 7
REMARK VINA RESULT:    -5.101      3.329      6.217
REMARK INTER + INTRA:          -6.710
REMARK INTER:                  -5.895
REMARK INTRA:                  -0.815
REMARK UNBOUND:                -0.714
REMARK  Name = 
REMARK  6 active torsions:
REMARK  status: ('A' for Active; 'I' for Inactive)
REMARK    1  A    between atoms: C_1  and  C_2
REMARK    2  A    between atoms: C_2  and  C_3
REMARK    3  A    between atoms: C_2  and  C_4
REMARK    4  A    between atoms: C_2  and  C_5
REMARK    5  A    between atoms: N_13  and  C_14
REMARK    6  A    between atoms: C_14  and  C_15
REMARK                            x       y       z     vdW  Elec       q    Type
REMARK                         _______ _______ _______ _____ _____    ______ ____
ROOT
ATOM      1  C   UNL     1      47.516   6.576  13.830  0.00  0.00    +0.000 A 
ATOM      2  N   UNL     1      47.937   6.821  15.068  0.00  0.00    +0.000 NA
ATOM      3  C   UNL     1      47.971   5.626  15.714  0.00  0.00    +0.000 A 
ATOM      4  N   UNL     1      48.340   5.412  17.004  0.00  0.00    +0.000 NA
ATOM      5  C   UNL     1      48.269   4.110  17.350  0.00  0.00    +0.000 A 
ATOM      6  C   UNL     1      47.872   3.091  16.488  0.00  0.00    +0.000 A 
ATOM      7  N   UNL     1      47.499   3.285  15.195  0.00  0.00    +0.000 NA
ATOM      8  C   UNL     1      47.574   4.599  14.872  0.00  0.00    +0.000 A 
ATOM      9  N   UNL     1      47.243   5.218  13.688  0.00  0.00    +0.000 N 
ENDROOT
BRANCH   1  11
ATOM     10  C   UNL     1      48.322   8.862  13.258  0.00  0.00    +0.000 C 
ATOM     11  C   UNL     1      47.484   7.669  12.762  0.00  0.00    +0.000 C 
ATOM     12  C   UNL     1      46.017   8.136  12.583  0.00  0.00    +0.000 C 
ATOM     13  C   UNL     1      47.964   7.261  11.363  0.00  0.00    +0.000 C 
ENDBRANCH   1  11
BRANCH   9  14
ATOM     14  C   UNL     1      46.708   4.496  12.542  0.00  0.00    +0.000 C 
BRANCH  14  15
ATOM     15  C   UNL     1      45.235   4.773  12.299  0.00  0.00    +0.000 A 
ATOM     16  C   UNL     1      44.770   4.982  10.989  0.00  0.00    +0.000 A 
ATOM     17  C   UNL     1      43.429   5.293  10.746  0.00  0.00    +0.000 A 
ATOM     18  C   UNL     1      42.527   5.374  11.804  0.00  0.00    +0.000 A 
ATOM     19  C   UNL     1      42.957   5.112  13.101  0.00  0.00    +0.000 A 
ATOM     20  C   UNL     1      44.296   4.800  13.343  0.00  0.00    +0.000 A 
ENDBRANCH  14  15
ENDBRANCH   9  14
TORSDOF 3
ENDMDL
MODEL 8
REMARK VINA RESULT:    -4.885      4.841      6.558
REMARK INTER + INTRA:          -6.456
REMARK INTER:                  -5.988
REMARK INTRA:                  -0.468
REMARK UNBOUND:                -0.714
REMARK  Name = 
REMARK  6 active torsions:
REMARK  status: ('A' for Active; 'I' for Inactive)
REMARK    1  A    between atoms: C_1  and  C_2
REMARK    2  A    between atoms: C_2  and  C_3
REMARK    3  A    between atoms: C_2  and  C_4
REMARK    4  A    between atoms: C_2  and  C_5
REMARK    5  A    between atoms: N_13  and  C_14
REMARK    6  A    between atoms: C_14  and  C_15
REMARK                            x       y       z     vdW  Elec       q    Type
REMARK                         _______ _______ _______ _____ _____    ______ ____
ROOT
ATOM      1  C   UNL     1      48.370   4.266  16.282  0.00  0.00    +0.000 A 
ATOM      2  N   UNL     1      47.415   3.606  15.634  0.00  0.00    +0.000 NA
ATOM      3  C   UNL     1      46.942   4.444  14.674  0.00  0.00    +0.000 A 
ATOM      4  N   UNL     1      45.954   4.178  13.780  0.00  0.00    +0.000 NA
ATOM      5  C   UNL     1      45.716   5.217  12.952  0.00  0.00    +0.000 A 
ATOM      6  C   UNL     1      46.405   6.426  12.994  0.00  0.00    +0.000 A 
ATOM      7  N   UNL     1      47.397   6.711  13.881  0.00  0.00    +0.000 NA
ATOM      8  C   UNL     1      47.614   5.656  14.703  0.00  0.00    +0.000 A 
ATOM      9  N   UNL     1      48.491   5.550  15.760  0.00  0.00    +0.000 N 
ENDROOT
BRANCH   1  11
ATOM     10  C   UNL     1      49.518   2.143  16.898  0.00  0.00    +0.000 C 
ATOM     11  C   UNL     1      49.232   3.588  17.348  0.00  0.00    +0.000 C 
ATOM     12  C   UNL     1      48.429   3.543  18.672  0.00  0.00    +0.000 C 
ATOM     13  C   UNL     1      50.557   4.283  17.688  0.00  0.00    +0.000 C 
ENDBRANCH   1  11
BRANCH   9  14
ATOM     14  C   UNL     1      49.354   6.645  16.183  0.00  0.00    +0.000 C 
BRANCH  14  15
ATOM     15  C   UNL     1      48.675   7.597  17.151  0.00  0.00    +0.000 A 
ATOM     16  C   UNL     1      48.461   8.936  16.780  0.00  0.00    +0.000 A 
ATOM     17  C   UNL     1      47.889   9.844  17.676  0.00  0.00    +0.000 A 
ATOM     18  C   UNL     1      47.497   9.423  18.944  0.00  0.00    +0.000 A 
ATOM     19  C   UNL     1      47.647   8.090  19.308  0.00  0.00    +0.000 A 
ATOM     20  C   UNL     1      48.218   7.183  18.413  0.00  0.00    +0.000 A 
ENDBRANCH  14  15
ENDBRANCH   9  14
TORSDOF 3
ENDMDL
MODEL 9
REMARK VINA RESULT:    -4.818      3.941      7.158
REMARK INTER + INTRA:          -6.377
REMARK INTER:                  -5.645
REMARK INTRA:                  -0.732
REMARK UNBOUND:                -0.714
REMARK  Name = 
REMARK  6 active torsions:
REMARK  status: ('A' for Active; 'I' for Inactive)
REMARK    1  A    between atoms: C_1  and  C_2
REMARK    2  A    between atoms: C_2  and  C_3
REMARK    3  A    between atoms: C_2  and  C_4
REMARK    4  A    between atoms: C_2  and  C_5
REMARK    5  A    between atoms: N_13  and  C_14
REMARK    6  A    between atoms: C_14  and  C_15
REMARK                            x       y       z     vdW  Elec       q    Type
REMARK                         _______ _______ _______ _____ _____    ______ ____
ROOT
ATOM      1  C   UNL     1      48.327   8.580  14.079  0.00  0.00    +0.000 A 
ATOM      2  N   UNL     1      48.442   9.030  15.325  0.00  0.00    +0.000 NA
ATOM      3  C   UNL     1      48.652   7.944  16.116  0.00  0.00    +0.000 A 
ATOM      4  N   UNL     1      48.822   7.942  17.464  0.00  0.00    +0.000 NA
ATOM      5  C   UNL     1      49.014   6.701  17.957  0.00  0.00    +0.000 A 
ATOM      6  C   UNL     1      49.045   5.546  17.180  0.00  0.00    +0.000 A 
ATOM      7  N   UNL     1      48.878   5.527  15.830  0.00  0.00    +0.000 NA
ATOM      8  C   UNL     1      48.683   6.783  15.360  0.00  0.00    +0.000 A 
ATOM      9  N   UNL     1      48.430   7.192  14.069  0.00  0.00    +0.000 N 
ENDROOT
BRANCH   1  11
ATOM     10  C   UNL     1      48.699  10.929  13.336  0.00  0.00    +0.000 C 
ATOM     11  C   UNL     1      48.221   9.535  12.889  0.00  0.00    +0.000 C 
ATOM     12  C   UNL     1      46.732   9.632  12.471  0.00  0.00    +0.000 C 
ATOM     13  C   UNL     1      48.982   9.121  11.622  0.00  0.00    +0.000 C 
ENDBRANCH   1  11
BRANCH   9  14
ATOM     14  C   UNL     1      48.308   6.262  12.955  0.00  0.00    +0.000 C 
BRANCH  14  15
ATOM     15  C   UNL     1      46.867   5.965  12.583  0.00  0.00    +0.000 A 
ATOM     16  C   UNL     1      46.393   6.299  11.302  0.00  0.00    +0.000 A 
ATOM     17  C   UNL     1      45.055   6.086  10.956  0.00  0.00    +0.000 A 
ATOM     18  C   UNL     1      44.178   5.511  11.872  0.00  0.00    +0.000 A 
ATOM     19  C   UNL     1      44.643   5.120  13.123  0.00  0.00    +0.000 A 
ATOM     20  C   UNL     1      45.979   5.332  13.469  0.00  0.00    +0.000 A 
ENDBRANCH  14  15
ENDBRANCH   9  14
TORSDOF 3
ENDMDL
