MODEL 1
REMARK VINA RESULT:    -7.967      0.000      0.000
REMARK INTER + INTRA:          -9.743
REMARK INTER:                  -9.365
REMARK INTRA:                  -0.378
REMARK UNBOUND:                -0.378
REMARK  Name = 
REMARK  3 active torsions:
REMARK  status: ('A' for Active; 'I' for Inactive)
REMARK    1  A    between atoms: C_2  and  C_4
REMARK    2  A    between atoms: N_8  and  C_9
REMARK    3  A    between atoms: C_9  and  C_10
REMARK                            x       y       z     vdW  Elec       q    Type
REMARK                         _______ _______ _______ _____ _____    ______ ____
ROOT
ATOM      1  C   UNL     1      46.400   2.349   7.756  0.00  0.00    +0.000 A 
ATOM      2  C   UNL     1      45.502   1.897   8.689  0.00  0.00    +0.000 A 
ATOM      3  N   UNL     1      44.637   2.700   9.341  0.00  0.00    +0.000 NA
ATOM      4  C   UNL     1      44.681   4.012   9.059  0.00  0.00    +0.000 A 
ATOM      5  N   UNL     1      43.786   4.873   9.665  0.00  0.00    +0.000 N 
ATOM      6  N   UNL     1      45.533   4.554   8.180  0.00  0.00    +0.000 NA
ATOM      7  C   UNL     1      46.384   3.710   7.548  0.00  0.00    +0.000 A 
ATOM      8  H   UNL     1      44.105   5.819   9.496  0.00  0.00    +0.000 HD
ENDROOT
BRANCH   1  10
ATOM      9  N   UNL     1      48.486   2.054   6.549  0.00  0.00    +0.000 N 
ATOM     10  C   UNL     1      47.352   1.481   7.054  0.00  0.00    +0.000 C 
ATOM     11  O   UNL     1      47.145   0.279   6.941  0.00  0.00    +0.000 OA
ATOM     12  H   UNL     1      49.164   1.424   6.135  0.00  0.00    +0.000 HD
ATOM     13  H   UNL     1      48.820   2.970   6.817  0.00  0.00    +0.000 HD
ENDBRANCH   1  10
BRANCH   5  14
ATOM     14  C   UNL     1      43.482   4.568  11.050  0.00  0.00    +0.000 C 
BRANCH  14  15
ATOM     15  C   UNL     1      44.591   5.078  11.936  0.00  0.00    +0.000 A 
ATOM     16  C   UNL     1      45.290   4.192  12.765  0.00  0.00    +0.000 A 
ATOM     17  C   UNL     1      46.342   4.676  13.524  0.00  0.00    +0.000 A 
ATOM     18  N   UNL     1      46.744   5.963  13.511  0.00  0.00    +0.000 NA
ATOM     19  C   UNL     1      46.060   6.803  12.707  0.00  0.00    +0.000 A 
ATOM     20  C   UNL     1      44.992   6.416  11.908  0.00  0.00    +0.000 A 
ENDBRANCH  14  15
ENDBRANCH   5  14
TORSDOF 3
ENDMDL
MODEL 2
REMARK VINA RESULT:    -7.348      2.537      6.112
REMARK INTER + INTRA:          -9.014
REMARK INTER:                  -8.751
REMARK INTRA:                  -0.264
REMARK UNBOUND:                -0.378
REMARK  Name = 
REMARK  3 active torsions:
REMARK  status: ('A' for Active; 'I' for Inactive)
REMARK    1  A    between atoms: C_2  and  C_4
REMARK    2  A    between atoms: N_8  and  C_9
REMARK    3  A    between atoms: C_9  and  C_10
REMARK                            x       y       z     vdW  Elec       q    Type
REMARK                         _______ _______ _______ _____ _____    ______ ____
ROOT
ATOM      1  C   UNL     1      46.109   4.535  13.066  0.00  0.00    +0.000 A 
ATOM      2  C   UNL     1      46.002   5.399  12.006  0.00  0.00    +0.000 A 
ATOM      3  N   UNL     1      45.415   5.072  10.836  0.00  0.00    +0.000 NA
ATOM      4  C   UNL     1      44.928   3.827  10.716  0.00  0.00    +0.000 A 
ATOM      5  N   UNL     1      44.276   3.456   9.556  0.00  0.00    +0.000 N 
ATOM      6  N   UNL     1      45.001   2.906  11.685  0.00  0.00    +0.000 NA
ATOM      7  C   UNL     1      45.598   3.276  12.843  0.00  0.00    +0.000 A 
ATOM      8  H   UNL     1      44.174   2.448   9.568  0.00  0.00    +0.000 HD
ENDROOT
BRANCH   1  10
ATOM      9  N   UNL     1      47.373   6.100  14.426  0.00  0.00    +0.000 N 
ATOM     10  C   UNL     1      46.758   4.881  14.336  0.00  0.00    +0.000 C 
ATOM     11  O   UNL     1      46.733   4.112  15.288  0.00  0.00    +0.000 OA
ATOM     12  H   UNL     1      47.748   6.348  15.335  0.00  0.00    +0.000 HD
ATOM     13  H   UNL     1      47.220   6.857  13.773  0.00  0.00    +0.000 HD
ENDBRANCH   1  10
BRANCH   5  14
ATOM     14  C   UNL     1      44.841   3.998   8.335  0.00  0.00    +0.000 C 
BRANCH  14  15
ATOM     15  C   UNL     1      45.868   3.042   7.782  0.00  0.00    +0.000 A 
ATOM     16  C   UNL     1      46.855   3.504   6.904  0.00  0.00    +0.000 A 
ATOM     17  C   UNL     1      47.822   2.618   6.459  0.00  0.00    +0.000 A 
ATOM     18  N   UNL     1      47.874   1.321   6.826  0.00  0.00    +0.000 NA
ATOM     19  C   UNL     1      46.914   0.892   7.673  0.00  0.00    +0.000 A 
ATOM     20  C   UNL     1      45.905   1.701   8.175  0.00  0.00    +0.000 A 
ENDBRANCH  14  15
ENDBRANCH   5  14
TORSDOF 3
ENDMDL
MODEL 3
REMARK VINA RESULT:    -7.027      2.873      6.150
REMARK INTER + INTRA:          -8.637
REMARK INTER:                  -8.257
REMARK INTRA:                  -0.381
REMARK UNBOUND:                -0.378
REMARK  Name = 
REMARK  3 active torsions:
REMARK  status: ('A' for Active; 'I' for Inactive)
REMARK    1  A    between atoms: C_2  and  C_4
REMARK    2  A    between atoms: N_8  and  C_9
REMARK    3  A    between atoms: C_9  and  C_10
REMARK                            x       y       z     vdW  Elec       q    Type
REMARK                         _______ _______ _______ _____ _____    ______ ____
ROOT
ATOM      1  C   UNL     1      46.810   5.184  13.787  0.00  0.00    +0.000 A 
ATOM      2  C   UNL     1      45.848   5.759  12.996  0.00  0.00    +0.000 A 
ATOM      3  N   UNL     1      45.001   5.052  12.221  0.00  0.00    +0.000 NA
ATOM      4  C   UNL     1      45.129   3.716  12.226  0.00  0.00    +0.000 A 
ATOM      5  N   UNL     1      44.256   2.942  11.484  0.00  0.00    +0.000 N 
ATOM      6  N   UNL     1      46.047   3.062  12.947  0.00  0.00    +0.000 NA
ATOM      7  C   UNL     1      46.877   3.811  13.712  0.00  0.00    +0.000 A 
ATOM      8  H   UNL     1      44.634   2.003  11.445  0.00  0.00    +0.000 HD
ENDROOT
BRANCH   1  10
ATOM      9  N   UNL     1      47.802   7.304  14.435  0.00  0.00    +0.000 N 
ATOM     10  C   UNL     1      47.742   5.949  14.622  0.00  0.00    +0.000 C 
ATOM     11  O   UNL     1      48.429   5.397  15.471  0.00  0.00    +0.000 OA
ATOM     12  H   UNL     1      48.396   7.820  15.073  0.00  0.00    +0.000 HD
ATOM     13  H   UNL     1      47.102   7.833  13.933  0.00  0.00    +0.000 HD
ENDBRANCH   1  10
BRANCH   5  14
ATOM     14  C   UNL     1      43.877   3.503  10.202  0.00  0.00    +0.000 C 
BRANCH  14  15
ATOM     15  C   UNL     1      44.893   3.114   9.157  0.00  0.00    +0.000 A 
ATOM     16  C   UNL     1      45.510   4.101   8.379  0.00  0.00    +0.000 A 
ATOM     17  C   UNL     1      46.484   3.723   7.470  0.00  0.00    +0.000 A 
ATOM     18  N   UNL     1      46.883   2.448   7.288  0.00  0.00    +0.000 NA
ATOM     19  C   UNL     1      46.277   1.509   8.046  0.00  0.00    +0.000 A 
ATOM     20  C   UNL     1      45.293   1.787   8.984  0.00  0.00    +0.000 A 
ENDBRANCH  14  15
ENDBRANCH   5  14
TORSDOF 3
ENDMDL
MODEL 4
REMARK VINA RESULT:    -6.383      3.048      6.336
REMARK INTER + INTRA:          -7.880
REMARK INTER:                  -7.533
REMARK INTRA:                  -0.347
REMARK UNBOUND:                -0.378
REMARK  Name = 
REMARK  3 active torsions:
REMARK  status: ('A' for Active; 'I' for Inactive)
REMARK    1  A    between atoms: C_2  and  C_4
REMARK    2  A    between atoms: N_8  and  C_9
REMARK    3  A    between atoms: C_9  and  C_10
REMARK                            x       y       z     vdW  Elec       q    Type
REMARK                         _______ _______ _______ _____ _____    ______ ____
ROOT
ATOM      1  C   UNL     1      46.059   7.578  12.740  0.00  0.00    +0.000 A 
ATOM      2  C   UNL     1      44.964   7.531  11.914  0.00  0.00    +0.000 A 
ATOM      3  N   UNL     1      44.406   6.382  11.483  0.00  0.00    +0.000 NA
ATOM      4  C   UNL     1      44.972   5.232  11.882  0.00  0.00    +0.000 A 
ATOM      5  N   UNL     1      44.412   4.026  11.506  0.00  0.00    +0.000 N 
ATOM      6  N   UNL     1      46.053   5.172  12.671  0.00  0.00    +0.000 NA
ATOM      7  C   UNL     1      46.581   6.350  13.080  0.00  0.00    +0.000 A 
ATOM      8  H   UNL     1      45.081   3.296  11.717  0.00  0.00    +0.000 HD
ENDROOT
BRANCH   1  10
ATOM      9  N   UNL     1      47.129   8.874  14.492  0.00  0.00    +0.000 N 
ATOM     10  C   UNL     1      46.678   8.825  13.201  0.00  0.00    +0.000 C 
ATOM     11  O   UNL     1      46.803   9.784  12.450  0.00  0.00    +0.000 OA
ATOM     12  H   UNL     1      47.620   9.718  14.765  0.00  0.00    +0.000 HD
ATOM     13  H   UNL     1      47.271   8.056  15.069  0.00  0.00    +0.000 HD
ENDBRANCH   1  10
BRANCH   5  14
ATOM     14  C   UNL     1      43.873   3.992  10.160  0.00  0.00    +0.000 C 
BRANCH  14  15
ATOM     15  C   UNL     1      44.910   3.442   9.213  0.00  0.00    +0.000 A 
ATOM     16  C   UNL     1      45.147   2.064   9.156  0.00  0.00    +0.000 A 
ATOM     17  C   UNL     1      46.060   1.579   8.235  0.00  0.00    +0.000 A 
ATOM     18  N   UNL     1      46.742   2.363   7.375  0.00  0.00    +0.000 NA
ATOM     19  C   UNL     1      46.501   3.689   7.443  0.00  0.00    +0.000 A 
ATOM     20  C   UNL     1      45.606   4.271   8.329  0.00  0.00    +0.000 A 
ENDBRANCH  14  15
ENDBRANCH   5  14
TORSDOF 3
ENDMDL
MODEL 5
REMARK VINA RESULT:    -6.378      2.990      6.380
REMARK INTER + INTRA:          -7.874
REMARK INTER:                  -7.830
REMARK INTRA:                  -0.045
REMARK UNBOUND:                -0.378
REMARK  Name = 
REMARK  3 active torsions:
REMARK  status: ('A' for Active; 'I' for Inactive)
REMARK    1  A    between atoms: C_2  and  C_4
REMARK    2  A    between atoms: N_8  and  C_9
REMARK    3  A    between atoms: C_9  and  C_10
REMARK                            x       y       z     vdW  Elec       q    Type
REMARK                         _______ _______ _______ _____ _____    ______ ____
ROOT
ATOM      1  C   UNL     1      45.084   6.915  11.770  0.00  0.00    +0.000 A 
ATOM      2  C   UNL     1      46.022   6.092  11.201  0.00  0.00    +0.000 A 
ATOM      3  N   UNL     1      45.711   5.019  10.446  0.00  0.00    +0.000 NA
ATOM      4  C   UNL     1      44.409   4.749  10.264  0.00  0.00    +0.000 A 
ATOM      5  N   UNL     1      44.036   3.687   9.462  0.00  0.00    +0.000 N 
ATOM      6  N   UNL     1      43.419   5.479  10.792  0.00  0.00    +0.000 NA
ATOM      7  C   UNL     1      43.776   6.548  11.543  0.00  0.00    +0.000 A 
ATOM      8  H   UNL     1      43.049   3.516   9.615  0.00  0.00    +0.000 HD
ENDROOT
BRANCH   1  10
ATOM      9  N   UNL     1      46.411   7.932  13.531  0.00  0.00    +0.000 N 
ATOM     10  C   UNL     1      45.417   8.077  12.602  0.00  0.00    +0.000 C 
ATOM     11  O   UNL     1      44.837   9.145  12.457  0.00  0.00    +0.000 OA
ATOM     12  H   UNL     1      46.675   8.767  14.041  0.00  0.00    +0.000 HD
ATOM     13  H   UNL     1      47.074   7.168  13.530  0.00  0.00    +0.000 HD
ENDBRANCH   1  10
BRANCH   5  14
ATOM     14  C   UNL     1      44.882   2.514   9.563  0.00  0.00    +0.000 C 
BRANCH  14  15
ATOM     15  C   UNL     1      45.710   2.375   8.310  0.00  0.00    +0.000 A 
ATOM     16  C   UNL     1      45.797   3.441   7.406  0.00  0.00    +0.000 A 
ATOM     17  C   UNL     1      46.612   3.309   6.294  0.00  0.00    +0.000 A 
ATOM     18  N   UNL     1      47.339   2.206   6.026  0.00  0.00    +0.000 NA
ATOM     19  C   UNL     1      47.243   1.188   6.907  0.00  0.00    +0.000 A 
ATOM     20  C   UNL     1      46.456   1.223   8.050  0.00  0.00    +0.000 A 
ENDBRANCH  14  15
ENDBRANCH   5  14
TORSDOF 3
ENDMDL
MODEL 6
REMARK VINA RESULT:    -5.731      4.396      6.569
REMARK INTER + INTRA:          -7.114
REMARK INTER:                  -6.851
REMARK INTRA:                  -0.263
REMARK UNBOUND:                -0.378
REMARK  Name = 
REMARK  3 active torsions:
REMARK  status: ('A' for Active; 'I' for Inactive)
REMARK    1  A    between atoms: C_2  and  C_4
REMARK    2  A    between atoms: N_8  and  C_9
REMARK    3  A    between atoms: C_9  and  C_10
REMARK                            x       y       z     vdW  Elec       q    Type
REMARK                         _______ _______ _______ _____ _____    ______ ____
ROOT
ATOM      1  C   UNL     1      46.005   5.472  12.172  0.00  0.00    +0.000 A 
ATOM      2  C   UNL     1      46.938   5.934  13.065  0.00  0.00    +0.000 A 
ATOM      3  N   UNL     1      47.403   5.205  14.099  0.00  0.00    +0.000 NA
ATOM      4  C   UNL     1      46.907   3.968  14.256  0.00  0.00    +0.000 A 
ATOM      5  N   UNL     1      47.383   3.162  15.273  0.00  0.00    +0.000 N 
ATOM      6  N   UNL     1      45.980   3.433  13.451  0.00  0.00    +0.000 NA
ATOM      7  C   UNL     1      45.540   4.200  12.424  0.00  0.00    +0.000 A 
ATOM      8  H   UNL     1      46.755   2.373  15.361  0.00  0.00    +0.000 HD
ENDROOT
BRANCH   1  10
ATOM      9  N   UNL     1      45.759   5.834   9.784  0.00  0.00    +0.000 N 
ATOM     10  C   UNL     1      45.486   6.265  11.053  0.00  0.00    +0.000 C 
ATOM     11  O   UNL     1      44.815   7.270  11.249  0.00  0.00    +0.000 OA
ATOM     12  H   UNL     1      45.327   6.354   9.029  0.00  0.00    +0.000 HD
ATOM     13  H   UNL     1      46.090   4.903   9.566  0.00  0.00    +0.000 HD
ENDBRANCH   1  10
BRANCH   5  14
ATOM     14  C   UNL     1      47.678   3.851  16.515  0.00  0.00    +0.000 C 
BRANCH  14  15
ATOM     15  C   UNL     1      49.061   3.479  16.986  0.00  0.00    +0.000 A 
ATOM     16  C   UNL     1      49.531   2.171  16.817  0.00  0.00    +0.000 A 
ATOM     17  C   UNL     1      50.826   1.871  17.203  0.00  0.00    +0.000 A 
ATOM     18  N   UNL     1      51.676   2.773  17.735  0.00  0.00    +0.000 NA
ATOM     19  C   UNL     1      51.207   4.028  17.891  0.00  0.00    +0.000 A 
ATOM     20  C   UNL     1      49.927   4.428  17.535  0.00  0.00    +0.000 A 
ENDBRANCH  14  15
ENDBRANCH   5  14
TORSDOF 3
ENDMDL
MODEL 7
REMARK VINA RESULT:    -5.714      4.310      7.538
REMARK INTER + INTRA:          -7.094
REMARK INTER:                  -6.861
REMARK INTRA:                  -0.233
REMARK UNBOUND:                -0.378
REMARK  Name = 
REMARK  3 active torsions:
REMARK  status: ('A' for Active; 'I' for Inactive)
REMARK    1  A    between atoms: C_2  and  C_4
REMARK    2  A    between atoms: N_8  and  C_9
REMARK    3  A    between atoms: C_9  and  C_10
REMARK                            x       y       z     vdW  Elec       q    Type
REMARK                         _______ _______ _______ _____ _____    ______ ____
ROOT
ATOM      1  C   UNL     1      48.338   4.431  17.160  0.00  0.00    +0.000 A 
ATOM      2  C   UNL     1      47.344   3.680  16.587  0.00  0.00    +0.000 A 
ATOM      3  N   UNL     1      46.816   3.944  15.375  0.00  0.00    +0.000 NA
ATOM      4  C   UNL     1      47.292   5.010  14.713  0.00  0.00    +0.000 A 
ATOM      5  N   UNL     1      46.818   5.299  13.448  0.00  0.00    +0.000 N 
ATOM      6  N   UNL     1      48.247   5.816  15.194  0.00  0.00    +0.000 NA
ATOM      7  C   UNL     1      48.749   5.514  16.416  0.00  0.00    +0.000 A 
ATOM      8  H   UNL     1      47.129   6.233  13.207  0.00  0.00    +0.000 HD
ENDROOT
BRANCH   1  10
ATOM      9  N   UNL     1      48.331   3.163  19.231  0.00  0.00    +0.000 N 
ATOM     10  C   UNL     1      48.907   4.154  18.484  0.00  0.00    +0.000 C 
ATOM     11  O   UNL     1      49.876   4.778  18.898  0.00  0.00    +0.000 OA
ATOM     12  H   UNL     1      48.787   2.939  20.109  0.00  0.00    +0.000 HD
ATOM     13  H   UNL     1      47.702   2.469  18.853  0.00  0.00    +0.000 HD
ENDBRANCH   1  10
BRANCH   5  14
ATOM     14  C   UNL     1      45.401   5.058  13.253  0.00  0.00    +0.000 C 
BRANCH  14  15
ATOM     15  C   UNL     1      45.159   4.560  11.850  0.00  0.00    +0.000 A 
ATOM     16  C   UNL     1      44.502   3.342  11.642  0.00  0.00    +0.000 A 
ATOM     17  C   UNL     1      44.239   2.938  10.343  0.00  0.00    +0.000 A 
ATOM     18  N   UNL     1      44.577   3.656   9.253  0.00  0.00    +0.000 NA
ATOM     19  C   UNL     1      45.210   4.828   9.472  0.00  0.00    +0.000 A 
ATOM     20  C   UNL     1      45.518   5.320  10.733  0.00  0.00    +0.000 A 
ENDBRANCH  14  15
ENDBRANCH   5  14
TORSDOF 3
ENDMDL
MODEL 8
REMARK VINA RESULT:    -5.687      3.435      5.422
REMARK INTER + INTRA:          -7.063
REMARK INTER:                  -6.839
REMARK INTRA:                  -0.224
REMARK UNBOUND:                -0.378
REMARK  Name = 
REMARK  3 active torsions:
REMARK  status: ('A' for Active; 'I' for Inactive)
REMARK    1  A    between atoms: C_2  and  C_4
REMARK    2  A    between atoms: N_8  and  C_9
REMARK    3  A    between atoms: C_9  and  C_10
REMARK                            x       y       z     vdW  Elec       q    Type
REMARK                         _______ _______ _______ _____ _____    ______ ____
ROOT
ATOM      1  C   UNL     1      45.507   4.855  10.872  0.00  0.00    +0.000 A 
ATOM      2  C   UNL     1      45.280   3.848  11.775  0.00  0.00    +0.000 A 
ATOM      3  N   UNL     1      45.659   3.908  13.068  0.00  0.00    +0.000 NA
ATOM      4  C   UNL     1      46.302   5.015  13.472  0.00  0.00    +0.000 A 
ATOM      5  N   UNL     1      46.671   5.147  14.797  0.00  0.00    +0.000 N 
ATOM      6  N   UNL     1      46.587   6.044  12.664  0.00  0.00    +0.000 NA
ATOM      7  C   UNL     1      46.189   5.941  11.372  0.00  0.00    +0.000 A 
ATOM      8  H   UNL     1      47.315   5.927  14.862  0.00  0.00    +0.000 HD
ENDROOT
BRANCH   1  10
ATOM      9  N   UNL     1      43.825   4.409   9.178  0.00  0.00    +0.000 N 
ATOM     10  C   UNL     1      45.108   4.788   9.461  0.00  0.00    +0.000 C 
ATOM     11  O   UNL     1      45.894   5.081   8.568  0.00  0.00    +0.000 OA
ATOM     12  H   UNL     1      43.550   4.443   8.203  0.00  0.00    +0.000 HD
ATOM     13  H   UNL     1      43.080   4.392   9.862  0.00  0.00    +0.000 HD
ENDBRANCH   1  10
BRANCH   5  14
ATOM     14  C   UNL     1      47.125   3.925  15.432  0.00  0.00    +0.000 C 
BRANCH  14  15
ATOM     15  C   UNL     1      47.901   4.261  16.681  0.00  0.00    +0.000 A 
ATOM     16  C   UNL     1      48.536   5.503  16.799  0.00  0.00    +0.000 A 
ATOM     17  C   UNL     1      49.191   5.810  17.981  0.00  0.00    +0.000 A 
ATOM     18  N   UNL     1      49.252   4.977  19.039  0.00  0.00    +0.000 NA
ATOM     19  C   UNL     1      48.635   3.784  18.909  0.00  0.00    +0.000 A 
ATOM     20  C   UNL     1      47.953   3.384  17.768  0.00  0.00    +0.000 A 
ENDBRANCH  14  15
ENDBRANCH   5  14
TORSDOF 3
ENDMDL
MODEL 9
REMARK VINA RESULT:    -5.488      4.732      8.040
REMARK INTER + INTRA:          -6.829
REMARK INTER:                  -6.633
REMARK INTRA:                  -0.196
REMARK UNBOUND:                -0.378
REMARK  Name = 
REMARK  3 active torsions:
REMARK  status: ('A' for Active; 'I' for Inactive)
REMARK    1  A    between atoms: C_2  and  C_4
REMARK    2  A    between atoms: N_8  and  C_9
REMARK    3  A    between atoms: C_9  and  C_10
REMARK                            x       y       z     vdW  Elec       q    Type
REMARK                         _______ _______ _______ _____ _____    ______ ____
ROOT
ATOM      1  C   UNL     1      49.555   4.296  17.569  0.00  0.00    +0.000 A 
ATOM      2  C   UNL     1      49.280   5.338  16.720  0.00  0.00    +0.000 A 
ATOM      3  N   UNL     1      48.218   5.360  15.889  0.00  0.00    +0.000 NA
ATOM      4  C   UNL     1      47.405   4.293  15.898  0.00  0.00    +0.000 A 
ATOM      5  N   UNL     1      46.277   4.285  15.099  0.00  0.00    +0.000 N 
ATOM      6  N   UNL     1      47.597   3.220  16.675  0.00  0.00    +0.000 NA
ATOM      7  C   UNL     1      48.677   3.239  17.494  0.00  0.00    +0.000 A 
ATOM      8  H   UNL     1      45.918   3.338  15.081  0.00  0.00    +0.000 HD
ENDROOT
BRANCH   1  10
ATOM      9  N   UNL     1      50.482   4.278  19.813  0.00  0.00    +0.000 N 
ATOM     10  C   UNL     1      50.716   4.262  18.465  0.00  0.00    +0.000 C 
ATOM     11  O   UNL     1      51.855   4.201  18.021  0.00  0.00    +0.000 OA
ATOM     12  H   UNL     1      51.294   4.177  20.412  0.00  0.00    +0.000 HD
ATOM     13  H   UNL     1      49.581   4.085  20.229  0.00  0.00    +0.000 HD
ENDBRANCH   1  10
BRANCH   5  14
ATOM     14  C   UNL     1      46.443   4.900  13.796  0.00  0.00    +0.000 C 
BRANCH  14  15
ATOM     15  C   UNL     1      45.205   4.670  12.965  0.00  0.00    +0.000 A 
ATOM     16  C   UNL     1      45.092   3.516  12.181  0.00  0.00    +0.000 A 
ATOM     17  C   UNL     1      43.921   3.300  11.475  0.00  0.00    +0.000 A 
ATOM     18  N   UNL     1      42.867   4.141  11.499  0.00  0.00    +0.000 NA
ATOM     19  C   UNL     1      42.993   5.249  12.260  0.00  0.00    +0.000 A 
ATOM     20  C   UNL     1      44.124   5.554  13.004  0.00  0.00    +0.000 A 
ENDBRANCH  14  15
ENDBRANCH   5  14
TORSDOF 3
ENDMDL
