MODEL 1
REMARK VINA RESULT:    -8.517      0.000      0.000
REMARK INTER + INTRA:         -11.890
REMARK INTER:                 -11.007
REMARK INTRA:                  -0.883
REMARK UNBOUND:                -0.883
REMARK  Name = 
REMARK  5 active torsions:
REMARK  status: ('A' for Active; 'I' for Inactive)
REMARK    1  A    between atoms: C_2  and  C_4
REMARK    2  A    between atoms: C_7  and  N_8
REMARK    3  A    between atoms: N_8  and  C_9
REMARK    4  A    between atoms: C_9  and  C_10
REMARK    5  A    between atoms: C_14  and  N_15
REMARK                            x       y       z     vdW  Elec       q    Type
REMARK                         _______ _______ _______ _____ _____    ______ ____
ROOT
ATOM      1  N   UNL     1      43.563   4.773   9.789  0.00  0.00    +0.000 N 
ATOM      2  H   UNL     1      42.713   4.851   9.238  0.00  0.00    +0.000 HD
ENDROOT
BRANCH   1   6
ATOM      3  C   UNL     1      46.390   2.308   7.880  0.00  0.00    +0.000 A 
ATOM      4  C   UNL     1      46.417   3.685   7.659  0.00  0.00    +0.000 A 
ATOM      5  C   UNL     1      45.514   4.519   8.324  0.00  0.00    +0.000 A 
ATOM      6  C   UNL     1      44.570   4.009   9.222  0.00  0.00    +0.000 A 
ATOM      7  C   UNL     1      44.550   2.620   9.423  0.00  0.00    +0.000 A 
ATOM      8  C   UNL     1      45.447   1.774   8.760  0.00  0.00    +0.000 A 
BRANCH   3  10
ATOM      9  N   UNL     1      48.349   1.967   6.477  0.00  0.00    +0.000 N 
ATOM     10  C   UNL     1      47.314   1.393   7.164  0.00  0.00    +0.000 C 
ATOM     11  O   UNL     1      47.178   0.176   7.207  0.00  0.00    +0.000 OA
ATOM     12  H   UNL     1      49.027   1.334   6.075  0.00  0.00    +0.000 HD
ATOM     13  H   UNL     1      48.624   2.929   6.620  0.00  0.00    +0.000 HD
ENDBRANCH   3  10
ENDBRANCH   1   6
BRANCH   1  14
ATOM     14  C   UNL     1      43.359   4.868  11.226  0.00  0.00    +0.000 C 
BRANCH  14  15
ATOM     15  C   UNL     1      44.415   5.763  11.822  0.00  0.00    +0.000 A 
ATOM     16  C   UNL     1      44.479   7.113  11.459  0.00  0.00    +0.000 A 
ATOM     17  C   UNL     1      45.485   7.924  11.969  0.00  0.00    +0.000 A 
ATOM     18  C   UNL     1      46.425   7.391  12.855  0.00  0.00    +0.000 A 
ATOM     19  C   UNL     1      46.381   6.049  13.261  0.00  0.00    +0.000 A 
ATOM     20  C   UNL     1      45.369   5.248  12.710  0.00  0.00    +0.000 A 
BRANCH  19  21
ATOM     21  N   UNL     1      47.253   5.568  14.212  0.00  0.00    +0.000 N 
ATOM     22  C   UNL     1      47.236   4.167  14.652  0.00  0.00    +0.000 C 
ATOM     23  C   UNL     1      47.478   4.128  16.169  0.00  0.00    +0.000 C 
ATOM     24  O   UNL     1      48.707   4.783  16.526  0.00  0.00    +0.000 OA
ATOM     25  C   UNL     1      48.680   6.161  16.111  0.00  0.00    +0.000 C 
ATOM     26  C   UNL     1      48.474   6.294  14.593  0.00  0.00    +0.000 C 
ENDBRANCH  19  21
ENDBRANCH  14  15
ENDBRANCH   1  14
TORSDOF 5
ENDMDL
MODEL 2
REMARK VINA RESULT:    -8.368      1.952      3.170
REMARK INTER + INTRA:         -11.697
REMARK INTER:                 -10.729
REMARK INTRA:                  -0.968
REMARK UNBOUND:                -0.883
REMARK  Name = 
REMARK  5 active torsions:
REMARK  status: ('A' for Active; 'I' for Inactive)
REMARK    1  A    between atoms: C_2  and  C_4
REMARK    2  A    between atoms: C_7  and  N_8
REMARK    3  A    between atoms: N_8  and  C_9
REMARK    4  A    between atoms: C_9  and  C_10
REMARK    5  A    between atoms: C_14  and  N_15
REMARK                            x       y       z     vdW  Elec       q    Type
REMARK                         _______ _______ _______ _____ _____    ______ ____
ROOT
ATOM      1  N   UNL     1      43.744   4.738  10.016  0.00  0.00    +0.000 N 
ATOM      2  H   UNL     1      42.937   5.156   9.564  0.00  0.00    +0.000 HD
ENDROOT
BRANCH   1   6
ATOM      3  C   UNL     1      46.413   2.441   7.710  0.00  0.00    +0.000 A 
ATOM      4  C   UNL     1      45.530   1.802   8.581  0.00  0.00    +0.000 A 
ATOM      5  C   UNL     1      44.608   2.550   9.317  0.00  0.00    +0.000 A 
ATOM      6  C   UNL     1      44.536   3.943   9.203  0.00  0.00    +0.000 A 
ATOM      7  C   UNL     1      45.439   4.570   8.330  0.00  0.00    +0.000 A 
ATOM      8  C   UNL     1      46.370   3.831   7.590  0.00  0.00    +0.000 A 
BRANCH   3  10
ATOM      9  N   UNL     1      48.510   2.372   6.478  0.00  0.00    +0.000 N 
ATOM     10  C   UNL     1      47.426   1.677   6.940  0.00  0.00    +0.000 C 
ATOM     11  O   UNL     1      47.315   0.472   6.748  0.00  0.00    +0.000 OA
ATOM     12  H   UNL     1      49.239   1.825   6.041  0.00  0.00    +0.000 HD
ATOM     13  H   UNL     1      48.747   3.292   6.819  0.00  0.00    +0.000 HD
ENDBRANCH   3  10
ENDBRANCH   1   6
BRANCH   1  14
ATOM     14  C   UNL     1      43.575   4.488  11.439  0.00  0.00    +0.000 C 
BRANCH  14  15
ATOM     15  C   UNL     1      44.866   4.791  12.156  0.00  0.00    +0.000 A 
ATOM     16  C   UNL     1      45.534   3.782  12.859  0.00  0.00    +0.000 A 
ATOM     17  C   UNL     1      46.695   4.076  13.563  0.00  0.00    +0.000 A 
ATOM     18  C   UNL     1      47.199   5.379  13.558  0.00  0.00    +0.000 A 
ATOM     19  C   UNL     1      46.571   6.413  12.848  0.00  0.00    +0.000 A 
ATOM     20  C   UNL     1      45.388   6.092  12.166  0.00  0.00    +0.000 A 
BRANCH  19  21
ATOM     21  N   UNL     1      47.139   7.666  12.771  0.00  0.00    +0.000 N 
ATOM     22  C   UNL     1      46.403   8.882  13.138  0.00  0.00    +0.000 C 
ATOM     23  C   UNL     1      46.766   9.992  12.138  0.00  0.00    +0.000 C 
ATOM     24  O   UNL     1      48.184  10.222  12.094  0.00  0.00    +0.000 OA
ATOM     25  C   UNL     1      48.874   9.022  11.701  0.00  0.00    +0.000 C 
ATOM     26  C   UNL     1      48.594   7.861  12.669  0.00  0.00    +0.000 C 
ENDBRANCH  19  21
ENDBRANCH  14  15
ENDBRANCH   1  14
TORSDOF 5
ENDMDL
MODEL 3
REMARK VINA RESULT:    -7.357      1.166      1.990
REMARK INTER + INTRA:         -10.390
REMARK INTER:                  -9.770
REMARK INTRA:                  -0.619
REMARK UNBOUND:                -0.883
REMARK  Name = 
REMARK  5 active torsions:
REMARK  status: ('A' for Active; 'I' for Inactive)
REMARK    1  A    between atoms: C_2  and  C_4
REMARK    2  A    between atoms: C_7  and  N_8
REMARK    3  A    between atoms: N_8  and  C_9
REMARK    4  A    between atoms: C_9  and  C_10
REMARK    5  A    between atoms: C_14  and  N_15
REMARK                            x       y       z     vdW  Elec       q    Type
REMARK                         _______ _______ _______ _____ _____    ______ ____
ROOT
ATOM      1  N   UNL     1      44.410   4.400  11.034  0.00  0.00    +0.000 N 
ATOM      2  H   UNL     1      44.383   3.783  11.840  0.00  0.00    +0.000 HD
ENDROOT
BRANCH   1   6
ATOM      3  C   UNL     1      46.402   2.852   7.665  0.00  0.00    +0.000 A 
ATOM      4  C   UNL     1      45.810   1.977   8.577  0.00  0.00    +0.000 A 
ATOM      5  C   UNL     1      45.106   2.480   9.674  0.00  0.00    +0.000 A 
ATOM      6  C   UNL     1      44.968   3.856   9.888  0.00  0.00    +0.000 A 
ATOM      7  C   UNL     1      45.579   4.721   8.967  0.00  0.00    +0.000 A 
ATOM      8  C   UNL     1      46.290   4.228   7.866  0.00  0.00    +0.000 A 
BRANCH   3  10
ATOM      9  N   UNL     1      46.988   2.971   5.306  0.00  0.00    +0.000 N 
ATOM     10  C   UNL     1      47.184   2.348   6.508  0.00  0.00    +0.000 C 
ATOM     11  O   UNL     1      47.991   1.433   6.626  0.00  0.00    +0.000 OA
ATOM     12  H   UNL     1      47.594   2.686   4.549  0.00  0.00    +0.000 HD
ATOM     13  H   UNL     1      46.522   3.864   5.230  0.00  0.00    +0.000 HD
ENDBRANCH   3  10
ENDBRANCH   1   6
BRANCH   1  14
ATOM     14  C   UNL     1      44.502   5.814  11.360  0.00  0.00    +0.000 C 
BRANCH  14  15
ATOM     15  C   UNL     1      45.830   6.089  12.019  0.00  0.00    +0.000 A 
ATOM     16  C   UNL     1      46.767   6.918  11.392  0.00  0.00    +0.000 A 
ATOM     17  C   UNL     1      48.011   7.128  11.976  0.00  0.00    +0.000 A 
ATOM     18  C   UNL     1      48.317   6.520  13.195  0.00  0.00    +0.000 A 
ATOM     19  C   UNL     1      47.396   5.701  13.866  0.00  0.00    +0.000 A 
ATOM     20  C   UNL     1      46.159   5.488  13.241  0.00  0.00    +0.000 A 
BRANCH  19  21
ATOM     21  N   UNL     1      47.679   5.194  15.116  0.00  0.00    +0.000 N 
ATOM     22  C   UNL     1      48.361   5.988  16.146  0.00  0.00    +0.000 C 
ATOM     23  C   UNL     1      49.347   5.074  16.892  0.00  0.00    +0.000 C 
ATOM     24  O   UNL     1      48.685   3.929  17.455  0.00  0.00    +0.000 OA
ATOM     25  C   UNL     1      48.053   3.156  16.418  0.00  0.00    +0.000 C 
ATOM     26  C   UNL     1      47.022   3.985  15.637  0.00  0.00    +0.000 C 
ENDBRANCH  19  21
ENDBRANCH  14  15
ENDBRANCH   1  14
TORSDOF 5
ENDMDL
MODEL 4
REMARK VINA RESULT:    -6.713      1.781      7.677
REMARK INTER + INTRA:          -9.558
REMARK INTER:                  -8.899
REMARK INTRA:                  -0.659
REMARK UNBOUND:                -0.883
REMARK  Name = 
REMARK  5 active torsions:
REMARK  status: ('A' for Active; 'I' for Inactive)
REMARK    1  A    between atoms: C_2  and  C_4
REMARK    2  A    between atoms: C_7  and  N_8
REMARK    3  A    between atoms: N_8  and  C_9
REMARK    4  A    between atoms: C_9  and  C_10
REMARK    5  A    between atoms: C_14  and  N_15
REMARK                            x       y       z     vdW  Elec       q    Type
REMARK                         _______ _______ _______ _____ _____    ______ ____
ROOT
ATOM      1  N   UNL     1      46.971   6.174  13.101  0.00  0.00    +0.000 N 
ATOM      2  H   UNL     1      47.487   5.949  12.255  0.00  0.00    +0.000 HD
ENDROOT
BRANCH   1   6
ATOM      3  C   UNL     1      48.344   4.751  16.816  0.00  0.00    +0.000 A 
ATOM      4  C   UNL     1      47.474   3.967  16.058  0.00  0.00    +0.000 A 
ATOM      5  C   UNL     1      47.048   4.408  14.802  0.00  0.00    +0.000 A 
ATOM      6  C   UNL     1      47.478   5.628  14.269  0.00  0.00    +0.000 A 
ATOM      7  C   UNL     1      48.344   6.409  15.051  0.00  0.00    +0.000 A 
ATOM      8  C   UNL     1      48.775   5.979  16.312  0.00  0.00    +0.000 A 
BRANCH   3  10
ATOM      9  N   UNL     1      49.464   3.139  18.255  0.00  0.00    +0.000 N 
ATOM     10  C   UNL     1      48.787   4.325  18.167  0.00  0.00    +0.000 C 
ATOM     11  O   UNL     1      48.585   5.016  19.159  0.00  0.00    +0.000 OA
ATOM     12  H   UNL     1      49.845   2.906  19.162  0.00  0.00    +0.000 HD
ATOM     13  H   UNL     1      49.851   2.677  17.444  0.00  0.00    +0.000 HD
ENDBRANCH   3  10
ENDBRANCH   1   6
BRANCH   1  14
ATOM     14  C   UNL     1      45.552   6.415  12.895  0.00  0.00    +0.000 C 
BRANCH  14  15
ATOM     15  C   UNL     1      44.926   5.198  12.261  0.00  0.00    +0.000 A 
ATOM     16  C   UNL     1      43.885   4.525  12.910  0.00  0.00    +0.000 A 
ATOM     17  C   UNL     1      43.345   3.373  12.350  0.00  0.00    +0.000 A 
ATOM     18  C   UNL     1      43.836   2.898  11.132  0.00  0.00    +0.000 A 
ATOM     19  C   UNL     1      44.863   3.558  10.439  0.00  0.00    +0.000 A 
ATOM     20  C   UNL     1      45.405   4.703  11.041  0.00  0.00    +0.000 A 
BRANCH  19  21
ATOM     21  N   UNL     1      45.262   3.132   9.191  0.00  0.00    +0.000 N 
ATOM     22  C   UNL     1      45.224   1.718   8.798  0.00  0.00    +0.000 C 
ATOM     23  C   UNL     1      46.477   1.410   7.963  0.00  0.00    +0.000 C 
ATOM     24  O   UNL     1      46.579   2.276   6.821  0.00  0.00    +0.000 OA
ATOM     25  C   UNL     1      46.646   3.651   7.240  0.00  0.00    +0.000 C 
ATOM     26  C   UNL     1      45.410   4.058   8.058  0.00  0.00    +0.000 C 
ENDBRANCH  19  21
ENDBRANCH  14  15
ENDBRANCH   1  14
TORSDOF 5
ENDMDL
MODEL 5
REMARK VINA RESULT:    -6.622      3.342      7.720
REMARK INTER + INTRA:          -9.441
REMARK INTER:                  -8.781
REMARK INTRA:                  -0.659
REMARK UNBOUND:                -0.883
REMARK  Name = 
REMARK  5 active torsions:
REMARK  status: ('A' for Active; 'I' for Inactive)
REMARK    1  A    between atoms: C_2  and  C_4
REMARK    2  A    between atoms: C_7  and  N_8
REMARK    3  A    between atoms: N_8  and  C_9
REMARK    4  A    between atoms: C_9  and  C_10
REMARK    5  A    between atoms: C_14  and  N_15
REMARK                            x       y       z     vdW  Elec       q    Type
REMARK                         _______ _______ _______ _____ _____    ______ ____
ROOT
ATOM      1  N   UNL     1      48.143   5.366  16.386  0.00  0.00    +0.000 N 
ATOM      2  H   UNL     1      47.317   5.471  16.967  0.00  0.00    +0.000 HD
ENDROOT
BRANCH   1   6
ATOM      3  C   UNL     1      51.017   2.481  17.452  0.00  0.00    +0.000 A 
ATOM      4  C   UNL     1      51.320   3.837  17.585  0.00  0.00    +0.000 A 
ATOM      5  C   UNL     1      50.358   4.803  17.279  0.00  0.00    +0.000 A 
ATOM      6  C   UNL     1      49.077   4.449  16.841  0.00  0.00    +0.000 A 
ATOM      7  C   UNL     1      48.793   3.081  16.702  0.00  0.00    +0.000 A 
ATOM      8  C   UNL     1      49.750   2.104  17.002  0.00  0.00    +0.000 A 
BRANCH   3  10
ATOM      9  N   UNL     1      51.560   0.208  18.129  0.00  0.00    +0.000 N 
ATOM     10  C   UNL     1      52.028   1.433  17.737  0.00  0.00    +0.000 C 
ATOM     11  O   UNL     1      53.228   1.641  17.602  0.00  0.00    +0.000 OA
ATOM     12  H   UNL     1      52.249  -0.525  18.227  0.00  0.00    +0.000 HD
ATOM     13  H   UNL     1      50.593  -0.062  18.018  0.00  0.00    +0.000 HD
ENDBRANCH   3  10
ENDBRANCH   1   6
BRANCH   1  14
ATOM     14  C   UNL     1      48.509   6.559  15.640  0.00  0.00    +0.000 C 
BRANCH  14  15
ATOM     15  C   UNL     1      47.915   6.485  14.256  0.00  0.00    +0.000 A 
ATOM     16  C   UNL     1      48.483   7.216  13.207  0.00  0.00    +0.000 A 
ATOM     17  C   UNL     1      47.903   7.188  11.945  0.00  0.00    +0.000 A 
ATOM     18  C   UNL     1      46.758   6.418  11.724  0.00  0.00    +0.000 A 
ATOM     19  C   UNL     1      46.172   5.653  12.744  0.00  0.00    +0.000 A 
ATOM     20  C   UNL     1      46.765   5.721  14.013  0.00  0.00    +0.000 A 
BRANCH  19  21
ATOM     21  N   UNL     1      45.106   4.821  12.481  0.00  0.00    +0.000 N 
ATOM     22  C   UNL     1      45.282   3.393  12.189  0.00  0.00    +0.000 C 
ATOM     23  C   UNL     1      44.294   2.997  11.079  0.00  0.00    +0.000 C 
ATOM     24  O   UNL     1      42.938   3.302  11.445  0.00  0.00    +0.000 OA
ATOM     25  C   UNL     1      42.790   4.712  11.695  0.00  0.00    +0.000 C 
ATOM     26  C   UNL     1      43.723   5.191  12.819  0.00  0.00    +0.000 C 
ENDBRANCH  19  21
ENDBRANCH  14  15
ENDBRANCH   1  14
TORSDOF 5
ENDMDL
MODEL 6
REMARK VINA RESULT:    -6.532      2.533      6.935
REMARK INTER + INTRA:          -9.324
REMARK INTER:                  -8.566
REMARK INTRA:                  -0.758
REMARK UNBOUND:                -0.883
REMARK  Name = 
REMARK  5 active torsions:
REMARK  status: ('A' for Active; 'I' for Inactive)
REMARK    1  A    between atoms: C_2  and  C_4
REMARK    2  A    between atoms: C_7  and  N_8
REMARK    3  A    between atoms: N_8  and  C_9
REMARK    4  A    between atoms: C_9  and  C_10
REMARK    5  A    between atoms: C_14  and  N_15
REMARK                            x       y       z     vdW  Elec       q    Type
REMARK                         _______ _______ _______ _____ _____    ______ ____
ROOT
ATOM      1  N   UNL     1      45.994   6.735  13.390  0.00  0.00    +0.000 N 
ATOM      2  H   UNL     1      45.712   6.824  14.362  0.00  0.00    +0.000 HD
ENDROOT
BRANCH   1   6
ATOM      3  C   UNL     1      49.981   7.813  12.577  0.00  0.00    +0.000 A 
ATOM      4  C   UNL     1      49.056   7.761  11.534  0.00  0.00    +0.000 A 
ATOM      5  C   UNL     1      47.719   7.450  11.798  0.00  0.00    +0.000 A 
ATOM      6  C   UNL     1      47.270   7.191  13.098  0.00  0.00    +0.000 A 
ATOM      7  C   UNL     1      48.217   7.236  14.133  0.00  0.00    +0.000 A 
ATOM      8  C   UNL     1      49.559   7.543  13.880  0.00  0.00    +0.000 A 
BRANCH   3  10
ATOM      9  N   UNL     1      51.919   7.740  11.106  0.00  0.00    +0.000 N 
ATOM     10  C   UNL     1      51.413   8.108  12.324  0.00  0.00    +0.000 C 
ATOM     11  O   UNL     1      52.110   8.682  13.153  0.00  0.00    +0.000 OA
ATOM     12  H   UNL     1      52.865   8.032  10.907  0.00  0.00    +0.000 HD
ATOM     13  H   UNL     1      51.324   7.492  10.328  0.00  0.00    +0.000 HD
ENDBRANCH   3  10
ENDBRANCH   1   6
BRANCH   1  14
ATOM     14  C   UNL     1      44.899   6.795  12.437  0.00  0.00    +0.000 C 
BRANCH  14  15
ATOM     15  C   UNL     1      44.556   5.400  11.979  0.00  0.00    +0.000 A 
ATOM     16  C   UNL     1      43.728   4.587  12.762  0.00  0.00    +0.000 A 
ATOM     17  C   UNL     1      43.457   3.284  12.365  0.00  0.00    +0.000 A 
ATOM     18  C   UNL     1      44.003   2.791  11.177  0.00  0.00    +0.000 A 
ATOM     19  C   UNL     1      44.819   3.582  10.354  0.00  0.00    +0.000 A 
ATOM     20  C   UNL     1      45.095   4.886  10.792  0.00  0.00    +0.000 A 
BRANCH  19  21
ATOM     21  N   UNL     1      45.264   3.114   9.137  0.00  0.00    +0.000 N 
ATOM     22  C   UNL     1      45.202   1.691   8.777  0.00  0.00    +0.000 C 
ATOM     23  C   UNL     1      46.484   1.327   8.010  0.00  0.00    +0.000 C 
ATOM     24  O   UNL     1      46.664   2.160   6.853  0.00  0.00    +0.000 OA
ATOM     25  C   UNL     1      46.751   3.544   7.241  0.00  0.00    +0.000 C 
ATOM     26  C   UNL     1      45.491   4.006   7.990  0.00  0.00    +0.000 C 
ENDBRANCH  19  21
ENDBRANCH  14  15
ENDBRANCH   1  14
TORSDOF 5
ENDMDL
MODEL 7
REMARK VINA RESULT:    -6.301      3.892      8.285
REMARK INTER + INTRA:          -9.025
REMARK INTER:                  -8.396
REMARK INTRA:                  -0.629
REMARK UNBOUND:                -0.883
REMARK  Name = 
REMARK  5 active torsions:
REMARK  status: ('A' for Active; 'I' for Inactive)
REMARK    1  A    between atoms: C_2  and  C_4
REMARK    2  A    between atoms: C_7  and  N_8
REMARK    3  A    between atoms: N_8  and  C_9
REMARK    4  A    between atoms: C_9  and  C_10
REMARK    5  A    between atoms: C_14  and  N_15
REMARK                            x       y       z     vdW  Elec       q    Type
REMARK                         _______ _______ _______ _____ _____    ______ ____
ROOT
ATOM      1  N   UNL     1      49.017   4.878  17.079  0.00  0.00    +0.000 N 
ATOM      2  H   UNL     1      49.331   5.783  16.742  0.00  0.00    +0.000 HD
ENDROOT
BRANCH   1   6
ATOM      3  C   UNL     1      52.100   2.099  17.775  0.00  0.00    +0.000 A 
ATOM      4  C   UNL     1      52.334   3.457  17.997  0.00  0.00    +0.000 A 
ATOM      5  C   UNL     1      51.305   4.384  17.814  0.00  0.00    +0.000 A 
ATOM      6  C   UNL     1      50.023   3.987  17.415  0.00  0.00    +0.000 A 
ATOM      7  C   UNL     1      49.809   2.619  17.185  0.00  0.00    +0.000 A 
ATOM      8  C   UNL     1      50.834   1.682  17.361  0.00  0.00    +0.000 A 
BRANCH   3  10
ATOM      9  N   UNL     1      52.803  -0.192  18.200  0.00  0.00    +0.000 N 
ATOM     10  C   UNL     1      53.182   1.095  17.928  0.00  0.00    +0.000 C 
ATOM     11  O   UNL     1      54.362   1.393  17.790  0.00  0.00    +0.000 OA
ATOM     12  H   UNL     1      53.538  -0.885  18.206  0.00  0.00    +0.000 HD
ATOM     13  H   UNL     1      51.851  -0.511  18.081  0.00  0.00    +0.000 HD
ENDBRANCH   3  10
ENDBRANCH   1   6
BRANCH   1  14
ATOM     14  C   UNL     1      47.731   4.452  16.551  0.00  0.00    +0.000 C 
BRANCH  14  15
ATOM     15  C   UNL     1      47.516   5.075  15.195  0.00  0.00    +0.000 A 
ATOM     16  C   UNL     1      48.310   6.152  14.783  0.00  0.00    +0.000 A 
ATOM     17  C   UNL     1      48.075   6.759  13.555  0.00  0.00    +0.000 A 
ATOM     18  C   UNL     1      47.053   6.284  12.729  0.00  0.00    +0.000 A 
ATOM     19  C   UNL     1      46.251   5.193  13.097  0.00  0.00    +0.000 A 
ATOM     20  C   UNL     1      46.495   4.616  14.351  0.00  0.00    +0.000 A 
BRANCH  19  21
ATOM     21  N   UNL     1      45.318   4.675  12.226  0.00  0.00    +0.000 N 
ATOM     22  C   UNL     1      44.794   5.447  11.091  0.00  0.00    +0.000 C 
ATOM     23  C   UNL     1      43.292   5.153  10.954  0.00  0.00    +0.000 C 
ATOM     24  O   UNL     1      43.039   3.746  10.802  0.00  0.00    +0.000 OA
ATOM     25  C   UNL     1      43.535   3.022  11.943  0.00  0.00    +0.000 C 
ATOM     26  C   UNL     1      45.045   3.232  12.138  0.00  0.00    +0.000 C 
ENDBRANCH  19  21
ENDBRANCH  14  15
ENDBRANCH   1  14
TORSDOF 5
ENDMDL
MODEL 8
REMARK VINA RESULT:    -5.854      2.800      4.640
REMARK INTER + INTRA:          -8.448
REMARK INTER:                  -7.810
REMARK INTRA:                  -0.638
REMARK UNBOUND:                -0.883
REMARK  Name = 
REMARK  5 active torsions:
REMARK  status: ('A' for Active; 'I' for Inactive)
REMARK    1  A    between atoms: C_2  and  C_4
REMARK    2  A    between atoms: C_7  and  N_8
REMARK    3  A    between atoms: N_8  and  C_9
REMARK    4  A    between atoms: C_9  and  C_10
REMARK    5  A    between atoms: C_14  and  N_15
REMARK                            x       y       z     vdW  Elec       q    Type
REMARK                         _______ _______ _______ _____ _____    ______ ____
ROOT
ATOM      1  N   UNL     1      46.505   7.480  13.344  0.00  0.00    +0.000 N 
ATOM      2  H   UNL     1      46.299   7.510  14.338  0.00  0.00    +0.000 HD
ENDROOT
BRANCH   1   6
ATOM      3  C   UNL     1      44.812   4.105  11.483  0.00  0.00    +0.000 A 
ATOM      4  C   UNL     1      45.084   5.244  10.725  0.00  0.00    +0.000 A 
ATOM      5  C   UNL     1      45.689   6.354  11.322  0.00  0.00    +0.000 A 
ATOM      6  C   UNL     1      46.042   6.357  12.676  0.00  0.00    +0.000 A 
ATOM      7  C   UNL     1      45.750   5.207  13.425  0.00  0.00    +0.000 A 
ATOM      8  C   UNL     1      45.141   4.090  12.839  0.00  0.00    +0.000 A 
BRANCH   3  10
ATOM      9  N   UNL     1      44.791   2.290   9.861  0.00  0.00    +0.000 N 
ATOM     10  C   UNL     1      44.141   2.924  10.885  0.00  0.00    +0.000 C 
ATOM     11  O   UNL     1      43.066   2.512  11.306  0.00  0.00    +0.000 OA
ATOM     12  H   UNL     1      44.374   1.433   9.527  0.00  0.00    +0.000 HD
ATOM     13  H   UNL     1      45.767   2.454   9.658  0.00  0.00    +0.000 HD
ENDBRANCH   3  10
ENDBRANCH   1   6
BRANCH   1  14
ATOM     14  C   UNL     1      47.718   8.181  12.958  0.00  0.00    +0.000 C 
BRANCH  14  15
ATOM     15  C   UNL     1      48.808   7.879  13.954  0.00  0.00    +0.000 A 
ATOM     16  C   UNL     1      50.052   8.512  13.848  0.00  0.00    +0.000 A 
ATOM     17  C   UNL     1      51.073   8.193  14.735  0.00  0.00    +0.000 A 
ATOM     18  C   UNL     1      50.850   7.248  15.740  0.00  0.00    +0.000 A 
ATOM     19  C   UNL     1      49.610   6.609  15.893  0.00  0.00    +0.000 A 
ATOM     20  C   UNL     1      48.607   6.933  14.968  0.00  0.00    +0.000 A 
BRANCH  19  21
ATOM     21  N   UNL     1      49.378   5.758  16.951  0.00  0.00    +0.000 N 
ATOM     22  C   UNL     1      50.392   4.808  17.427  0.00  0.00    +0.000 C 
ATOM     23  C   UNL     1      49.691   3.491  17.796  0.00  0.00    +0.000 C 
ATOM     24  O   UNL     1      48.655   3.697  18.771  0.00  0.00    +0.000 OA
ATOM     25  C   UNL     1      47.662   4.607  18.263  0.00  0.00    +0.000 C 
ATOM     26  C   UNL     1      48.273   5.969  17.898  0.00  0.00    +0.000 C 
ENDBRANCH  19  21
ENDBRANCH  14  15
ENDBRANCH   1  14
TORSDOF 5
ENDMDL
