MODEL 1
REMARK VINA RESULT:    -7.172      0.000      0.000
REMARK INTER + INTRA:          -9.732
REMARK INTER:                  -9.058
REMARK INTRA:                  -0.674
REMARK UNBOUND:                -0.674
REMARK  Name = 
REMARK  5 active torsions:
REMARK  status: ('A' for Active; 'I' for Inactive)
REMARK    1  A    between atoms: N_1  and  C_2
REMARK    2  A    between atoms: C_2  and  C_3
REMARK    3  A    between atoms: C_6  and  C_7
REMARK    4  A    between atoms: C_7  and  N_8
REMARK    5  A    between atoms: C_13  and  C_14
REMARK                            x       y       z     vdW  Elec       q    Type
REMARK                         _______ _______ _______ _____ _____    ______ ____
ROOT
ATOM      1  N   UNL     1      44.564   5.066  10.538  0.00  0.00    +0.000 N 
ATOM      2  C   UNL     1      43.802   4.111  11.174  0.00  0.00    +0.000 A 
ATOM      3  C   UNL     1      44.060   2.898  10.580  0.00  0.00    +0.000 A 
ATOM      4  C   UNL     1      44.949   3.131   9.502  0.00  0.00    +0.000 A 
ATOM      5  C   UNL     1      45.541   2.315   8.523  0.00  0.00    +0.000 A 
ATOM      6  C   UNL     1      46.354   2.925   7.566  0.00  0.00    +0.000 A 
ATOM      7  C   UNL     1      46.560   4.303   7.660  0.00  0.00    +0.000 A 
ATOM      8  N   UNL     1      46.036   5.134   8.604  0.00  0.00    +0.000 NA
ATOM      9  C   UNL     1      45.237   4.495   9.484  0.00  0.00    +0.000 A 
ENDROOT
BRANCH   6  10
ATOM     10  C   UNL     1      46.986   2.179   6.451  0.00  0.00    +0.000 C 
ATOM     11  N   UNL     1      47.393   2.869   5.345  0.00  0.00    +0.000 N 
ATOM     12  O   UNL     1      47.155   0.965   6.515  0.00  0.00    +0.000 OA
ATOM     13  H   UNL     1      47.313   3.865   5.215  0.00  0.00    +0.000 HD
ATOM     14  H   UNL     1      47.841   2.338   4.610  0.00  0.00    +0.000 HD
ENDBRANCH   6  10
BRANCH   1  15
ATOM     15  C   UNL     1      44.649   6.457  10.964  0.00  0.00    +0.000 C 
BRANCH  15  19
ATOM     16  C   UNL     1      47.653   8.448  12.113  0.00  0.00    +0.000 C 
ATOM     17  C   UNL     1      47.682   6.978  11.654  0.00  0.00    +0.000 C 
ATOM     18  C   UNL     1      46.715   6.101  12.445  0.00  0.00    +0.000 C 
ATOM     19  C   UNL     1      45.271   6.622  12.372  0.00  0.00    +0.000 C 
ATOM     20  C   UNL     1      45.220   8.081  12.852  0.00  0.00    +0.000 C 
ATOM     21  C   UNL     1      46.210   8.987  12.122  0.00  0.00    +0.000 C 
BRANCH  16  22
ATOM     22  C   UNL     1      48.339   8.653  13.480  0.00  0.00    +0.000 C 
BRANCH  22  23
ATOM     23  N   UNL     1      48.088   9.994  14.002  0.00  0.00    +0.000 NA
ATOM     24  H   UNL     1      48.022  10.659  13.234  0.00  0.00    +0.000 HD
ATOM     25  H   UNL     1      48.874  10.291  14.579  0.00  0.00    +0.000 HD
ENDBRANCH  22  23
ENDBRANCH  16  22
ENDBRANCH  15  19
ENDBRANCH   1  15
TORSDOF 5
ENDMDL
MODEL 2
REMARK VINA RESULT:    -5.915      4.913      8.275
REMARK INTER + INTRA:          -8.144
REMARK INTER:                  -7.650
REMARK INTRA:                  -0.494
REMARK UNBOUND:                -0.674
REMARK  Name = 
REMARK  5 active torsions:
REMARK  status: ('A' for Active; 'I' for Inactive)
REMARK    1  A    between atoms: N_1  and  C_2
REMARK    2  A    between atoms: C_2  and  C_3
REMARK    3  A    between atoms: C_6  and  C_7
REMARK    4  A    between atoms: C_7  and  N_8
REMARK    5  A    between atoms: C_13  and  C_14
REMARK                            x       y       z     vdW  Elec       q    Type
REMARK                         _______ _______ _______ _____ _____    ______ ____
ROOT
ATOM      1  N   UNL     1      48.081   6.638  14.232  0.00  0.00    +0.000 N 
ATOM      2  C   UNL     1      48.520   7.932  14.401  0.00  0.00    +0.000 A 
ATOM      3  C   UNL     1      49.092   8.028  15.648  0.00  0.00    +0.000 A 
ATOM      4  C   UNL     1      48.929   6.775  16.289  0.00  0.00    +0.000 A 
ATOM      5  C   UNL     1      49.265   6.269  17.556  0.00  0.00    +0.000 A 
ATOM      6  C   UNL     1      48.894   4.956  17.857  0.00  0.00    +0.000 A 
ATOM      7  C   UNL     1      48.246   4.213  16.868  0.00  0.00    +0.000 A 
ATOM      8  N   UNL     1      47.924   4.645  15.617  0.00  0.00    +0.000 NA
ATOM      9  C   UNL     1      48.280   5.926  15.393  0.00  0.00    +0.000 A 
ENDROOT
BRANCH   6  10
ATOM     10  C   UNL     1      49.141   4.331  19.178  0.00  0.00    +0.000 C 
ATOM     11  N   UNL     1      48.403   3.240  19.538  0.00  0.00    +0.000 N 
ATOM     12  O   UNL     1      49.997   4.773  19.938  0.00  0.00    +0.000 OA
ATOM     13  H   UNL     1      47.696   2.800  18.972  0.00  0.00    +0.000 HD
ATOM     14  H   UNL     1      48.609   2.820  20.436  0.00  0.00    +0.000 HD
ENDBRANCH   6  10
BRANCH   1  15
ATOM     15  C   UNL     1      47.524   6.122  12.989  0.00  0.00    +0.000 C 
BRANCH  15  19
ATOM     16  C   UNL     1      45.006   4.228  10.895  0.00  0.00    +0.000 C 
ATOM     17  C   UNL     1      45.676   5.555  10.497  0.00  0.00    +0.000 C 
ATOM     18  C   UNL     1      45.470   6.649  11.541  0.00  0.00    +0.000 C 
ATOM     19  C   UNL     1      45.980   6.226  12.928  0.00  0.00    +0.000 C 
ATOM     20  C   UNL     1      45.301   4.915  13.354  0.00  0.00    +0.000 C 
ATOM     21  C   UNL     1      45.437   3.804  12.313  0.00  0.00    +0.000 C 
BRANCH  16  22
ATOM     22  C   UNL     1      43.469   4.279  10.767  0.00  0.00    +0.000 C 
BRANCH  22  23
ATOM     23  N   UNL     1      42.844   3.144  11.440  0.00  0.00    +0.000 NA
ATOM     24  H   UNL     1      43.135   3.114  12.415  0.00  0.00    +0.000 HD
ATOM     25  H   UNL     1      43.162   2.274  11.013  0.00  0.00    +0.000 HD
ENDBRANCH  22  23
ENDBRANCH  16  22
ENDBRANCH  15  19
ENDBRANCH   1  15
TORSDOF 5
ENDMDL
MODEL 3
REMARK VINA RESULT:    -5.881      4.694      6.184
REMARK INTER + INTRA:          -8.102
REMARK INTER:                  -7.663
REMARK INTRA:                  -0.439
REMARK UNBOUND:                -0.674
REMARK  Name = 
REMARK  5 active torsions:
REMARK  status: ('A' for Active; 'I' for Inactive)
REMARK    1  A    between atoms: N_1  and  C_2
REMARK    2  A    between atoms: C_2  and  C_3
REMARK    3  A    between atoms: C_6  and  C_7
REMARK    4  A    between atoms: C_7  and  N_8
REMARK    5  A    between atoms: C_13  and  C_14
REMARK                            x       y       z     vdW  Elec       q    Type
REMARK                         _______ _______ _______ _____ _____    ______ ____
ROOT
ATOM      1  N   UNL     1      47.473   5.385  14.582  0.00  0.00    +0.000 N 
ATOM      2  C   UNL     1      48.014   6.579  14.158  0.00  0.00    +0.000 A 
ATOM      3  C   UNL     1      47.457   6.888  12.939  0.00  0.00    +0.000 A 
ATOM      4  C   UNL     1      46.608   5.815  12.573  0.00  0.00    +0.000 A 
ATOM      5  C   UNL     1      45.805   5.535  11.454  0.00  0.00    +0.000 A 
ATOM      6  C   UNL     1      45.122   4.317  11.426  0.00  0.00    +0.000 A 
ATOM      7  C   UNL     1      45.247   3.468  12.527  0.00  0.00    +0.000 A 
ATOM      8  N   UNL     1      45.986   3.703  13.646  0.00  0.00    +0.000 NA
ATOM      9  C   UNL     1      46.645   4.879  13.606  0.00  0.00    +0.000 A 
ENDROOT
BRANCH   6  10
ATOM     10  C   UNL     1      44.292   3.885  10.276  0.00  0.00    +0.000 C 
ATOM     11  N   UNL     1      44.183   4.713   9.195  0.00  0.00    +0.000 N 
ATOM     12  O   UNL     1      43.716   2.801  10.282  0.00  0.00    +0.000 OA
ATOM     13  H   UNL     1      44.634   5.607   9.096  0.00  0.00    +0.000 HD
ATOM     14  H   UNL     1      43.628   4.382   8.416  0.00  0.00    +0.000 HD
ENDBRANCH   6  10
BRANCH   1  15
ATOM     15  C   UNL     1      47.731   4.791  15.886  0.00  0.00    +0.000 C 
BRANCH  15  19
ATOM     16  C   UNL     1      48.585   4.672  19.570  0.00  0.00    +0.000 C 
ATOM     17  C   UNL     1      47.576   5.637  18.921  0.00  0.00    +0.000 C 
ATOM     18  C   UNL     1      48.194   6.452  17.788  0.00  0.00    +0.000 C 
ATOM     19  C   UNL     1      48.805   5.556  16.698  0.00  0.00    +0.000 C 
ATOM     20  C   UNL     1      49.834   4.604  17.325  0.00  0.00    +0.000 C 
ATOM     21  C   UNL     1      49.273   3.803  18.500  0.00  0.00    +0.000 C 
BRANCH  16  22
ATOM     22  C   UNL     1      49.620   5.403  20.450  0.00  0.00    +0.000 C 
BRANCH  22  23
ATOM     23  N   UNL     1      50.694   4.504  20.862  0.00  0.00    +0.000 NA
ATOM     24  H   UNL     1      50.306   3.608  21.148  0.00  0.00    +0.000 HD
ATOM     25  H   UNL     1      51.171   4.890  21.677  0.00  0.00    +0.000 HD
ENDBRANCH  22  23
ENDBRANCH  16  22
ENDBRANCH  15  19
ENDBRANCH   1  15
TORSDOF 5
ENDMDL
MODEL 4
REMARK VINA RESULT:    -5.266      3.030      4.567
REMARK INTER + INTRA:          -7.325
REMARK INTER:                  -6.805
REMARK INTRA:                  -0.520
REMARK UNBOUND:                -0.674
REMARK  Name = 
REMARK  5 active torsions:
REMARK  status: ('A' for Active; 'I' for Inactive)
REMARK    1  A    between atoms: N_1  and  C_2
REMARK    2  A    between atoms: C_2  and  C_3
REMARK    3  A    between atoms: C_6  and  C_7
REMARK    4  A    between atoms: C_7  and  N_8
REMARK    5  A    between atoms: C_13  and  C_14
REMARK                            x       y       z     vdW  Elec       q    Type
REMARK                         _______ _______ _______ _____ _____    ______ ____
ROOT
ATOM      1  N   UNL     1      47.115   6.758  13.370  0.00  0.00    +0.000 N 
ATOM      2  C   UNL     1      47.633   6.107  14.467  0.00  0.00    +0.000 A 
ATOM      3  C   UNL     1      47.230   4.792  14.410  0.00  0.00    +0.000 A 
ATOM      4  C   UNL     1      46.381   4.655  13.284  0.00  0.00    +0.000 A 
ATOM      5  C   UNL     1      45.651   3.591  12.729  0.00  0.00    +0.000 A 
ATOM      6  C   UNL     1      44.866   3.851  11.604  0.00  0.00    +0.000 A 
ATOM      7  C   UNL     1      44.883   5.144  11.075  0.00  0.00    +0.000 A 
ATOM      8  N   UNL     1      45.593   6.202  11.556  0.00  0.00    +0.000 NA
ATOM      9  C   UNL     1      46.309   5.899  12.658  0.00  0.00    +0.000 A 
ENDROOT
BRANCH   6  10
ATOM     10  C   UNL     1      44.008   2.826  10.963  0.00  0.00    +0.000 C 
ATOM     11  N   UNL     1      44.443   2.229   9.814  0.00  0.00    +0.000 N 
ATOM     12  O   UNL     1      42.930   2.505  11.453  0.00  0.00    +0.000 OA
ATOM     13  H   UNL     1      45.319   2.415   9.354  0.00  0.00    +0.000 HD
ATOM     14  H   UNL     1      43.847   1.516   9.412  0.00  0.00    +0.000 HD
ENDBRANCH   6  10
BRANCH   1  15
ATOM     15  C   UNL     1      47.421   8.139  13.023  0.00  0.00    +0.000 C 
BRANCH  15  19
ATOM     16  C   UNL     1      50.887   9.632  12.750  0.00  0.00    +0.000 C 
ATOM     17  C   UNL     1      49.569  10.391  12.510  0.00  0.00    +0.000 C 
ATOM     18  C   UNL     1      48.695   9.722  11.453  0.00  0.00    +0.000 C 
ATOM     19  C   UNL     1      48.374   8.261  11.809  0.00  0.00    +0.000 C 
ATOM     20  C   UNL     1      49.680   7.481  12.026  0.00  0.00    +0.000 C 
ATOM     21  C   UNL     1      50.612   8.144  13.040  0.00  0.00    +0.000 C 
BRANCH  16  22
ATOM     22  C   UNL     1      51.888   9.802  11.588  0.00  0.00    +0.000 C 
BRANCH  22  23
ATOM     23  N   UNL     1      53.021   8.893  11.729  0.00  0.00    +0.000 NA
ATOM     24  H   UNL     1      53.110   8.316  10.895  0.00  0.00    +0.000 HD
ATOM     25  H   UNL     1      52.856   8.256  12.508  0.00  0.00    +0.000 HD
ENDBRANCH  22  23
ENDBRANCH  16  22
ENDBRANCH  15  19
ENDBRANCH   1  15
TORSDOF 5
ENDMDL
MODEL 5
REMARK VINA RESULT:    -5.171      3.792      5.781
REMARK INTER + INTRA:          -7.205
REMARK INTER:                  -6.757
REMARK INTRA:                  -0.448
REMARK UNBOUND:                -0.674
REMARK  Name = 
REMARK  5 active torsions:
REMARK  status: ('A' for Active; 'I' for Inactive)
REMARK    1  A    between atoms: N_1  and  C_2
REMARK    2  A    between atoms: C_2  and  C_3
REMARK    3  A    between atoms: C_6  and  C_7
REMARK    4  A    between atoms: C_7  and  N_8
REMARK    5  A    between atoms: C_13  and  C_14
REMARK                            x       y       z     vdW  Elec       q    Type
REMARK                         _______ _______ _______ _____ _____    ______ ____
ROOT
ATOM      1  N   UNL     1      47.913   6.448  13.779  0.00  0.00    +0.000 N 
ATOM      2  C   UNL     1      48.513   7.356  12.934  0.00  0.00    +0.000 A 
ATOM      3  C   UNL     1      47.792   7.386  11.763  0.00  0.00    +0.000 A 
ATOM      4  C   UNL     1      46.766   6.414  11.868  0.00  0.00    +0.000 A 
ATOM      5  C   UNL     1      45.751   5.962  11.009  0.00  0.00    +0.000 A 
ATOM      6  C   UNL     1      44.930   4.924  11.455  0.00  0.00    +0.000 A 
ATOM      7  C   UNL     1      45.142   4.424  12.742  0.00  0.00    +0.000 A 
ATOM      8  N   UNL     1      46.090   4.846  13.624  0.00  0.00    +0.000 NA
ATOM      9  C   UNL     1      46.871   5.829  13.129  0.00  0.00    +0.000 A 
ENDROOT
BRANCH   6  10
ATOM     10  C   UNL     1      43.863   4.324  10.619  0.00  0.00    +0.000 C 
ATOM     11  N   UNL     1      43.774   4.686   9.305  0.00  0.00    +0.000 N 
ATOM     12  O   UNL     1      43.073   3.509  11.087  0.00  0.00    +0.000 OA
ATOM     13  H   UNL     1      44.388   5.330   8.834  0.00  0.00    +0.000 HD
ATOM     14  H   UNL     1      43.050   4.243   8.753  0.00  0.00    +0.000 HD
ENDBRANCH   6  10
BRANCH   1  15
ATOM     15  C   UNL     1      48.323   6.225  15.159  0.00  0.00    +0.000 C 
BRANCH  15  19
ATOM     16  C   UNL     1      50.221   6.508  18.419  0.00  0.00    +0.000 C 
ATOM     17  C   UNL     1      48.762   6.946  18.198  0.00  0.00    +0.000 C 
ATOM     18  C   UNL     1      48.619   7.939  17.047  0.00  0.00    +0.000 C 
ATOM     19  C   UNL     1      49.181   7.381  15.730  0.00  0.00    +0.000 C 
ATOM     20  C   UNL     1      50.646   6.962  15.926  0.00  0.00    +0.000 C 
ATOM     21  C   UNL     1      50.845   6.007  17.102  0.00  0.00    +0.000 C 
BRANCH  16  22
ATOM     22  C   UNL     1      51.081   7.617  19.062  0.00  0.00    +0.000 C 
BRANCH  22  23
ATOM     23  N   UNL     1      52.499   7.272  19.029  0.00  0.00    +0.000 NA
ATOM     24  H   UNL     1      52.773   6.846  19.912  0.00  0.00    +0.000 HD
ATOM     25  H   UNL     1      53.056   8.121  18.929  0.00  0.00    +0.000 HD
ENDBRANCH  22  23
ENDBRANCH  16  22
ENDBRANCH  15  19
ENDBRANCH   1  15
TORSDOF 5
ENDMDL
MODEL 6
REMARK VINA RESULT:    -4.889      2.522      3.234
REMARK INTER + INTRA:          -6.849
REMARK INTER:                  -9.133
REMARK INTRA:                   2.284
REMARK UNBOUND:                -0.674
REMARK  Name = 
REMARK  5 active torsions:
REMARK  status: ('A' for Active; 'I' for Inactive)
REMARK    1  A    between atoms: N_1  and  C_2
REMARK    2  A    between atoms: C_2  and  C_3
REMARK    3  A    between atoms: C_6  and  C_7
REMARK    4  A    between atoms: C_7  and  N_8
REMARK    5  A    between atoms: C_13  and  C_14
REMARK                            x       y       z     vdW  Elec       q    Type
REMARK                         _______ _______ _______ _____ _____    ______ ____
ROOT
ATOM      1  N   UNL     1      44.265   4.732  10.173  0.00  0.00    +0.000 N 
ATOM      2  C   UNL     1      45.020   5.858   9.932  0.00  0.00    +0.000 A 
ATOM      3  C   UNL     1      46.006   5.524   9.032  0.00  0.00    +0.000 A 
ATOM      4  C   UNL     1      45.896   4.135   8.775  0.00  0.00    +0.000 A 
ATOM      5  C   UNL     1      46.617   3.222   7.988  0.00  0.00    +0.000 A 
ATOM      6  C   UNL     1      46.229   1.881   8.019  0.00  0.00    +0.000 A 
ATOM      7  C   UNL     1      45.125   1.534   8.800  0.00  0.00    +0.000 A 
ATOM      8  N   UNL     1      44.375   2.382   9.556  0.00  0.00    +0.000 NA
ATOM      9  C   UNL     1      44.812   3.657   9.510  0.00  0.00    +0.000 A 
ENDROOT
BRANCH   6  10
ATOM     10  C   UNL     1      46.947   0.817   7.277  0.00  0.00    +0.000 C 
ATOM     11  N   UNL     1      46.700  -0.488   7.596  0.00  0.00    +0.000 N 
ATOM     12  O   UNL     1      47.744   1.092   6.386  0.00  0.00    +0.000 OA
ATOM     13  H   UNL     1      46.051  -0.806   8.297  0.00  0.00    +0.000 HD
ATOM     14  H   UNL     1      47.188  -1.194   7.058  0.00  0.00    +0.000 HD
ENDBRANCH   6  10
BRANCH   1  15
ATOM     15  C   UNL     1      43.055   4.720  10.985  0.00  0.00    +0.000 C 
BRANCH  15  19
ATOM     16  C   UNL     1      46.323   4.416  12.866  0.00  0.00    +0.000 C 
ATOM     17  C   UNL     1      45.416   3.239  12.462  0.00  0.00    +0.000 C 
ATOM     18  C   UNL     1      43.989   3.400  12.979  0.00  0.00    +0.000 C 
ATOM     19  C   UNL     1      43.347   4.714  12.505  0.00  0.00    +0.000 C 
ATOM     20  C   UNL     1      44.228   5.902  12.923  0.00  0.00    +0.000 C 
ATOM     21  C   UNL     1      45.681   5.759  12.471  0.00  0.00    +0.000 C 
BRANCH  16  22
ATOM     22  C   UNL     1      46.695   4.390  14.363  0.00  0.00    +0.000 C 
BRANCH  22  23
ATOM     23  N   UNL     1      47.502   3.217  14.687  0.00  0.00    +0.000 NA
ATOM     24  H   UNL     1      48.370   3.505  15.133  0.00  0.00    +0.000 HD
ATOM     25  H   UNL     1      47.761   2.730  13.829  0.00  0.00    +0.000 HD
ENDBRANCH  22  23
ENDBRANCH  16  22
ENDBRANCH  15  19
ENDBRANCH   1  15
TORSDOF 5
ENDMDL
MODEL 7
REMARK VINA RESULT:    -4.631      4.903      6.971
REMARK INTER + INTRA:          -6.523
REMARK INTER:                  -6.015
REMARK INTRA:                  -0.509
REMARK UNBOUND:                -0.674
REMARK  Name = 
REMARK  5 active torsions:
REMARK  status: ('A' for Active; 'I' for Inactive)
REMARK    1  A    between atoms: N_1  and  C_2
REMARK    2  A    between atoms: C_2  and  C_3
REMARK    3  A    between atoms: C_6  and  C_7
REMARK    4  A    between atoms: C_7  and  N_8
REMARK    5  A    between atoms: C_13  and  C_14
REMARK                            x       y       z     vdW  Elec       q    Type
REMARK                         _______ _______ _______ _____ _____    ______ ____
ROOT
ATOM      1  N   UNL     1      47.747   7.014  13.290  0.00  0.00    +0.000 N 
ATOM      2  C   UNL     1      46.875   6.440  12.392  0.00  0.00    +0.000 A 
ATOM      3  C   UNL     1      46.394   5.278  12.950  0.00  0.00    +0.000 A 
ATOM      4  C   UNL     1      47.048   5.099  14.194  0.00  0.00    +0.000 A 
ATOM      5  C   UNL     1      47.008   4.111  15.192  0.00  0.00    +0.000 A 
ATOM      6  C   UNL     1      47.854   4.257  16.293  0.00  0.00    +0.000 A 
ATOM      7  C   UNL     1      48.662   5.394  16.355  0.00  0.00    +0.000 A 
ATOM      8  N   UNL     1      48.718   6.394  15.432  0.00  0.00    +0.000 NA
ATOM      9  C   UNL     1      47.902   6.186  14.379  0.00  0.00    +0.000 A 
ENDROOT
BRANCH   6  10
ATOM     10  C   UNL     1      47.943   3.253  17.380  0.00  0.00    +0.000 C 
ATOM     11  N   UNL     1      46.798   2.644  17.809  0.00  0.00    +0.000 N 
ATOM     12  O   UNL     1      49.022   2.961  17.887  0.00  0.00    +0.000 OA
ATOM     13  H   UNL     1      45.876   2.807  17.439  0.00  0.00    +0.000 HD
ATOM     14  H   UNL     1      46.892   1.947  18.536  0.00  0.00    +0.000 HD
ENDBRANCH   6  10
BRANCH   1  15
ATOM     15  C   UNL     1      48.370   8.317  13.102  0.00  0.00    +0.000 C 
BRANCH  15  19
ATOM     16  C   UNL     1      51.519   9.958  11.797  0.00  0.00    +0.000 C 
ATOM     17  C   UNL     1      50.185  10.679  12.065  0.00  0.00    +0.000 C 
ATOM     18  C   UNL     1      49.018  10.042  11.315  0.00  0.00    +0.000 C 
ATOM     19  C   UNL     1      48.859   8.551  11.652  0.00  0.00    +0.000 C 
ATOM     20  C   UNL     1      50.175   7.810  11.366  0.00  0.00    +0.000 C 
ATOM     21  C   UNL     1      51.382   8.445  12.056  0.00  0.00    +0.000 C 
BRANCH  16  22
ATOM     22  C   UNL     1      52.070  10.238  10.384  0.00  0.00    +0.000 C 
BRANCH  22  23
ATOM     23  N   UNL     1      53.363   9.590  10.181  0.00  0.00    +0.000 NA
ATOM     24  H   UNL     1      53.259   8.797   9.552  0.00  0.00    +0.000 HD
ATOM     25  H   UNL     1      53.703   9.218  11.068  0.00  0.00    +0.000 HD
ENDBRANCH  22  23
ENDBRANCH  16  22
ENDBRANCH  15  19
ENDBRANCH   1  15
TORSDOF 5
ENDMDL
MODEL 8
REMARK VINA RESULT:    -4.279      4.059      6.036
REMARK INTER + INTRA:          -6.079
REMARK INTER:                  -5.615
REMARK INTRA:                  -0.464
REMARK UNBOUND:                -0.674
REMARK  Name = 
REMARK  5 active torsions:
REMARK  status: ('A' for Active; 'I' for Inactive)
REMARK    1  A    between atoms: N_1  and  C_2
REMARK    2  A    between atoms: C_2  and  C_3
REMARK    3  A    between atoms: C_6  and  C_7
REMARK    4  A    between atoms: C_7  and  N_8
REMARK    5  A    between atoms: C_13  and  C_14
REMARK                            x       y       z     vdW  Elec       q    Type
REMARK                         _______ _______ _______ _____ _____    ______ ____
ROOT
ATOM      1  N   UNL     1      48.318   8.262  13.693  0.00  0.00    +0.000 N 
ATOM      2  C   UNL     1      49.104   7.794  14.723  0.00  0.00    +0.000 A 
ATOM      3  C   UNL     1      48.710   6.507  15.007  0.00  0.00    +0.000 A 
ATOM      4  C   UNL     1      47.601   6.208  14.177  0.00  0.00    +0.000 A 
ATOM      5  C   UNL     1      46.761   5.092  14.025  0.00  0.00    +0.000 A 
ATOM      6  C   UNL     1      45.712   5.182  13.108  0.00  0.00    +0.000 A 
ATOM      7  C   UNL     1      45.584   6.359  12.369  0.00  0.00    +0.000 A 
ATOM      8  N   UNL     1      46.386   7.456  12.455  0.00  0.00    +0.000 NA
ATOM      9  C   UNL     1      47.363   7.324  13.376  0.00  0.00    +0.000 A 
ENDROOT
BRANCH   6  10
ATOM     10  C   UNL     1      44.726   4.094  12.901  0.00  0.00    +0.000 C 
ATOM     11  N   UNL     1      45.181   2.844  12.587  0.00  0.00    +0.000 N 
ATOM     12  O   UNL     1      43.522   4.299  13.016  0.00  0.00    +0.000 OA
ATOM     13  H   UNL     1      46.148   2.582  12.491  0.00  0.00    +0.000 HD
ATOM     14  H   UNL     1      44.487   2.117  12.473  0.00  0.00    +0.000 HD
ENDBRANCH   6  10
BRANCH   1  15
ATOM     15  C   UNL     1      48.516   9.548  13.037  0.00  0.00    +0.000 C 
BRANCH  15  19
ATOM     16  C   UNL     1      51.809  10.289  11.329  0.00  0.00    +0.000 C 
ATOM     17  C   UNL     1      50.649  11.287  11.497  0.00  0.00    +0.000 C 
ATOM     18  C   UNL     1      49.336  10.757  10.926  0.00  0.00    +0.000 C 
ATOM     19  C   UNL     1      48.935   9.412  11.553  0.00  0.00    +0.000 C 
ATOM     20  C   UNL     1      50.072   8.395  11.371  0.00  0.00    +0.000 C 
ATOM     21  C   UNL     1      51.420   8.904  11.882  0.00  0.00    +0.000 C 
BRANCH  16  22
ATOM     22  C   UNL     1      52.300  10.193   9.869  0.00  0.00    +0.000 C 
BRANCH  22  23
ATOM     23  N   UNL     1      52.560  11.516   9.311  0.00  0.00    +0.000 NA
ATOM     24  H   UNL     1      53.185  12.035   9.924  0.00  0.00    +0.000 HD
ATOM     25  H   UNL     1      51.690  12.046   9.262  0.00  0.00    +0.000 HD
ENDBRANCH  22  23
ENDBRANCH  16  22
ENDBRANCH  15  19
ENDBRANCH   1  15
TORSDOF 5
ENDMDL
MODEL 9
REMARK VINA RESULT:    -4.261      5.240      7.424
REMARK INTER + INTRA:          -6.055
REMARK INTER:                  -5.440
REMARK INTRA:                  -0.616
REMARK UNBOUND:                -0.674
REMARK  Name = 
REMARK  5 active torsions:
REMARK  status: ('A' for Active; 'I' for Inactive)
REMARK    1  A    between atoms: N_1  and  C_2
REMARK    2  A    between atoms: C_2  and  C_3
REMARK    3  A    between atoms: C_6  and  C_7
REMARK    4  A    between atoms: C_7  and  N_8
REMARK    5  A    between atoms: C_13  and  C_14
REMARK                            x       y       z     vdW  Elec       q    Type
REMARK                         _______ _______ _______ _____ _____    ______ ____
ROOT
ATOM      1  N   UNL     1      48.743   4.970  17.533  0.00  0.00    +0.000 N 
ATOM      2  C   UNL     1      48.162   3.823  18.028  0.00  0.00    +0.000 A 
ATOM      3  C   UNL     1      47.376   3.284  17.036  0.00  0.00    +0.000 A 
ATOM      4  C   UNL     1      47.420   4.167  15.929  0.00  0.00    +0.000 A 
ATOM      5  C   UNL     1      46.815   4.183  14.661  0.00  0.00    +0.000 A 
ATOM      6  C   UNL     1      47.067   5.275  13.828  0.00  0.00    +0.000 A 
ATOM      7  C   UNL     1      47.935   6.267  14.290  0.00  0.00    +0.000 A 
ATOM      8  N   UNL     1      48.569   6.286  15.495  0.00  0.00    +0.000 NA
ATOM      9  C   UNL     1      48.266   5.222  16.267  0.00  0.00    +0.000 A 
ENDROOT
BRANCH   6  10
ATOM     10  C   UNL     1      46.443   5.432  12.493  0.00  0.00    +0.000 C 
ATOM     11  N   UNL     1      45.422   4.596  12.141  0.00  0.00    +0.000 N 
ATOM     12  O   UNL     1      46.824   6.300  11.713  0.00  0.00    +0.000 OA
ATOM     13  H   UNL     1      45.033   3.871  12.723  0.00  0.00    +0.000 HD
ATOM     14  H   UNL     1      45.000   4.741  11.233  0.00  0.00    +0.000 HD
ENDBRANCH   6  10
BRANCH   1  15
ATOM     15  C   UNL     1      49.735   5.757  18.253  0.00  0.00    +0.000 C 
BRANCH  15  19
ATOM     16  C   UNL     1      48.967   9.372  19.059  0.00  0.00    +0.000 C 
ATOM     17  C   UNL     1      50.311   8.668  19.323  0.00  0.00    +0.000 C 
ATOM     18  C   UNL     1      50.152   7.410  20.173  0.00  0.00    +0.000 C 
ATOM     19  C   UNL     1      49.174   6.406  19.542  0.00  0.00    +0.000 C 
ATOM     20  C   UNL     1      47.818   7.086  19.295  0.00  0.00    +0.000 C 
ATOM     21  C   UNL     1      47.934   8.380  18.491  0.00  0.00    +0.000 C 
BRANCH  16  22
ATOM     22  C   UNL     1      48.424  10.096  20.309  0.00  0.00    +0.000 C 
BRANCH  22  23
ATOM     23  N   UNL     1      47.069  10.592  20.085  0.00  0.00    +0.000 NA
ATOM     24  H   UNL     1      46.938  11.476  20.572  0.00  0.00    +0.000 HD
ATOM     25  H   UNL     1      46.394   9.938  20.481  0.00  0.00    +0.000 HD
ENDBRANCH  22  23
ENDBRANCH  16  22
ENDBRANCH  15  19
ENDBRANCH   1  15
TORSDOF 5
ENDMDL
