MODEL 1
REMARK VINA RESULT:    -7.691      0.000      0.000
REMARK INTER + INTRA:         -12.517
REMARK INTER:                 -11.064
REMARK INTRA:                  -1.454
REMARK UNBOUND:                -1.454
REMARK  Name = 
REMARK  9 active torsions:
REMARK  status: ('A' for Active; 'I' for Inactive)
REMARK    1  A    between atoms: C_1  and  C_2
REMARK    2  A    between atoms: C_2  and  N_3
REMARK    3  A    between atoms: N_3  and  C_4
REMARK    4  A    between atoms: C_4  and  C_5
REMARK    5  A    between atoms: C_8  and  C_9
REMARK    6  A    between atoms: C_9  and  C_10
REMARK    7  A    between atoms: C_10  and  O_11
REMARK    8  A    between atoms: C_10  and  C_12
REMARK    9  A    between atoms: C_20  and  C_22
REMARK                            x       y       z     vdW  Elec       q    Type
REMARK                         _______ _______ _______ _____ _____    ______ ____
ROOT
ATOM      1  C   UNL     1      46.913   6.214  12.366  0.00  0.00    +0.000 C 
ENDROOT
BRANCH   1   2
ATOM      2  C   UNL     1      47.309   5.938  13.787  0.00  0.00    +0.000 A 
ATOM      3  C   UNL     1      48.144   6.833  14.468  0.00  0.00    +0.000 A 
ATOM      4  C   UNL     1      48.677   6.498  15.710  0.00  0.00    +0.000 A 
ATOM      5  C   UNL     1      48.380   5.265  16.296  0.00  0.00    +0.000 A 
ATOM      6  C   UNL     1      47.420   4.443  15.681  0.00  0.00    +0.000 A 
ATOM      7  C   UNL     1      46.885   4.778  14.438  0.00  0.00    +0.000 A 
BRANCH   5   8
ATOM      8  C   UNL     1      49.209   4.671  17.415  0.00  0.00    +0.000 C 
BRANCH   8   9
ATOM      9  C   UNL     1      49.205   3.147  17.653  0.00  0.00    +0.000 C 
BRANCH   9  10
ATOM     10  C   UNL     1      50.655   2.691  17.649  0.00  0.00    +0.000 A 
ATOM     11  C   UNL     1      51.675   3.530  18.081  0.00  0.00    +0.000 A 
ATOM     12  C   UNL     1      52.960   3.006  18.195  0.00  0.00    +0.000 A 
ATOM     13  C   UNL     1      53.190   1.674  17.869  0.00  0.00    +0.000 A 
ATOM     14  C   UNL     1      52.125   0.915  17.417  0.00  0.00    +0.000 A 
ATOM     15  N   UNL     1      50.868   1.390  17.300  0.00  0.00    +0.000 NA
ENDBRANCH   9  10
BRANCH   9  16
ATOM     16  O   UNL     1      48.659   2.823  18.939  0.00  0.00    +0.000 OA
ATOM     17  H   UNL     1      47.962   2.158  18.758  0.00  0.00    +0.000 HD
ENDBRANCH   9  16
ENDBRANCH   8   9
ENDBRANCH   5   8
ENDBRANCH   1   2
BRANCH   1  18
ATOM     18  N   UNL     1      45.783   7.130  12.107  0.00  0.00    +0.000 N 
ATOM     19  C   UNL     1      44.569   6.656  11.547  0.00  0.00    +0.000 C 
ATOM     20  O   UNL     1      43.684   7.424  11.171  0.00  0.00    +0.000 OA
BRANCH  19  21
ATOM     21  C   UNL     1      44.338   5.209  11.440  0.00  0.00    +0.000 A 
ATOM     22  C   UNL     1      43.586   4.467  12.338  0.00  0.00    +0.000 A 
ATOM     23  S   UNL     1      43.452   2.820  11.911  0.00  0.00    +0.000 S 
ATOM     24  C   UNL     1      44.276   3.078  10.445  0.00  0.00    +0.000 A 
ATOM     25  N   UNL     1      44.429   2.073   9.543  0.00  0.00    +0.000 NA
ATOM     26  C   UNL     1      45.004   2.433   8.445  0.00  0.00    +0.000 A 
ATOM     27  N   UNL     1      45.473   3.694   8.183  0.00  0.00    +0.000 N 
ATOM     28  C   UNL     1      45.464   4.708   9.119  0.00  0.00    +0.000 A 
ATOM     29  O   UNL     1      46.096   5.741   8.934  0.00  0.00    +0.000 OA
ATOM     30  C   UNL     1      44.720   4.381  10.324  0.00  0.00    +0.000 A 
ATOM     31  H   UNL     1      45.968   3.893   7.327  0.00  0.00    +0.000 HD
ENDBRANCH  19  21
BRANCH  18  33
ATOM     32  C   UNL     1      47.324   9.186  11.943  0.00  0.00    +0.000 C 
ATOM     33  C   UNL     1      45.933   8.600  12.139  0.00  0.00    +0.000 C 
ENDBRANCH  18  33
ENDBRANCH   1  18
TORSDOF 8
ENDMDL
MODEL 2
REMARK VINA RESULT:    -7.406      3.473      8.499
REMARK INTER + INTRA:         -12.108
REMARK INTER:                 -10.550
REMARK INTRA:                  -1.558
REMARK UNBOUND:                -1.454
REMARK  Name = 
REMARK  9 active torsions:
REMARK  status: ('A' for Active; 'I' for Inactive)
REMARK    1  A    between atoms: C_1  and  C_2
REMARK    2  A    between atoms: C_2  and  N_3
REMARK    3  A    between atoms: N_3  and  C_4
REMARK    4  A    between atoms: C_4  and  C_5
REMARK    5  A    between atoms: C_8  and  C_9
REMARK    6  A    between atoms: C_9  and  C_10
REMARK    7  A    between atoms: C_10  and  O_11
REMARK    8  A    between atoms: C_10  and  C_12
REMARK    9  A    between atoms: C_20  and  C_22
REMARK                            x       y       z     vdW  Elec       q    Type
REMARK                         _______ _______ _______ _____ _____    ______ ____
ROOT
ATOM      1  C   UNL     1      47.814   8.164  13.838  0.00  0.00    +0.000 C 
ENDROOT
BRANCH   1   2
ATOM      2  C   UNL     1      46.874   7.159  13.239  0.00  0.00    +0.000 A 
ATOM      3  C   UNL     1      47.006   5.800  13.555  0.00  0.00    +0.000 A 
ATOM      4  C   UNL     1      46.275   4.839  12.863  0.00  0.00    +0.000 A 
ATOM      5  C   UNL     1      45.396   5.217  11.846  0.00  0.00    +0.000 A 
ATOM      6  C   UNL     1      45.154   6.587  11.643  0.00  0.00    +0.000 A 
ATOM      7  C   UNL     1      45.884   7.551  12.336  0.00  0.00    +0.000 A 
BRANCH   5   8
ATOM      8  C   UNL     1      44.884   4.246  10.804  0.00  0.00    +0.000 C 
BRANCH   8   9
ATOM      9  C   UNL     1      44.891   4.639   9.313  0.00  0.00    +0.000 C 
BRANCH   9  10
ATOM     10  C   UNL     1      45.725   3.598   8.582  0.00  0.00    +0.000 A 
ATOM     11  C   UNL     1      45.592   2.244   8.860  0.00  0.00    +0.000 A 
ATOM     12  C   UNL     1      46.272   1.333   8.056  0.00  0.00    +0.000 A 
ATOM     13  C   UNL     1      47.064   1.796   7.011  0.00  0.00    +0.000 A 
ATOM     14  C   UNL     1      47.167   3.162   6.821  0.00  0.00    +0.000 A 
ATOM     15  N   UNL     1      46.518   4.072   7.578  0.00  0.00    +0.000 NA
ENDBRANCH   9  10
BRANCH   9  16
ATOM     16  O   UNL     1      43.569   4.593   8.756  0.00  0.00    +0.000 OA
ATOM     17  H   UNL     1      43.704   4.593   7.786  0.00  0.00    +0.000 HD
ENDBRANCH   9  16
ENDBRANCH   8   9
ENDBRANCH   5   8
ENDBRANCH   1   2
BRANCH   1  18
ATOM     18  N   UNL     1      49.260   7.860  13.864  0.00  0.00    +0.000 N 
ATOM     19  C   UNL     1      50.025   8.037  15.045  0.00  0.00    +0.000 C 
ATOM     20  O   UNL     1      51.252   7.950  15.042  0.00  0.00    +0.000 OA
BRANCH  19  21
ATOM     21  C   UNL     1      49.341   8.297  16.318  0.00  0.00    +0.000 A 
ATOM     22  C   UNL     1      49.107   9.560  16.839  0.00  0.00    +0.000 A 
ATOM     23  S   UNL     1      48.237   9.538  18.308  0.00  0.00    +0.000 S 
ATOM     24  C   UNL     1      48.026   7.852  18.219  0.00  0.00    +0.000 A 
ATOM     25  N   UNL     1      47.276   7.192  19.140  0.00  0.00    +0.000 NA
ATOM     26  C   UNL     1      47.139   5.930  18.902  0.00  0.00    +0.000 A 
ATOM     27  N   UNL     1      47.714   5.264  17.852  0.00  0.00    +0.000 N 
ATOM     28  C   UNL     1      48.593   5.863  16.973  0.00  0.00    +0.000 A 
ATOM     29  O   UNL     1      49.264   5.193  16.198  0.00  0.00    +0.000 OA
ATOM     30  C   UNL     1      48.682   7.305  17.132  0.00  0.00    +0.000 A 
ATOM     31  H   UNL     1      47.616   4.264  17.759  0.00  0.00    +0.000 HD
ENDBRANCH  19  21
BRANCH  18  33
ATOM     32  C   UNL     1      49.631   8.384  11.370  0.00  0.00    +0.000 C 
ATOM     33  C   UNL     1      50.043   7.636  12.631  0.00  0.00    +0.000 C 
ENDBRANCH  18  33
ENDBRANCH   1  18
TORSDOF 8
ENDMDL
MODEL 3
REMARK VINA RESULT:    -7.178      2.764      8.544
REMARK INTER + INTRA:         -11.780
REMARK INTER:                 -10.380
REMARK INTRA:                  -1.399
REMARK UNBOUND:                -1.454
REMARK  Name = 
REMARK  9 active torsions:
REMARK  status: ('A' for Active; 'I' for Inactive)
REMARK    1  A    between atoms: C_1  and  C_2
REMARK    2  A    between atoms: C_2  and  N_3
REMARK    3  A    between atoms: N_3  and  C_4
REMARK    4  A    between atoms: C_4  and  C_5
REMARK    5  A    between atoms: C_8  and  C_9
REMARK    6  A    between atoms: C_9  and  C_10
REMARK    7  A    between atoms: C_10  and  O_11
REMARK    8  A    between atoms: C_10  and  C_12
REMARK    9  A    between atoms: C_20  and  C_22
REMARK                            x       y       z     vdW  Elec       q    Type
REMARK                         _______ _______ _______ _____ _____    ______ ____
ROOT
ATOM      1  C   UNL     1      48.851   6.628  14.470  0.00  0.00    +0.000 C 
ENDROOT
BRANCH   1   2
ATOM      2  C   UNL     1      47.660   6.159  13.687  0.00  0.00    +0.000 A 
ATOM      3  C   UNL     1      46.875   5.104  14.171  0.00  0.00    +0.000 A 
ATOM      4  C   UNL     1      45.891   4.530  13.370  0.00  0.00    +0.000 A 
ATOM      5  C   UNL     1      45.671   5.003  12.074  0.00  0.00    +0.000 A 
ATOM      6  C   UNL     1      46.352   6.159  11.656  0.00  0.00    +0.000 A 
ATOM      7  C   UNL     1      47.337   6.736  12.457  0.00  0.00    +0.000 A 
BRANCH   5   8
ATOM      8  C   UNL     1      44.927   4.203  11.026  0.00  0.00    +0.000 C 
BRANCH   8   9
ATOM      9  C   UNL     1      44.880   4.697   9.566  0.00  0.00    +0.000 C 
BRANCH   9  10
ATOM     10  C   UNL     1      45.663   3.696   8.732  0.00  0.00    +0.000 A 
ATOM     11  C   UNL     1      45.589   2.332   8.985  0.00  0.00    +0.000 A 
ATOM     12  C   UNL     1      46.209   1.459   8.096  0.00  0.00    +0.000 A 
ATOM     13  C   UNL     1      46.887   1.967   6.993  0.00  0.00    +0.000 A 
ATOM     14  C   UNL     1      46.940   3.340   6.831  0.00  0.00    +0.000 A 
ATOM     15  N   UNL     1      46.346   4.214   7.670  0.00  0.00    +0.000 NA
ENDBRANCH   9  10
BRANCH   9  16
ATOM     16  O   UNL     1      43.536   4.711   9.065  0.00  0.00    +0.000 OA
ATOM     17  H   UNL     1      43.171   5.576   9.346  0.00  0.00    +0.000 HD
ENDBRANCH   9  16
ENDBRANCH   8   9
ENDBRANCH   5   8
ENDBRANCH   1   2
BRANCH   1  18
ATOM     18  N   UNL     1      48.658   7.659  15.511  0.00  0.00    +0.000 N 
ATOM     19  C   UNL     1      48.586   7.309  16.884  0.00  0.00    +0.000 C 
ATOM     20  O   UNL     1      48.260   8.125  17.745  0.00  0.00    +0.000 OA
BRANCH  19  21
ATOM     21  C   UNL     1      48.942   5.948  17.304  0.00  0.00    +0.000 A 
ATOM     22  C   UNL     1      48.030   4.920  17.488  0.00  0.00    +0.000 A 
ATOM     23  S   UNL     1      48.758   3.437  17.921  0.00  0.00    +0.000 S 
ATOM     24  C   UNL     1      50.318   4.089  17.738  0.00  0.00    +0.000 A 
ATOM     25  N   UNL     1      51.422   3.308  17.877  0.00  0.00    +0.000 NA
ATOM     26  C   UNL     1      52.533   3.918  17.633  0.00  0.00    +0.000 A 
ATOM     27  N   UNL     1      52.644   5.244  17.302  0.00  0.00    +0.000 N 
ATOM     28  C   UNL     1      51.566   6.105  17.285  0.00  0.00    +0.000 A 
ATOM     29  O   UNL     1      51.730   7.318  17.217  0.00  0.00    +0.000 OA
ATOM     30  C   UNL     1      50.284   5.437  17.436  0.00  0.00    +0.000 A 
ATOM     31  H   UNL     1      53.548   5.673  17.184  0.00  0.00    +0.000 HD
ENDBRANCH  19  21
BRANCH  18  33
ATOM     32  C   UNL     1      49.265   9.958  14.524  0.00  0.00    +0.000 C 
ATOM     33  C   UNL     1      48.247   9.041  15.189  0.00  0.00    +0.000 C 
ENDBRANCH  18  33
ENDBRANCH   1  18
TORSDOF 8
ENDMDL
MODEL 4
REMARK VINA RESULT:    -7.071      1.814      2.669
REMARK INTER + INTRA:         -11.625
REMARK INTER:                  -9.981
REMARK INTRA:                  -1.644
REMARK UNBOUND:                -1.454
REMARK  Name = 
REMARK  9 active torsions:
REMARK  status: ('A' for Active; 'I' for Inactive)
REMARK    1  A    between atoms: C_1  and  C_2
REMARK    2  A    between atoms: C_2  and  N_3
REMARK    3  A    between atoms: N_3  and  C_4
REMARK    4  A    between atoms: C_4  and  C_5
REMARK    5  A    between atoms: C_8  and  C_9
REMARK    6  A    between atoms: C_9  and  C_10
REMARK    7  A    between atoms: C_10  and  O_11
REMARK    8  A    between atoms: C_10  and  C_12
REMARK    9  A    between atoms: C_20  and  C_22
REMARK                            x       y       z     vdW  Elec       q    Type
REMARK                         _______ _______ _______ _____ _____    ______ ____
ROOT
ATOM      1  C   UNL     1      47.330   6.372  12.569  0.00  0.00    +0.000 C 
ENDROOT
BRANCH   1   2
ATOM      2  C   UNL     1      47.635   5.776  13.913  0.00  0.00    +0.000 A 
ATOM      3  C   UNL     1      47.032   4.570  14.297  0.00  0.00    +0.000 A 
ATOM      4  C   UNL     1      47.149   4.107  15.605  0.00  0.00    +0.000 A 
ATOM      5  C   UNL     1      47.873   4.837  16.550  0.00  0.00    +0.000 A 
ATOM      6  C   UNL     1      48.601   5.959  16.118  0.00  0.00    +0.000 A 
ATOM      7  C   UNL     1      48.487   6.423  14.809  0.00  0.00    +0.000 A 
BRANCH   5   8
ATOM      8  C   UNL     1      47.718   4.625  18.041  0.00  0.00    +0.000 C 
BRANCH   8   9
ATOM      9  C   UNL     1      48.633   3.626  18.779  0.00  0.00    +0.000 C 
BRANCH   9  10
ATOM     10  C   UNL     1      50.050   4.171  18.691  0.00  0.00    +0.000 A 
ATOM     11  C   UNL     1      50.989   3.601  17.840  0.00  0.00    +0.000 A 
ATOM     12  C   UNL     1      52.220   4.234  17.695  0.00  0.00    +0.000 A 
ATOM     13  C   UNL     1      52.480   5.403  18.402  0.00  0.00    +0.000 A 
ATOM     14  C   UNL     1      51.502   5.887  19.253  0.00  0.00    +0.000 A 
ATOM     15  N   UNL     1      50.297   5.301  19.413  0.00  0.00    +0.000 NA
ENDBRANCH   9  10
BRANCH   9  16
ATOM     16  O   UNL     1      48.294   3.540  20.170  0.00  0.00    +0.000 OA
ATOM     17  H   UNL     1      47.955   2.628  20.291  0.00  0.00    +0.000 HD
ENDBRANCH   9  16
ENDBRANCH   8   9
ENDBRANCH   5   8
ENDBRANCH   1   2
BRANCH   1  18
ATOM     18  N   UNL     1      46.286   7.412  12.472  0.00  0.00    +0.000 N 
ATOM     19  C   UNL     1      45.228   7.303  11.535  0.00  0.00    +0.000 C 
ATOM     20  O   UNL     1      44.449   8.232  11.324  0.00  0.00    +0.000 OA
BRANCH  19  21
ATOM     21  C   UNL     1      45.026   6.039  10.815  0.00  0.00    +0.000 A 
ATOM     22  C   UNL     1      45.570   5.747   9.574  0.00  0.00    +0.000 A 
ATOM     23  S   UNL     1      45.202   4.173   9.025  0.00  0.00    +0.000 S 
ATOM     24  C   UNL     1      44.423   3.788  10.488  0.00  0.00    +0.000 A 
ATOM     25  N   UNL     1      43.945   2.536  10.716  0.00  0.00    +0.000 NA
ATOM     26  C   UNL     1      43.451   2.368  11.897  0.00  0.00    +0.000 A 
ATOM     27  N   UNL     1      43.356   3.346  12.853  0.00  0.00    +0.000 N 
ATOM     28  C   UNL     1      43.700   4.661  12.619  0.00  0.00    +0.000 A 
ATOM     29  O   UNL     1      43.386   5.544  13.407  0.00  0.00    +0.000 OA
ATOM     30  C   UNL     1      44.370   4.870  11.346  0.00  0.00    +0.000 A 
ATOM     31  H   UNL     1      42.902   3.163  13.735  0.00  0.00    +0.000 HD
ENDBRANCH  19  21
BRANCH  18  33
ATOM     32  C   UNL     1      47.571   9.635  12.677  0.00  0.00    +0.000 C 
ATOM     33  C   UNL     1      46.425   8.734  13.118  0.00  0.00    +0.000 C 
ENDBRANCH  18  33
ENDBRANCH   1  18
TORSDOF 8
ENDMDL
MODEL 5
REMARK VINA RESULT:    -7.022      1.941      2.587
REMARK INTER + INTRA:         -11.554
REMARK INTER:                  -9.943
REMARK INTRA:                  -1.611
REMARK UNBOUND:                -1.454
REMARK  Name = 
REMARK  9 active torsions:
REMARK  status: ('A' for Active; 'I' for Inactive)
REMARK    1  A    between atoms: C_1  and  C_2
REMARK    2  A    between atoms: C_2  and  N_3
REMARK    3  A    between atoms: N_3  and  C_4
REMARK    4  A    between atoms: C_4  and  C_5
REMARK    5  A    between atoms: C_8  and  C_9
REMARK    6  A    between atoms: C_9  and  C_10
REMARK    7  A    between atoms: C_10  and  O_11
REMARK    8  A    between atoms: C_10  and  C_12
REMARK    9  A    between atoms: C_20  and  C_22
REMARK                            x       y       z     vdW  Elec       q    Type
REMARK                         _______ _______ _______ _____ _____    ______ ____
ROOT
ATOM      1  C   UNL     1      47.201   6.002  12.556  0.00  0.00    +0.000 C 
ENDROOT
BRANCH   1   2
ATOM      2  C   UNL     1      47.538   5.563  13.951  0.00  0.00    +0.000 A 
ATOM      3  C   UNL     1      46.993   4.378  14.463  0.00  0.00    +0.000 A 
ATOM      4  C   UNL     1      47.137   4.059  15.811  0.00  0.00    +0.000 A 
ATOM      5  C   UNL     1      47.832   4.915  16.669  0.00  0.00    +0.000 A 
ATOM      6  C   UNL     1      48.506   6.017  16.116  0.00  0.00    +0.000 A 
ATOM      7  C   UNL     1      48.364   6.338  14.767  0.00  0.00    +0.000 A 
BRANCH   5   8
ATOM      8  C   UNL     1      47.694   4.852  18.175  0.00  0.00    +0.000 C 
BRANCH   8   9
ATOM      9  C   UNL     1      48.821   4.238  19.029  0.00  0.00    +0.000 C 
BRANCH   9  10
ATOM     10  C   UNL     1      49.687   5.389  19.518  0.00  0.00    +0.000 A 
ATOM     11  C   UNL     1      51.074   5.318  19.466  0.00  0.00    +0.000 A 
ATOM     12  C   UNL     1      51.807   6.458  19.788  0.00  0.00    +0.000 A 
ATOM     13  C   UNL     1      51.141   7.622  20.156  0.00  0.00    +0.000 A 
ATOM     14  C   UNL     1      49.759   7.598  20.212  0.00  0.00    +0.000 A 
ATOM     15  N   UNL     1      49.019   6.514  19.902  0.00  0.00    +0.000 NA
ENDBRANCH   9  10
BRANCH   9  16
ATOM     16  O   UNL     1      48.295   3.578  20.189  0.00  0.00    +0.000 OA
ATOM     17  H   UNL     1      48.581   4.132  20.946  0.00  0.00    +0.000 HD
ENDBRANCH   9  16
ENDBRANCH   8   9
ENDBRANCH   5   8
ENDBRANCH   1   2
BRANCH   1  18
ATOM     18  N   UNL     1      46.134   7.007  12.364  0.00  0.00    +0.000 N 
ATOM     19  C   UNL     1      44.881   6.647  11.805  0.00  0.00    +0.000 C 
ATOM     20  O   UNL     1      44.047   7.493  11.484  0.00  0.00    +0.000 OA
BRANCH  19  21
ATOM     21  C   UNL     1      44.546   5.228  11.632  0.00  0.00    +0.000 A 
ATOM     22  C   UNL     1      43.793   4.485  12.527  0.00  0.00    +0.000 A 
ATOM     23  S   UNL     1      43.525   2.877  12.019  0.00  0.00    +0.000 S 
ATOM     24  C   UNL     1      44.288   3.167  10.526  0.00  0.00    +0.000 A 
ATOM     25  N   UNL     1      44.324   2.209   9.563  0.00  0.00    +0.000 NA
ATOM     26  C   UNL     1      44.865   2.594   8.456  0.00  0.00    +0.000 A 
ATOM     27  N   UNL     1      45.404   3.835   8.238  0.00  0.00    +0.000 N 
ATOM     28  C   UNL     1      45.513   4.791   9.227  0.00  0.00    +0.000 A 
ATOM     29  O   UNL     1      46.204   5.789   9.065  0.00  0.00    +0.000 OA
ATOM     30  C   UNL     1      44.813   4.443  10.452  0.00  0.00    +0.000 A 
ATOM     31  H   UNL     1      45.866   4.052   7.368  0.00  0.00    +0.000 HD
ENDBRANCH  19  21
BRANCH  18  33
ATOM     32  C   UNL     1      47.773   8.975  12.099  0.00  0.00    +0.000 C 
ATOM     33  C   UNL     1      46.389   8.459  12.465  0.00  0.00    +0.000 C 
ENDBRANCH  18  33
ENDBRANCH   1  18
TORSDOF 8
ENDMDL
MODEL 6
REMARK VINA RESULT:    -6.561      2.807      8.934
REMARK INTER + INTRA:         -10.891
REMARK INTER:                  -9.641
REMARK INTRA:                  -1.250
REMARK UNBOUND:                -1.454
REMARK  Name = 
REMARK  9 active torsions:
REMARK  status: ('A' for Active; 'I' for Inactive)
REMARK    1  A    between atoms: C_1  and  C_2
REMARK    2  A    between atoms: C_2  and  N_3
REMARK    3  A    between atoms: N_3  and  C_4
REMARK    4  A    between atoms: C_4  and  C_5
REMARK    5  A    between atoms: C_8  and  C_9
REMARK    6  A    between atoms: C_9  and  C_10
REMARK    7  A    between atoms: C_10  and  O_11
REMARK    8  A    between atoms: C_10  and  C_12
REMARK    9  A    between atoms: C_20  and  C_22
REMARK                            x       y       z     vdW  Elec       q    Type
REMARK                         _______ _______ _______ _____ _____    ______ ____
ROOT
ATOM      1  C   UNL     1      49.479   6.695  16.743  0.00  0.00    +0.000 C 
ENDROOT
BRANCH   1   2
ATOM      2  C   UNL     1      48.667   6.263  15.558  0.00  0.00    +0.000 A 
ATOM      3  C   UNL     1      48.643   7.052  14.400  0.00  0.00    +0.000 A 
ATOM      4  C   UNL     1      47.748   6.770  13.371  0.00  0.00    +0.000 A 
ATOM      5  C   UNL     1      46.865   5.693  13.478  0.00  0.00    +0.000 A 
ATOM      6  C   UNL     1      47.004   4.818  14.569  0.00  0.00    +0.000 A 
ATOM      7  C   UNL     1      47.900   5.097  15.599  0.00  0.00    +0.000 A 
BRANCH   5   8
ATOM      8  C   UNL     1      45.625   5.563  12.619  0.00  0.00    +0.000 C 
BRANCH   8   9
ATOM      9  C   UNL     1      45.642   6.058  11.159  0.00  0.00    +0.000 C 
BRANCH   9  10
ATOM     10  C   UNL     1      45.212   4.889  10.287  0.00  0.00    +0.000 A 
ATOM     11  C   UNL     1      45.656   4.769   8.975  0.00  0.00    +0.000 A 
ATOM     12  C   UNL     1      45.349   3.603   8.278  0.00  0.00    +0.000 A 
ATOM     13  C   UNL     1      44.609   2.604   8.900  0.00  0.00    +0.000 A 
ATOM     14  C   UNL     1      44.179   2.817  10.198  0.00  0.00    +0.000 A 
ATOM     15  N   UNL     1      44.463   3.931  10.904  0.00  0.00    +0.000 NA
ENDBRANCH   9  10
BRANCH   9  16
ATOM     16  O   UNL     1      44.691   7.113  10.957  0.00  0.00    +0.000 OA
ATOM     17  H   UNL     1      44.872   7.757  11.674  0.00  0.00    +0.000 HD
ENDBRANCH   9  16
ENDBRANCH   8   9
ENDBRANCH   5   8
ENDBRANCH   1   2
BRANCH   1  18
ATOM     18  N   UNL     1      48.931   6.482  18.098  0.00  0.00    +0.000 N 
ATOM     19  C   UNL     1      49.522   5.551  18.990  0.00  0.00    +0.000 C 
ATOM     20  O   UNL     1      48.985   5.239  20.052  0.00  0.00    +0.000 OA
BRANCH  19  21
ATOM     21  C   UNL     1      50.828   4.965  18.663  0.00  0.00    +0.000 A 
ATOM     22  C   UNL     1      52.048   5.557  18.949  0.00  0.00    +0.000 A 
ATOM     23  S   UNL     1      53.389   4.602  18.497  0.00  0.00    +0.000 S 
ATOM     24  C   UNL     1      52.381   3.312  18.035  0.00  0.00    +0.000 A 
ATOM     25  N   UNL     1      52.906   2.126  17.629  0.00  0.00    +0.000 NA
ATOM     26  C   UNL     1      52.025   1.215  17.385  0.00  0.00    +0.000 A 
ATOM     27  N   UNL     1      50.669   1.393  17.473  0.00  0.00    +0.000 N 
ATOM     28  C   UNL     1      50.088   2.615  17.746  0.00  0.00    +0.000 A 
ATOM     29  O   UNL     1      48.886   2.790  17.587  0.00  0.00    +0.000 OA
ATOM     30  C   UNL     1      51.042   3.637  18.143  0.00  0.00    +0.000 A 
ATOM     31  H   UNL     1      50.033   0.656  17.209  0.00  0.00    +0.000 HD
ENDBRANCH  19  21
BRANCH  18  33
ATOM     32  C   UNL     1      47.513   8.393  19.082  0.00  0.00    +0.000 C 
ATOM     33  C   UNL     1      47.602   6.988  18.502  0.00  0.00    +0.000 C 
ENDBRANCH  18  33
ENDBRANCH   1  18
TORSDOF 8
ENDMDL
MODEL 7
REMARK VINA RESULT:    -6.536      3.084      7.951
REMARK INTER + INTRA:         -10.856
REMARK INTER:                  -8.935
REMARK INTRA:                  -1.921
REMARK UNBOUND:                -1.454
REMARK  Name = 
REMARK  9 active torsions:
REMARK  status: ('A' for Active; 'I' for Inactive)
REMARK    1  A    between atoms: C_1  and  C_2
REMARK    2  A    between atoms: C_2  and  N_3
REMARK    3  A    between atoms: N_3  and  C_4
REMARK    4  A    between atoms: C_4  and  C_5
REMARK    5  A    between atoms: C_8  and  C_9
REMARK    6  A    between atoms: C_9  and  C_10
REMARK    7  A    between atoms: C_10  and  O_11
REMARK    8  A    between atoms: C_10  and  C_12
REMARK    9  A    between atoms: C_20  and  C_22
REMARK                            x       y       z     vdW  Elec       q    Type
REMARK                         _______ _______ _______ _____ _____    ______ ____
ROOT
ATOM      1  C   UNL     1      49.493   8.206  16.628  0.00  0.00    +0.000 C 
ENDROOT
BRANCH   1   2
ATOM      2  C   UNL     1      48.914   7.993  15.260  0.00  0.00    +0.000 A 
ATOM      3  C   UNL     1      47.932   8.865  14.771  0.00  0.00    +0.000 A 
ATOM      4  C   UNL     1      47.248   8.571  13.594  0.00  0.00    +0.000 A 
ATOM      5  C   UNL     1      47.537   7.405  12.882  0.00  0.00    +0.000 A 
ATOM      6  C   UNL     1      48.628   6.620  13.294  0.00  0.00    +0.000 A 
ATOM      7  C   UNL     1      49.314   6.913  14.471  0.00  0.00    +0.000 A 
BRANCH   5   8
ATOM      8  C   UNL     1      46.596   6.822  11.849  0.00  0.00    +0.000 C 
BRANCH   8   9
ATOM      9  C   UNL     1      45.266   6.180  12.291  0.00  0.00    +0.000 C 
BRANCH   9  10
ATOM     10  C   UNL     1      44.913   5.126  11.253  0.00  0.00    +0.000 A 
ATOM     11  C   UNL     1      45.386   5.213   9.949  0.00  0.00    +0.000 A 
ATOM     12  C   UNL     1      45.152   4.144   9.088  0.00  0.00    +0.000 A 
ATOM     13  C   UNL     1      44.454   3.032   9.546  0.00  0.00    +0.000 A 
ATOM     14  C   UNL     1      43.991   3.039  10.850  0.00  0.00    +0.000 A 
ATOM     15  N   UNL     1      44.203   4.055  11.711  0.00  0.00    +0.000 NA
ENDBRANCH   9  10
BRANCH   9  16
ATOM     16  O   UNL     1      45.406   5.507  13.550  0.00  0.00    +0.000 OA
ATOM     17  H   UNL     1      45.458   6.226  14.215  0.00  0.00    +0.000 HD
ENDBRANCH   9  16
ENDBRANCH   8   9
ENDBRANCH   5   8
ENDBRANCH   1   2
BRANCH   1  18
ATOM     18  N   UNL     1      48.600   8.109  17.801  0.00  0.00    +0.000 N 
ATOM     19  C   UNL     1      48.455   6.891  18.513  0.00  0.00    +0.000 C 
ATOM     20  O   UNL     1      47.597   6.745  19.383  0.00  0.00    +0.000 OA
BRANCH  19  21
ATOM     21  C   UNL     1      49.372   5.777  18.236  0.00  0.00    +0.000 A 
ATOM     22  C   UNL     1      50.625   5.632  18.811  0.00  0.00    +0.000 A 
ATOM     23  S   UNL     1      51.428   4.203  18.334  0.00  0.00    +0.000 S 
ATOM     24  C   UNL     1      50.071   3.670  17.457  0.00  0.00    +0.000 A 
ATOM     25  N   UNL     1      50.059   2.448  16.863  0.00  0.00    +0.000 NA
ATOM     26  C   UNL     1      48.937   2.146  16.300  0.00  0.00    +0.000 A 
ATOM     27  N   UNL     1      47.842   2.968  16.245  0.00  0.00    +0.000 N 
ATOM     28  C   UNL     1      47.854   4.266  16.713  0.00  0.00    +0.000 A 
ATOM     29  O   UNL     1      46.946   5.042  16.440  0.00  0.00    +0.000 OA
ATOM     30  C   UNL     1      49.054   4.606  17.458  0.00  0.00    +0.000 A 
ATOM     31  H   UNL     1      47.016   2.694  15.736  0.00  0.00    +0.000 HD
ENDBRANCH  19  21
BRANCH  18  33
ATOM     32  C   UNL     1      48.071  10.605  18.151  0.00  0.00    +0.000 C 
ATOM     33  C   UNL     1      47.609   9.154  18.129  0.00  0.00    +0.000 C 
ENDBRANCH  18  33
ENDBRANCH   1  18
TORSDOF 8
ENDMDL
MODEL 8
REMARK VINA RESULT:    -6.022      3.206      4.566
REMARK INTER + INTRA:         -10.116
REMARK INTER:                  -8.114
REMARK INTRA:                  -2.002
REMARK UNBOUND:                -1.454
REMARK  Name = 
REMARK  9 active torsions:
REMARK  status: ('A' for Active; 'I' for Inactive)
REMARK    1  A    between atoms: C_1  and  C_2
REMARK    2  A    between atoms: C_2  and  N_3
REMARK    3  A    between atoms: N_3  and  C_4
REMARK    4  A    between atoms: C_4  and  C_5
REMARK    5  A    between atoms: C_8  and  C_9
REMARK    6  A    between atoms: C_9  and  C_10
REMARK    7  A    between atoms: C_10  and  O_11
REMARK    8  A    between atoms: C_10  and  C_12
REMARK    9  A    between atoms: C_20  and  C_22
REMARK                            x       y       z     vdW  Elec       q    Type
REMARK                         _______ _______ _______ _____ _____    ______ ____
ROOT
ATOM      1  C   UNL     1      48.810   9.813  14.241  0.00  0.00    +0.000 C 
ENDROOT
BRANCH   1   2
ATOM      2  C   UNL     1      48.927   9.188  15.600  0.00  0.00    +0.000 A 
ATOM      3  C   UNL     1      49.649   7.999  15.765  0.00  0.00    +0.000 A 
ATOM      4  C   UNL     1      49.604   7.306  16.972  0.00  0.00    +0.000 A 
ATOM      5  C   UNL     1      48.841   7.790  18.036  0.00  0.00    +0.000 A 
ATOM      6  C   UNL     1      48.249   9.059  17.915  0.00  0.00    +0.000 A 
ATOM      7  C   UNL     1      48.294   9.756  16.708  0.00  0.00    +0.000 A 
BRANCH   5   8
ATOM      8  C   UNL     1      48.424   6.924  19.205  0.00  0.00    +0.000 C 
BRANCH   8   9
ATOM      9  C   UNL     1      47.235   5.952  19.061  0.00  0.00    +0.000 C 
BRANCH   9  10
ATOM     10  C   UNL     1      47.744   4.734  18.307  0.00  0.00    +0.000 A 
ATOM     11  C   UNL     1      47.141   4.312  17.128  0.00  0.00    +0.000 A 
ATOM     12  C   UNL     1      47.742   3.284  16.408  0.00  0.00    +0.000 A 
ATOM     13  C   UNL     1      48.914   2.705  16.883  0.00  0.00    +0.000 A 
ATOM     14  C   UNL     1      49.433   3.163  18.082  0.00  0.00    +0.000 A 
ATOM     15  N   UNL     1      48.878   4.160  18.802  0.00  0.00    +0.000 NA
ENDBRANCH   9  10
BRANCH   9  16
ATOM     16  O   UNL     1      46.775   5.499  20.342  0.00  0.00    +0.000 OA
ATOM     17  H   UNL     1      47.569   5.121  20.776  0.00  0.00    +0.000 HD
ENDBRANCH   9  16
ENDBRANCH   8   9
ENDBRANCH   5   8
ENDBRANCH   1   2
BRANCH   1  18
ATOM     18  N   UNL     1      49.528   9.193  13.108  0.00  0.00    +0.000 N 
ATOM     19  C   UNL     1      48.871   8.300  12.224  0.00  0.00    +0.000 C 
ATOM     20  O   UNL     1      49.488   7.649  11.382  0.00  0.00    +0.000 OA
BRANCH  19  21
ATOM     21  C   UNL     1      47.409   8.168  12.283  0.00  0.00    +0.000 A 
ATOM     22  C   UNL     1      46.517   9.097  11.771  0.00  0.00    +0.000 A 
ATOM     23  S   UNL     1      44.883   8.632  11.941  0.00  0.00    +0.000 S 
ATOM     24  C   UNL     1      45.325   7.117  12.577  0.00  0.00    +0.000 A 
ATOM     25  N   UNL     1      44.385   6.177  12.859  0.00  0.00    +0.000 NA
ATOM     26  C   UNL     1      44.870   5.050  13.260  0.00  0.00    +0.000 A 
ATOM     27  N   UNL     1      46.204   4.791  13.440  0.00  0.00    +0.000 N 
ATOM     28  C   UNL     1      47.181   5.755  13.300  0.00  0.00    +0.000 A 
ATOM     29  O   UNL     1      48.324   5.555  13.693  0.00  0.00    +0.000 OA
ATOM     30  C   UNL     1      46.693   7.002  12.736  0.00  0.00    +0.000 A 
ATOM     31  H   UNL     1      46.512   3.907  13.815  0.00  0.00    +0.000 HD
ENDBRANCH  19  21
BRANCH  18  33
ATOM     32  C   UNL     1      51.726  10.500  13.410  0.00  0.00    +0.000 C 
ATOM     33  C   UNL     1      51.001   9.229  12.992  0.00  0.00    +0.000 C 
ENDBRANCH  18  33
ENDBRANCH   1  18
TORSDOF 8
ENDMDL
MODEL 9
REMARK VINA RESULT:    -5.966      3.325      8.971
REMARK INTER + INTRA:         -10.035
REMARK INTER:                  -8.644
REMARK INTRA:                  -1.391
REMARK UNBOUND:                -1.454
REMARK  Name = 
REMARK  9 active torsions:
REMARK  status: ('A' for Active; 'I' for Inactive)
REMARK    1  A    between atoms: C_1  and  C_2
REMARK    2  A    between atoms: C_2  and  N_3
REMARK    3  A    between atoms: N_3  and  C_4
REMARK    4  A    between atoms: C_4  and  C_5
REMARK    5  A    between atoms: C_8  and  C_9
REMARK    6  A    between atoms: C_9  and  C_10
REMARK    7  A    between atoms: C_10  and  O_11
REMARK    8  A    between atoms: C_10  and  C_12
REMARK    9  A    between atoms: C_20  and  C_22
REMARK                            x       y       z     vdW  Elec       q    Type
REMARK                         _______ _______ _______ _____ _____    ______ ____
ROOT
ATOM      1  C   UNL     1      47.887   5.529  16.437  0.00  0.00    +0.000 C 
ENDROOT
BRANCH   1   2
ATOM      2  C   UNL     1      47.366   5.121  15.090  0.00  0.00    +0.000 A 
ATOM      3  C   UNL     1      47.056   6.098  14.134  0.00  0.00    +0.000 A 
ATOM      4  C   UNL     1      46.392   5.752  12.960  0.00  0.00    +0.000 A 
ATOM      5  C   UNL     1      46.030   4.425  12.718  0.00  0.00    +0.000 A 
ATOM      6  C   UNL     1      46.483   3.434  13.606  0.00  0.00    +0.000 A 
ATOM      7  C   UNL     1      47.149   3.777  14.781  0.00  0.00    +0.000 A 
BRANCH   5   8
ATOM      8  C   UNL     1      44.984   4.036  11.695  0.00  0.00    +0.000 C 
BRANCH   8   9
ATOM      9  C   UNL     1      44.876   4.813  10.368  0.00  0.00    +0.000 C 
BRANCH   9  10
ATOM     10  C   UNL     1      45.538   3.961   9.297  0.00  0.00    +0.000 A 
ATOM     11  C   UNL     1      45.479   2.573   9.341  0.00  0.00    +0.000 A 
ATOM     12  C   UNL     1      45.976   1.855   8.257  0.00  0.00    +0.000 A 
ATOM     13  C   UNL     1      46.518   2.534   7.172  0.00  0.00    +0.000 A 
ATOM     14  C   UNL     1      46.567   3.916   7.221  0.00  0.00    +0.000 A 
ATOM     15  N   UNL     1      46.092   4.643   8.253  0.00  0.00    +0.000 NA
ENDBRANCH   9  10
BRANCH   9  16
ATOM     16  O   UNL     1      43.506   4.994   9.981  0.00  0.00    +0.000 OA
ATOM     17  H   UNL     1      43.414   5.956   9.823  0.00  0.00    +0.000 HD
ENDBRANCH   9  16
ENDBRANCH   8   9
ENDBRANCH   5   8
ENDBRANCH   1   2
BRANCH   1  18
ATOM     18  N   UNL     1      49.254   5.122  16.824  0.00  0.00    +0.000 N 
ATOM     19  C   UNL     1      50.377   5.926  16.502  0.00  0.00    +0.000 C 
ATOM     20  O   UNL     1      51.529   5.528  16.666  0.00  0.00    +0.000 OA
BRANCH  19  21
ATOM     21  C   UNL     1      50.169   7.288  15.991  0.00  0.00    +0.000 A 
ATOM     22  C   UNL     1      50.292   7.653  14.660  0.00  0.00    +0.000 A 
ATOM     23  S   UNL     1      49.930   9.296  14.370  0.00  0.00    +0.000 S 
ATOM     24  C   UNL     1      49.464   9.533  15.989  0.00  0.00    +0.000 A 
ATOM     25  N   UNL     1      48.954  10.723  16.402  0.00  0.00    +0.000 NA
ATOM     26  C   UNL     1      48.572  10.733  17.635  0.00  0.00    +0.000 A 
ATOM     27  N   UNL     1      48.689   9.677  18.501  0.00  0.00    +0.000 N 
ATOM     28  C   UNL     1      49.325   8.499  18.166  0.00  0.00    +0.000 A 
ATOM     29  O   UNL     1      49.617   7.675  19.024  0.00  0.00    +0.000 OA
ATOM     30  C   UNL     1      49.664   8.400  16.756  0.00  0.00    +0.000 A 
ATOM     31  H   UNL     1      48.426   9.771  19.470  0.00  0.00    +0.000 HD
ENDBRANCH  19  21
BRANCH  18  33
ATOM     32  C   UNL     1      48.577   3.073  18.229  0.00  0.00    +0.000 C 
ATOM     33  C   UNL     1      49.569   3.759  17.299  0.00  0.00    +0.000 C 
ENDBRANCH  18  33
ENDBRANCH   1  18
TORSDOF 8
ENDMDL
