MODEL 1
REMARK VINA RESULT:    -8.446      0.000      0.000
REMARK INTER + INTRA:         -13.258
REMARK INTER:                 -12.396
REMARK INTRA:                  -0.863
REMARK UNBOUND:                -0.863
REMARK  Name = 
REMARK  8 active torsions:
REMARK  status: ('A' for Active; 'I' for Inactive)
REMARK    1  A    between atoms: C_2  and  C_3
REMARK    2  A    between atoms: C_7  and  C_8
REMARK    3  A    between atoms: C_8  and  O_9
REMARK    4  A    between atoms: O_9  and  C_10
REMARK    5  A    between atoms: C_10  and  C_11
REMARK    6  A    between atoms: C_14  and  C_15
REMARK    7  A    between atoms: C_15  and  N_16
REMARK    8  A    between atoms: C_17  and  C_19
REMARK                            x       y       z     vdW  Elec       q    Type
REMARK                         _______ _______ _______ _____ _____    ______ ____
ROOT
ATOM      1  C   UNL     1      44.530   4.000  12.596  0.00  0.00    +0.000 A 
ATOM      2  C   UNL     1      44.487   5.388  12.703  0.00  0.00    +0.000 A 
ATOM      3  C   UNL     1      45.613   6.060  13.168  0.00  0.00    +0.000 A 
ATOM      4  C   UNL     1      46.750   5.337  13.536  0.00  0.00    +0.000 A 
ATOM      5  C   UNL     1      46.706   3.956  13.379  0.00  0.00    +0.000 A 
ATOM      6  N   UNL     1      45.631   3.276  12.917  0.00  0.00    +0.000 NA
ENDROOT
BRANCH   1   7
ATOM      7  C   UNL     1      43.357   3.253  12.000  0.00  0.00    +0.000 C 
BRANCH   7   8
ATOM      8  O   UNL     1      43.597   2.882  10.638  0.00  0.00    +0.000 OA
BRANCH   8   9
ATOM      9  C   UNL     1      44.008   3.995   9.843  0.00  0.00    +0.000 C 
BRANCH   9  14
ATOM     10  C   UNL     1      46.364   1.733   7.874  0.00  0.00    +0.000 A 
ATOM     11  C   UNL     1      47.083   2.669   7.127  0.00  0.00    +0.000 A 
ATOM     12  C   UNL     1      46.817   4.031   7.268  0.00  0.00    +0.000 A 
ATOM     13  C   UNL     1      45.828   4.464   8.154  0.00  0.00    +0.000 A 
ATOM     14  C   UNL     1      45.099   3.538   8.911  0.00  0.00    +0.000 A 
ATOM     15  C   UNL     1      45.372   2.168   8.761  0.00  0.00    +0.000 A 
BRANCH  10  17
ATOM     16  N   UNL     1      46.829  -0.807   7.609  0.00  0.00    +0.000 NA
ATOM     17  C   UNL     1      46.631   0.333   7.729  0.00  0.00    +0.000 C 
ENDBRANCH  10  17
ENDBRANCH   9  14
ENDBRANCH   8   9
ENDBRANCH   7   8
ENDBRANCH   1   7
BRANCH   4  18
ATOM     18  C   UNL     1      47.984   6.023  14.036  0.00  0.00    +0.000 C 
BRANCH  18  19
ATOM     19  N   UNL     1      47.957   6.175  15.467  0.00  0.00    +0.000 N 
ATOM     20  C   UNL     1      48.934   6.888  16.120  0.00  0.00    +0.000 C 
ATOM     21  O   UNL     1      49.819   7.479  15.510  0.00  0.00    +0.000 OA
ATOM     22  H   UNL     1      47.388   5.521  15.997  0.00  0.00    +0.000 HD
BRANCH  20  23
ATOM     23  C   UNL     1      48.828   6.961  17.582  0.00  0.00    +0.000 A 
ATOM     24  C   UNL     1      48.815   8.200  18.209  0.00  0.00    +0.000 A 
ATOM     25  S   UNL     1      48.652   8.106  19.904  0.00  0.00    +0.000 S 
ATOM     26  C   UNL     1      48.637   6.406  19.865  0.00  0.00    +0.000 A 
ATOM     27  N   UNL     1      48.540   5.679  21.011  0.00  0.00    +0.000 NA
ATOM     28  C   UNL     1      48.570   4.399  20.837  0.00  0.00    +0.000 A 
ATOM     29  N   UNL     1      48.680   3.782  19.620  0.00  0.00    +0.000 N 
ATOM     30  C   UNL     1      48.741   4.471  18.433  0.00  0.00    +0.000 A 
ATOM     31  O   UNL     1      48.779   3.886  17.355  0.00  0.00    +0.000 OA
ATOM     32  C   UNL     1      48.733   5.917  18.575  0.00  0.00    +0.000 A 
ATOM     33  H   UNL     1      48.685   2.774  19.551  0.00  0.00    +0.000 HD
ENDBRANCH  20  23
ENDBRANCH  18  19
ENDBRANCH   4  18
TORSDOF 8
ENDMDL
MODEL 2
REMARK VINA RESULT:    -8.417      2.521      3.068
REMARK INTER + INTRA:         -13.216
REMARK INTER:                 -12.288
REMARK INTRA:                  -0.928
REMARK UNBOUND:                -0.863
REMARK  Name = 
REMARK  8 active torsions:
REMARK  status: ('A' for Active; 'I' for Inactive)
REMARK    1  A    between atoms: C_2  and  C_3
REMARK    2  A    between atoms: C_7  and  C_8
REMARK    3  A    between atoms: C_8  and  O_9
REMARK    4  A    between atoms: O_9  and  C_10
REMARK    5  A    between atoms: C_10  and  C_11
REMARK    6  A    between atoms: C_14  and  C_15
REMARK    7  A    between atoms: C_15  and  N_16
REMARK    8  A    between atoms: C_17  and  C_19
REMARK                            x       y       z     vdW  Elec       q    Type
REMARK                         _______ _______ _______ _____ _____    ______ ____
ROOT
ATOM      1  C   UNL     1      46.256   4.454  13.298  0.00  0.00    +0.000 A 
ATOM      2  C   UNL     1      46.821   5.622  12.794  0.00  0.00    +0.000 A 
ATOM      3  C   UNL     1      47.653   6.374  13.619  0.00  0.00    +0.000 A 
ATOM      4  C   UNL     1      47.888   5.959  14.931  0.00  0.00    +0.000 A 
ATOM      5  C   UNL     1      47.294   4.770  15.340  0.00  0.00    +0.000 A 
ATOM      6  N   UNL     1      46.492   4.012  14.558  0.00  0.00    +0.000 NA
ENDROOT
BRANCH   1   7
ATOM      7  C   UNL     1      45.428   3.566  12.394  0.00  0.00    +0.000 C 
BRANCH   7   8
ATOM      8  O   UNL     1      44.501   4.323  11.606  0.00  0.00    +0.000 OA
BRANCH   8   9
ATOM      9  C   UNL     1      43.879   3.526  10.598  0.00  0.00    +0.000 C 
BRANCH   9  14
ATOM     10  C   UNL     1      46.173   1.780   8.101  0.00  0.00    +0.000 A 
ATOM     11  C   UNL     1      46.668   2.867   7.376  0.00  0.00    +0.000 A 
ATOM     12  C   UNL     1      46.271   4.164   7.701  0.00  0.00    +0.000 A 
ATOM     13  C   UNL     1      45.376   4.381   8.751  0.00  0.00    +0.000 A 
ATOM     14  C   UNL     1      44.871   3.302   9.487  0.00  0.00    +0.000 A 
ATOM     15  C   UNL     1      45.274   1.999   9.152  0.00  0.00    +0.000 A 
BRANCH  10  17
ATOM     16  N   UNL     1      46.895  -0.644   7.515  0.00  0.00    +0.000 NA
ATOM     17  C   UNL     1      46.574   0.446   7.768  0.00  0.00    +0.000 C 
ENDBRANCH  10  17
ENDBRANCH   9  14
ENDBRANCH   8   9
ENDBRANCH   7   8
ENDBRANCH   1   7
BRANCH   4  18
ATOM     18  C   UNL     1      48.782   6.737  15.849  0.00  0.00    +0.000 C 
BRANCH  18  19
ATOM     19  N   UNL     1      49.866   5.926  16.337  0.00  0.00    +0.000 N 
ATOM     20  C   UNL     1      49.867   5.451  17.626  0.00  0.00    +0.000 C 
ATOM     21  O   UNL     1      48.919   5.635  18.384  0.00  0.00    +0.000 OA
ATOM     22  H   UNL     1      50.742   5.958  15.824  0.00  0.00    +0.000 HD
BRANCH  20  23
ATOM     23  C   UNL     1      51.032   4.656  18.034  0.00  0.00    +0.000 A 
ATOM     24  C   UNL     1      52.070   5.264  18.727  0.00  0.00    +0.000 A 
ATOM     25  S   UNL     1      53.326   4.192  19.153  0.00  0.00    +0.000 S 
ATOM     26  C   UNL     1      52.549   2.887  18.389  0.00  0.00    +0.000 A 
ATOM     27  N   UNL     1      53.115   1.650  18.365  0.00  0.00    +0.000 NA
ATOM     28  C   UNL     1      52.430   0.761  17.725  0.00  0.00    +0.000 A 
ATOM     29  N   UNL     1      51.227   0.996  17.116  0.00  0.00    +0.000 N 
ATOM     30  C   UNL     1      50.598   2.216  17.146  0.00  0.00    +0.000 A 
ATOM     31  O   UNL     1      49.490   2.378  16.640  0.00  0.00    +0.000 OA
ATOM     32  C   UNL     1      51.337   3.259  17.835  0.00  0.00    +0.000 A 
ATOM     33  H   UNL     1      50.735   0.252  16.641  0.00  0.00    +0.000 HD
ENDBRANCH  20  23
ENDBRANCH  18  19
ENDBRANCH   4  18
TORSDOF 8
ENDMDL
MODEL 3
REMARK VINA RESULT:    -8.186      1.464      1.721
REMARK INTER + INTRA:         -12.878
REMARK INTER:                 -11.704
REMARK INTRA:                  -1.174
REMARK UNBOUND:                -0.863
REMARK  Name = 
REMARK  8 active torsions:
REMARK  status: ('A' for Active; 'I' for Inactive)
REMARK    1  A    between atoms: C_2  and  C_3
REMARK    2  A    between atoms: C_7  and  C_8
REMARK    3  A    between atoms: C_8  and  O_9
REMARK    4  A    between atoms: O_9  and  C_10
REMARK    5  A    between atoms: C_10  and  C_11
REMARK    6  A    between atoms: C_14  and  C_15
REMARK    7  A    between atoms: C_15  and  N_16
REMARK    8  A    between atoms: C_17  and  C_19
REMARK                            x       y       z     vdW  Elec       q    Type
REMARK                         _______ _______ _______ _____ _____    ______ ____
ROOT
ATOM      1  C   UNL     1      44.100   6.185  11.963  0.00  0.00    +0.000 A 
ATOM      2  C   UNL     1      44.622   7.314  11.338  0.00  0.00    +0.000 A 
ATOM      3  C   UNL     1      45.818   7.847  11.808  0.00  0.00    +0.000 A 
ATOM      4  C   UNL     1      46.458   7.259  12.901  0.00  0.00    +0.000 A 
ATOM      5  C   UNL     1      45.870   6.125  13.450  0.00  0.00    +0.000 A 
ATOM      6  N   UNL     1      44.715   5.576  13.006  0.00  0.00    +0.000 NA
ENDROOT
BRANCH   1   7
ATOM      7  C   UNL     1      42.854   5.526  11.410  0.00  0.00    +0.000 C 
BRANCH   7   8
ATOM      8  O   UNL     1      43.133   4.763  10.230  0.00  0.00    +0.000 OA
BRANCH   8   9
ATOM      9  C   UNL     1      43.848   3.562  10.524  0.00  0.00    +0.000 C 
BRANCH   9  14
ATOM     10  C   UNL     1      46.180   1.806   8.070  0.00  0.00    +0.000 A 
ATOM     11  C   UNL     1      46.707   2.892   7.367  0.00  0.00    +0.000 A 
ATOM     12  C   UNL     1      46.320   4.192   7.693  0.00  0.00    +0.000 A 
ATOM     13  C   UNL     1      45.402   4.412   8.722  0.00  0.00    +0.000 A 
ATOM     14  C   UNL     1      44.864   3.334   9.436  0.00  0.00    +0.000 A 
ATOM     15  C   UNL     1      45.258   2.029   9.100  0.00  0.00    +0.000 A 
BRANCH  10  17
ATOM     16  N   UNL     1      46.905  -0.610   7.456  0.00  0.00    +0.000 NA
ATOM     17  C   UNL     1      46.571   0.469   7.735  0.00  0.00    +0.000 C 
ENDBRANCH  10  17
ENDBRANCH   9  14
ENDBRANCH   8   9
ENDBRANCH   7   8
ENDBRANCH   1   7
BRANCH   4  18
ATOM     18  C   UNL     1      47.750   7.799  13.435  0.00  0.00    +0.000 C 
BRANCH  18  19
ATOM     19  N   UNL     1      48.000   7.335  14.774  0.00  0.00    +0.000 N 
ATOM     20  C   UNL     1      49.268   6.992  15.176  0.00  0.00    +0.000 C 
ATOM     21  O   UNL     1      50.241   7.136  14.442  0.00  0.00    +0.000 OA
ATOM     22  H   UNL     1      47.206   6.994  15.307  0.00  0.00    +0.000 HD
BRANCH  20  23
ATOM     23  C   UNL     1      49.412   6.506  16.554  0.00  0.00    +0.000 A 
ATOM     24  C   UNL     1      50.119   7.262  17.480  0.00  0.00    +0.000 A 
ATOM     25  S   UNL     1      50.159   6.571  19.038  0.00  0.00    +0.000 S 
ATOM     26  C   UNL     1      49.272   5.215  18.521  0.00  0.00    +0.000 A 
ATOM     27  N   UNL     1      48.971   4.204  19.381  0.00  0.00    +0.000 NA
ATOM     28  C   UNL     1      48.319   3.224  18.848  0.00  0.00    +0.000 A 
ATOM     29  N   UNL     1      47.934   3.170  17.535  0.00  0.00    +0.000 N 
ATOM     30  C   UNL     1      48.179   4.181  16.639  0.00  0.00    +0.000 A 
ATOM     31  O   UNL     1      47.767   4.126  15.484  0.00  0.00    +0.000 OA
ATOM     32  C   UNL     1      48.930   5.299  17.183  0.00  0.00    +0.000 A 
ATOM     33  H   UNL     1      47.414   2.379  17.183  0.00  0.00    +0.000 HD
ENDBRANCH  20  23
ENDBRANCH  18  19
ENDBRANCH   4  18
TORSDOF 8
ENDMDL
MODEL 4
REMARK VINA RESULT:    -7.706      2.062      2.501
REMARK INTER + INTRA:         -12.172
REMARK INTER:                 -11.285
REMARK INTRA:                  -0.887
REMARK UNBOUND:                -0.863
REMARK  Name = 
REMARK  8 active torsions:
REMARK  status: ('A' for Active; 'I' for Inactive)
REMARK    1  A    between atoms: C_2  and  C_3
REMARK    2  A    between atoms: C_7  and  C_8
REMARK    3  A    between atoms: C_8  and  O_9
REMARK    4  A    between atoms: O_9  and  C_10
REMARK    5  A    between atoms: C_10  and  C_11
REMARK    6  A    between atoms: C_14  and  C_15
REMARK    7  A    between atoms: C_15  and  N_16
REMARK    8  A    between atoms: C_17  and  C_19
REMARK                            x       y       z     vdW  Elec       q    Type
REMARK                         _______ _______ _______ _____ _____    ______ ____
ROOT
ATOM      1  C   UNL     1      44.310   6.115  12.051  0.00  0.00    +0.000 A 
ATOM      2  C   UNL     1      44.891   7.256  11.503  0.00  0.00    +0.000 A 
ATOM      3  C   UNL     1      46.162   7.630  11.927  0.00  0.00    +0.000 A 
ATOM      4  C   UNL     1      46.820   6.875  12.900  0.00  0.00    +0.000 A 
ATOM      5  C   UNL     1      46.168   5.744  13.378  0.00  0.00    +0.000 A 
ATOM      6  N   UNL     1      44.938   5.347  12.976  0.00  0.00    +0.000 NA
ENDROOT
BRANCH   1   7
ATOM      7  C   UNL     1      42.972   5.630  11.537  0.00  0.00    +0.000 C 
BRANCH   7   8
ATOM      8  O   UNL     1      43.111   4.836  10.353  0.00  0.00    +0.000 OA
BRANCH   8   9
ATOM      9  C   UNL     1      43.806   3.614  10.605  0.00  0.00    +0.000 C 
BRANCH   9  14
ATOM     10  C   UNL     1      46.148   1.902   8.130  0.00  0.00    +0.000 A 
ATOM     11  C   UNL     1      46.651   2.998   7.424  0.00  0.00    +0.000 A 
ATOM     12  C   UNL     1      46.243   4.291   7.755  0.00  0.00    +0.000 A 
ATOM     13  C   UNL     1      45.330   4.493   8.792  0.00  0.00    +0.000 A 
ATOM     14  C   UNL     1      44.817   3.405   9.509  0.00  0.00    +0.000 A 
ATOM     15  C   UNL     1      45.231   2.107   9.168  0.00  0.00    +0.000 A 
BRANCH  10  17
ATOM     16  N   UNL     1      46.883  -0.513   7.527  0.00  0.00    +0.000 NA
ATOM     17  C   UNL     1      46.561   0.573   7.790  0.00  0.00    +0.000 C 
ENDBRANCH  10  17
ENDBRANCH   9  14
ENDBRANCH   8   9
ENDBRANCH   7   8
ENDBRANCH   1   7
BRANCH   4  18
ATOM     18  C   UNL     1      48.191   7.241  13.380  0.00  0.00    +0.000 C 
BRANCH  18  19
ATOM     19  N   UNL     1      48.610   6.398  14.468  0.00  0.00    +0.000 N 
ATOM     20  C   UNL     1      48.849   6.922  15.715  0.00  0.00    +0.000 C 
ATOM     21  O   UNL     1      48.648   8.105  15.969  0.00  0.00    +0.000 OA
ATOM     22  H   UNL     1      48.998   5.489  14.233  0.00  0.00    +0.000 HD
BRANCH  20  23
ATOM     23  C   UNL     1      49.297   5.981  16.749  0.00  0.00    +0.000 A 
ATOM     24  C   UNL     1      48.357   5.280  17.494  0.00  0.00    +0.000 A 
ATOM     25  S   UNL     1      49.046   4.205  18.625  0.00  0.00    +0.000 S 
ATOM     26  C   UNL     1      50.623   4.669  18.190  0.00  0.00    +0.000 A 
ATOM     27  N   UNL     1      51.708   4.129  18.809  0.00  0.00    +0.000 NA
ATOM     28  C   UNL     1      52.843   4.594  18.401  0.00  0.00    +0.000 A 
ATOM     29  N   UNL     1      52.989   5.543  17.425  0.00  0.00    +0.000 N 
ATOM     30  C   UNL     1      51.927   6.088  16.745  0.00  0.00    +0.000 A 
ATOM     31  O   UNL     1      52.097   6.893  15.833  0.00  0.00    +0.000 OA
ATOM     32  C   UNL     1      50.625   5.615  17.181  0.00  0.00    +0.000 A 
ATOM     33  H   UNL     1      53.907   5.855  17.142  0.00  0.00    +0.000 HD
ENDBRANCH  20  23
ENDBRANCH  18  19
ENDBRANCH   4  18
TORSDOF 8
ENDMDL
MODEL 5
REMARK VINA RESULT:    -7.634      3.208      9.076
REMARK INTER + INTRA:         -12.067
REMARK INTER:                 -10.485
REMARK INTRA:                  -1.582
REMARK UNBOUND:                -0.863
REMARK  Name = 
REMARK  8 active torsions:
REMARK  status: ('A' for Active; 'I' for Inactive)
REMARK    1  A    between atoms: C_2  and  C_3
REMARK    2  A    between atoms: C_7  and  C_8
REMARK    3  A    between atoms: C_8  and  O_9
REMARK    4  A    between atoms: O_9  and  C_10
REMARK    5  A    between atoms: C_10  and  C_11
REMARK    6  A    between atoms: C_14  and  C_15
REMARK    7  A    between atoms: C_15  and  N_16
REMARK    8  A    between atoms: C_17  and  C_19
REMARK                            x       y       z     vdW  Elec       q    Type
REMARK                         _______ _______ _______ _____ _____    ______ ____
ROOT
ATOM      1  C   UNL     1      48.928   7.850  16.127  0.00  0.00    +0.000 A 
ATOM      2  C   UNL     1      49.106   6.698  15.367  0.00  0.00    +0.000 A 
ATOM      3  C   UNL     1      48.613   6.670  14.066  0.00  0.00    +0.000 A 
ATOM      4  C   UNL     1      47.937   7.781  13.556  0.00  0.00    +0.000 A 
ATOM      5  C   UNL     1      47.822   8.892  14.384  0.00  0.00    +0.000 A 
ATOM      6  N   UNL     1      48.302   8.954  15.647  0.00  0.00    +0.000 NA
ENDROOT
BRANCH   1   7
ATOM      7  C   UNL     1      49.540   7.944  17.509  0.00  0.00    +0.000 C 
BRANCH   7   8
ATOM      8  O   UNL     1      48.611   7.562  18.530  0.00  0.00    +0.000 OA
BRANCH   8   9
ATOM      9  C   UNL     1      49.068   6.433  19.275  0.00  0.00    +0.000 C 
BRANCH   9  14
ATOM     10  C   UNL     1      49.408   3.053  17.542  0.00  0.00    +0.000 A 
ATOM     11  C   UNL     1      48.094   2.823  17.127  0.00  0.00    +0.000 A 
ATOM     12  C   UNL     1      47.101   3.765  17.395  0.00  0.00    +0.000 A 
ATOM     13  C   UNL     1      47.416   4.939  18.082  0.00  0.00    +0.000 A 
ATOM     14  C   UNL     1      48.728   5.184  18.504  0.00  0.00    +0.000 A 
ATOM     15  C   UNL     1      49.722   4.230  18.232  0.00  0.00    +0.000 A 
BRANCH  10  17
ATOM     16  N   UNL     1      51.263   1.298  17.071  0.00  0.00    +0.000 NA
ATOM     17  C   UNL     1      50.431   2.086  17.272  0.00  0.00    +0.000 C 
ENDBRANCH  10  17
ENDBRANCH   9  14
ENDBRANCH   8   9
ENDBRANCH   7   8
ENDBRANCH   1   7
BRANCH   4  18
ATOM     18  C   UNL     1      47.396   7.794  12.159  0.00  0.00    +0.000 C 
BRANCH  18  19
ATOM     19  N   UNL     1      46.747   6.551  11.836  0.00  0.00    +0.000 N 
ATOM     20  C   UNL     1      45.378   6.470  11.756  0.00  0.00    +0.000 C 
ATOM     21  O   UNL     1      44.663   7.459  11.883  0.00  0.00    +0.000 OA
ATOM     22  H   UNL     1      47.285   5.697  11.955  0.00  0.00    +0.000 HD
BRANCH  20  23
ATOM     23  C   UNL     1      44.814   5.150  11.445  0.00  0.00    +0.000 A 
ATOM     24  C   UNL     1      44.055   4.485  12.400  0.00  0.00    +0.000 A 
ATOM     25  S   UNL     1      43.449   2.984  11.865  0.00  0.00    +0.000 S 
ATOM     26  C   UNL     1      44.214   3.148  10.355  0.00  0.00    +0.000 A 
ATOM     27  N   UNL     1      44.114   2.175   9.408  0.00  0.00    +0.000 NA
ATOM     28  C   UNL     1      44.769   2.418   8.322  0.00  0.00    +0.000 A 
ATOM     29  N   UNL     1      45.507   3.548   8.094  0.00  0.00    +0.000 N 
ATOM     30  C   UNL     1      45.606   4.574   9.002  0.00  0.00    +0.000 A 
ATOM     31  O   UNL     1      46.228   5.601   8.741  0.00  0.00    +0.000 OA
ATOM     32  C   UNL     1      44.905   4.342  10.252  0.00  0.00    +0.000 A 
ATOM     33  H   UNL     1      45.986   3.683   7.215  0.00  0.00    +0.000 HD
ENDBRANCH  20  23
ENDBRANCH  18  19
ENDBRANCH   4  18
TORSDOF 8
ENDMDL
MODEL 6
REMARK VINA RESULT:    -7.218      3.718      5.444
REMARK INTER + INTRA:         -11.457
REMARK INTER:                 -10.306
REMARK INTRA:                  -1.151
REMARK UNBOUND:                -0.863
REMARK  Name = 
REMARK  8 active torsions:
REMARK  status: ('A' for Active; 'I' for Inactive)
REMARK    1  A    between atoms: C_2  and  C_3
REMARK    2  A    between atoms: C_7  and  C_8
REMARK    3  A    between atoms: C_8  and  O_9
REMARK    4  A    between atoms: O_9  and  C_10
REMARK    5  A    between atoms: C_10  and  C_11
REMARK    6  A    between atoms: C_14  and  C_15
REMARK    7  A    between atoms: C_15  and  N_16
REMARK    8  A    between atoms: C_17  and  C_19
REMARK                            x       y       z     vdW  Elec       q    Type
REMARK                         _______ _______ _______ _____ _____    ______ ____
ROOT
ATOM      1  C   UNL     1      47.885   6.080  14.684  0.00  0.00    +0.000 A 
ATOM      2  C   UNL     1      48.646   6.434  15.795  0.00  0.00    +0.000 A 
ATOM      3  C   UNL     1      48.814   5.503  16.815  0.00  0.00    +0.000 A 
ATOM      4  C   UNL     1      48.207   4.249  16.718  0.00  0.00    +0.000 A 
ATOM      5  C   UNL     1      47.481   3.980  15.564  0.00  0.00    +0.000 A 
ATOM      6  N   UNL     1      47.310   4.859  14.550  0.00  0.00    +0.000 NA
ENDROOT
BRANCH   1   7
ATOM      7  C   UNL     1      47.767   7.035  13.515  0.00  0.00    +0.000 C 
BRANCH   7   8
ATOM      8  O   UNL     1      46.401   7.331  13.204  0.00  0.00    +0.000 OA
BRANCH   8   9
ATOM      9  C   UNL     1      46.072   6.993  11.856  0.00  0.00    +0.000 C 
BRANCH   9  14
ATOM     10  C   UNL     1      44.361   3.712  10.935  0.00  0.00    +0.000 A 
ATOM     11  C   UNL     1      43.396   3.613  11.941  0.00  0.00    +0.000 A 
ATOM     12  C   UNL     1      43.289   4.612  12.909  0.00  0.00    +0.000 A 
ATOM     13  C   UNL     1      44.149   5.712  12.878  0.00  0.00    +0.000 A 
ATOM     14  C   UNL     1      45.121   5.826  11.876  0.00  0.00    +0.000 A 
ATOM     15  C   UNL     1      45.222   4.815  10.907  0.00  0.00    +0.000 A 
BRANCH  10  17
ATOM     16  N   UNL     1      44.577   1.865   9.123  0.00  0.00    +0.000 NA
ATOM     17  C   UNL     1      44.477   2.686   9.942  0.00  0.00    +0.000 C 
ENDBRANCH  10  17
ENDBRANCH   9  14
ENDBRANCH   8   9
ENDBRANCH   7   8
ENDBRANCH   1   7
BRANCH   4  18
ATOM     18  C   UNL     1      48.369   3.217  17.793  0.00  0.00    +0.000 C 
BRANCH  18  19
ATOM     19  N   UNL     1      49.758   2.948  18.058  0.00  0.00    +0.000 N 
ATOM     20  C   UNL     1      50.494   2.148  17.218  0.00  0.00    +0.000 C 
ATOM     21  O   UNL     1      50.023   1.694  16.180  0.00  0.00    +0.000 OA
ATOM     22  H   UNL     1      50.094   3.112  19.002  0.00  0.00    +0.000 HD
BRANCH  20  23
ATOM     23  C   UNL     1      51.894   1.915  17.592  0.00  0.00    +0.000 A 
ATOM     24  C   UNL     1      52.358   0.614  17.742  0.00  0.00    +0.000 A 
ATOM     25  S   UNL     1      54.014   0.522  18.144  0.00  0.00    +0.000 S 
ATOM     26  C   UNL     1      54.158   2.216  18.174  0.00  0.00    +0.000 A 
ATOM     27  N   UNL     1      55.343   2.813  18.481  0.00  0.00    +0.000 NA
ATOM     28  C   UNL     1      55.302   4.104  18.496  0.00  0.00    +0.000 A 
ATOM     29  N   UNL     1      54.187   4.851  18.224  0.00  0.00    +0.000 N 
ATOM     30  C   UNL     1      52.981   4.296  17.872  0.00  0.00    +0.000 A 
ATOM     31  O   UNL     1      52.017   4.996  17.576  0.00  0.00    +0.000 OA
ATOM     32  C   UNL     1      52.966   2.844  17.861  0.00  0.00    +0.000 A 
ATOM     33  H   UNL     1      54.225   5.860  18.240  0.00  0.00    +0.000 HD
ENDBRANCH  20  23
ENDBRANCH  18  19
ENDBRANCH   4  18
TORSDOF 8
ENDMDL
MODEL 7
REMARK VINA RESULT:    -6.906      3.360      4.014
REMARK INTER + INTRA:         -10.999
REMARK INTER:                 -10.220
REMARK INTRA:                  -0.779
REMARK UNBOUND:                -0.863
REMARK  Name = 
REMARK  8 active torsions:
REMARK  status: ('A' for Active; 'I' for Inactive)
REMARK    1  A    between atoms: C_2  and  C_3
REMARK    2  A    between atoms: C_7  and  C_8
REMARK    3  A    between atoms: C_8  and  O_9
REMARK    4  A    between atoms: O_9  and  C_10
REMARK    5  A    between atoms: C_10  and  C_11
REMARK    6  A    between atoms: C_14  and  C_15
REMARK    7  A    between atoms: C_15  and  N_16
REMARK    8  A    between atoms: C_17  and  C_19
REMARK                            x       y       z     vdW  Elec       q    Type
REMARK                         _______ _______ _______ _____ _____    ______ ____
ROOT
ATOM      1  C   UNL     1      46.218   4.681  13.848  0.00  0.00    +0.000 A 
ATOM      2  C   UNL     1      46.975   5.787  13.471  0.00  0.00    +0.000 A 
ATOM      3  C   UNL     1      47.955   6.256  14.340  0.00  0.00    +0.000 A 
ATOM      4  C   UNL     1      48.147   5.630  15.573  0.00  0.00    +0.000 A 
ATOM      5  C   UNL     1      47.355   4.523  15.856  0.00  0.00    +0.000 A 
ATOM      6  N   UNL     1      46.404   4.035  15.026  0.00  0.00    +0.000 NA
ENDROOT
BRANCH   1   7
ATOM      7  C   UNL     1      45.214   4.089  12.882  0.00  0.00    +0.000 C 
BRANCH   7   8
ATOM      8  O   UNL     1      45.291   4.703  11.590  0.00  0.00    +0.000 OA
BRANCH   8   9
ATOM      9  C   UNL     1      44.433   4.067  10.642  0.00  0.00    +0.000 C 
BRANCH   9  14
ATOM     10  C   UNL     1      46.251   1.929   8.061  0.00  0.00    +0.000 A 
ATOM     11  C   UNL     1      46.734   2.905   7.186  0.00  0.00    +0.000 A 
ATOM     12  C   UNL     1      46.482   4.254   7.435  0.00  0.00    +0.000 A 
ATOM     13  C   UNL     1      45.746   4.634   8.559  0.00  0.00    +0.000 A 
ATOM     14  C   UNL     1      45.256   3.667   9.447  0.00  0.00    +0.000 A 
ATOM     15  C   UNL     1      45.512   2.311   9.187  0.00  0.00    +0.000 A 
BRANCH  10  17
ATOM     16  N   UNL     1      46.726  -0.581   7.597  0.00  0.00    +0.000 NA
ATOM     17  C   UNL     1      46.503   0.542   7.806  0.00  0.00    +0.000 C 
ENDBRANCH  10  17
ENDBRANCH   9  14
ENDBRANCH   8   9
ENDBRANCH   7   8
ENDBRANCH   1   7
BRANCH   4  18
ATOM     18  C   UNL     1      49.195   6.101  16.535  0.00  0.00    +0.000 C 
BRANCH  18  19
ATOM     19  N   UNL     1      50.256   5.138  16.668  0.00  0.00    +0.000 N 
ATOM     20  C   UNL     1      50.272   4.246  17.713  0.00  0.00    +0.000 C 
ATOM     21  O   UNL     1      49.355   4.185  18.525  0.00  0.00    +0.000 OA
ATOM     22  H   UNL     1      51.118   5.318  16.161  0.00  0.00    +0.000 HD
BRANCH  20  23
ATOM     23  C   UNL     1      51.413   3.323  17.772  0.00  0.00    +0.000 A 
ATOM     24  C   UNL     1      51.217   1.971  17.520  0.00  0.00    +0.000 A 
ATOM     25  S   UNL     1      52.649   1.048  17.594  0.00  0.00    +0.000 S 
ATOM     26  C   UNL     1      53.574   2.413  18.009  0.00  0.00    +0.000 A 
ATOM     27  N   UNL     1      54.911   2.310  18.241  0.00  0.00    +0.000 NA
ATOM     28  C   UNL     1      55.483   3.419  18.576  0.00  0.00    +0.000 A 
ATOM     29  N   UNL     1      54.840   4.622  18.689  0.00  0.00    +0.000 N 
ATOM     30  C   UNL     1      53.502   4.785  18.427  0.00  0.00    +0.000 A 
ATOM     31  O   UNL     1      52.969   5.889  18.481  0.00  0.00    +0.000 OA
ATOM     32  C   UNL     1      52.806   3.562  18.068  0.00  0.00    +0.000 A 
ATOM     33  H   UNL     1      55.349   5.458  18.943  0.00  0.00    +0.000 HD
ENDBRANCH  20  23
ENDBRANCH  18  19
ENDBRANCH   4  18
TORSDOF 8
ENDMDL
MODEL 8
REMARK VINA RESULT:    -6.751      3.141      9.580
REMARK INTER + INTRA:         -10.771
REMARK INTER:                  -9.566
REMARK INTRA:                  -1.205
REMARK UNBOUND:                -0.863
REMARK  Name = 
REMARK  8 active torsions:
REMARK  status: ('A' for Active; 'I' for Inactive)
REMARK    1  A    between atoms: C_2  and  C_3
REMARK    2  A    between atoms: C_7  and  C_8
REMARK    3  A    between atoms: C_8  and  O_9
REMARK    4  A    between atoms: O_9  and  C_10
REMARK    5  A    between atoms: C_10  and  C_11
REMARK    6  A    between atoms: C_14  and  C_15
REMARK    7  A    between atoms: C_15  and  N_16
REMARK    8  A    between atoms: C_17  and  C_19
REMARK                            x       y       z     vdW  Elec       q    Type
REMARK                         _______ _______ _______ _____ _____    ______ ____
ROOT
ATOM      1  C   UNL     1      50.092   7.995  14.972  0.00  0.00    +0.000 A 
ATOM      2  C   UNL     1      48.999   7.137  15.051  0.00  0.00    +0.000 A 
ATOM      3  C   UNL     1      48.069   7.139  14.016  0.00  0.00    +0.000 A 
ATOM      4  C   UNL     1      48.236   8.007  12.935  0.00  0.00    +0.000 A 
ATOM      5  C   UNL     1      49.367   8.815  12.935  0.00  0.00    +0.000 A 
ATOM      6  N   UNL     1      50.295   8.827  13.920  0.00  0.00    +0.000 NA
ENDROOT
BRANCH   1   7
ATOM      7  C   UNL     1      51.170   7.944  16.034  0.00  0.00    +0.000 C 
BRANCH   7   8
ATOM      8  O   UNL     1      50.707   8.458  17.288  0.00  0.00    +0.000 OA
BRANCH   8   9
ATOM      9  C   UNL     1      50.878   7.517  18.349  0.00  0.00    +0.000 C 
BRANCH   9  14
ATOM     10  C   UNL     1      47.729   5.367  18.443  0.00  0.00    +0.000 A 
ATOM     11  C   UNL     1      47.028   5.952  19.500  0.00  0.00    +0.000 A 
ATOM     12  C   UNL     1      47.565   7.048  20.175  0.00  0.00    +0.000 A 
ATOM     13  C   UNL     1      48.807   7.563  19.797  0.00  0.00    +0.000 A 
ATOM     14  C   UNL     1      49.523   6.988  18.739  0.00  0.00    +0.000 A 
ATOM     15  C   UNL     1      48.975   5.883  18.067  0.00  0.00    +0.000 A 
BRANCH  10  17
ATOM     16  N   UNL     1      46.733   3.314  17.204  0.00  0.00    +0.000 NA
ATOM     17  C   UNL     1      47.183   4.238  17.750  0.00  0.00    +0.000 C 
ENDBRANCH  10  17
ENDBRANCH   9  14
ENDBRANCH   8   9
ENDBRANCH   7   8
ENDBRANCH   1   7
BRANCH   4  18
ATOM     18  C   UNL     1      47.261   8.035  11.798  0.00  0.00    +0.000 C 
BRANCH  18  19
ATOM     19  N   UNL     1      46.641   6.751  11.605  0.00  0.00    +0.000 N 
ATOM     20  C   UNL     1      45.277   6.635  11.489  0.00  0.00    +0.000 C 
ATOM     21  O   UNL     1      44.544   7.618  11.474  0.00  0.00    +0.000 OA
ATOM     22  H   UNL     1      47.187   5.928  11.843  0.00  0.00    +0.000 HD
BRANCH  20  23
ATOM     23  C   UNL     1      44.745   5.277  11.321  0.00  0.00    +0.000 A 
ATOM     24  C   UNL     1      43.996   4.702  12.339  0.00  0.00    +0.000 A 
ATOM     25  S   UNL     1      43.425   3.138  11.966  0.00  0.00    +0.000 S 
ATOM     26  C   UNL     1      44.194   3.157  10.450  0.00  0.00    +0.000 A 
ATOM     27  N   UNL     1      44.120   2.087   9.613  0.00  0.00    +0.000 NA
ATOM     28  C   UNL     1      44.775   2.226   8.508  0.00  0.00    +0.000 A 
ATOM     29  N   UNL     1      45.489   3.342   8.162  0.00  0.00    +0.000 N 
ATOM     30  C   UNL     1      45.561   4.461   8.955  0.00  0.00    +0.000 A 
ATOM     31  O   UNL     1      46.161   5.467   8.588  0.00  0.00    +0.000 OA
ATOM     32  C   UNL     1      44.859   4.348  10.221  0.00  0.00    +0.000 A 
ATOM     33  H   UNL     1      45.970   3.393   7.275  0.00  0.00    +0.000 HD
ENDBRANCH  20  23
ENDBRANCH  18  19
ENDBRANCH   4  18
TORSDOF 8
ENDMDL
