MODEL 1
REMARK VINA RESULT:    -9.640      0.000      0.000
REMARK INTER + INTRA:         -13.876
REMARK INTER:                 -13.021
REMARK INTRA:                  -0.855
REMARK UNBOUND:                -0.855
REMARK  Name = 
REMARK  6 active torsions:
REMARK  status: ('A' for Active; 'I' for Inactive)
REMARK    1  A    between atoms: C_2  and  C_4
REMARK    2  A    between atoms: N_8  and  C_9
REMARK    3  A    between atoms: C_9  and  C_10
REMARK    4  A    between atoms: C_10  and  C_13
REMARK    5  A    between atoms: C_18  and  O_19
REMARK    6  A    between atoms: O_19  and  C_20
REMARK                            x       y       z     vdW  Elec       q    Type
REMARK                         _______ _______ _______ _____ _____    ______ ____
ROOT
ATOM      1  C   UNL     1      43.455   5.542  12.164  0.00  0.00    +0.000 C 
ATOM      2  F   UNL     1      42.969   6.703  11.628  0.00  0.00    +0.000 F 
ATOM      3  F   UNL     1      42.695   5.314  13.277  0.00  0.00    +0.000 F 
ENDROOT
BRANCH   1   4
ATOM      4  C   UNL     1      44.927   5.655  12.520  0.00  0.00    +0.000 A 
ATOM      5  C   UNL     1      45.721   6.655  11.941  0.00  0.00    +0.000 A 
ATOM      6  C   UNL     1      47.071   6.741  12.263  0.00  0.00    +0.000 A 
ATOM      7  F   UNL     1      47.821   7.695  11.698  0.00  0.00    +0.000 F 
ATOM      8  C   UNL     1      47.652   5.853  13.158  0.00  0.00    +0.000 A 
ATOM      9  C   UNL     1      46.872   4.864  13.757  0.00  0.00    +0.000 A 
ATOM     10  C   UNL     1      45.518   4.755  13.431  0.00  0.00    +0.000 A 
BRANCH   9  11
ATOM     11  O   UNL     1      47.544   4.036  14.620  0.00  0.00    +0.000 OA
BRANCH  11  12
ATOM     12  C   UNL     1      47.307   4.162  16.040  0.00  0.00    +0.000 C 
ATOM     13  C   UNL     1      48.205   5.112  16.846  0.00  0.00    +0.000 C 
ATOM     14  O   UNL     1      48.570   4.059  17.771  0.00  0.00    +0.000 OA
ATOM     15  C   UNL     1      47.952   3.073  16.912  0.00  0.00    +0.000 C 
ENDBRANCH  11  12
ENDBRANCH   9  11
ENDBRANCH   1   4
BRANCH   1  16
ATOM     16  C   UNL     1      43.211   4.399  11.142  0.00  0.00    +0.000 C 
BRANCH  16  21
ATOM     17  C   UNL     1      46.489   2.475   7.710  0.00  0.00    +0.000 A 
ATOM     18  C   UNL     1      45.664   1.818   8.613  0.00  0.00    +0.000 A 
ATOM     19  C   UNL     1      44.739   2.556   9.353  0.00  0.00    +0.000 A 
ATOM     20  C   UNL     1      44.664   3.936   9.189  0.00  0.00    +0.000 A 
ATOM     21  N   UNL     1      43.703   4.718   9.797  0.00  0.00    +0.000 N 
ATOM     22  N   UNL     1      45.491   4.588   8.348  0.00  0.00    +0.000 NA
ATOM     23  C   UNL     1      46.387   3.857   7.633  0.00  0.00    +0.000 A 
ATOM     24  H   UNL     1      43.926   5.699   9.625  0.00  0.00    +0.000 HD
BRANCH  17  26
ATOM     25  N   UNL     1      48.506   2.492   6.363  0.00  0.00    +0.000 N 
ATOM     26  C   UNL     1      47.446   1.767   6.835  0.00  0.00    +0.000 C 
ATOM     27  O   UNL     1      47.323   0.578   6.578  0.00  0.00    +0.000 OA
ATOM     28  H   UNL     1      49.221   1.969   5.872  0.00  0.00    +0.000 HD
ATOM     29  H   UNL     1      48.778   3.378   6.766  0.00  0.00    +0.000 HD
ENDBRANCH  17  26
ENDBRANCH  16  21
ENDBRANCH   1  16
TORSDOF 6
ENDMDL
MODEL 2
REMARK VINA RESULT:    -8.991      2.217      3.445
REMARK INTER + INTRA:         -12.999
REMARK INTER:                 -12.147
REMARK INTRA:                  -0.852
REMARK UNBOUND:                -0.855
REMARK  Name = 
REMARK  6 active torsions:
REMARK  status: ('A' for Active; 'I' for Inactive)
REMARK    1  A    between atoms: C_2  and  C_4
REMARK    2  A    between atoms: N_8  and  C_9
REMARK    3  A    between atoms: C_9  and  C_10
REMARK    4  A    between atoms: C_10  and  C_13
REMARK    5  A    between atoms: C_18  and  O_19
REMARK    6  A    between atoms: O_19  and  C_20
REMARK                            x       y       z     vdW  Elec       q    Type
REMARK                         _______ _______ _______ _____ _____    ______ ____
ROOT
ATOM      1  C   UNL     1      43.475   5.553  12.131  0.00  0.00    +0.000 C 
ATOM      2  F   UNL     1      43.039   6.720  11.567  0.00  0.00    +0.000 F 
ATOM      3  F   UNL     1      42.693   5.373  13.237  0.00  0.00    +0.000 F 
ENDROOT
BRANCH   1   4
ATOM      4  C   UNL     1      44.946   5.618  12.503  0.00  0.00    +0.000 A 
ATOM      5  C   UNL     1      45.469   4.755  13.478  0.00  0.00    +0.000 A 
ATOM      6  C   UNL     1      46.814   4.833  13.821  0.00  0.00    +0.000 A 
ATOM      7  F   UNL     1      47.301   4.010  14.758  0.00  0.00    +0.000 F 
ATOM      8  C   UNL     1      47.658   5.750  13.210  0.00  0.00    +0.000 A 
ATOM      9  C   UNL     1      47.158   6.603  12.226  0.00  0.00    +0.000 A 
ATOM     10  C   UNL     1      45.805   6.547  11.882  0.00  0.00    +0.000 A 
BRANCH   9  11
ATOM     11  O   UNL     1      48.072   7.473  11.690  0.00  0.00    +0.000 OA
BRANCH  11  12
ATOM     12  C   UNL     1      48.239   8.776  12.294  0.00  0.00    +0.000 C 
ATOM     13  C   UNL     1      47.108   9.802  12.135  0.00  0.00    +0.000 C 
ATOM     14  O   UNL     1      48.013  10.785  11.578  0.00  0.00    +0.000 OA
ATOM     15  C   UNL     1      49.051   9.784  11.466  0.00  0.00    +0.000 C 
ENDBRANCH  11  12
ENDBRANCH   9  11
ENDBRANCH   1   4
BRANCH   1  16
ATOM     16  C   UNL     1      43.202   4.400  11.125  0.00  0.00    +0.000 C 
BRANCH  16  21
ATOM     17  C   UNL     1      46.472   2.489   7.679  0.00  0.00    +0.000 A 
ATOM     18  C   UNL     1      45.679   1.830   8.609  0.00  0.00    +0.000 A 
ATOM     19  C   UNL     1      44.748   2.559   9.350  0.00  0.00    +0.000 A 
ATOM     20  C   UNL     1      44.634   3.934   9.158  0.00  0.00    +0.000 A 
ATOM     21  N   UNL     1      43.664   4.704   9.766  0.00  0.00    +0.000 N 
ATOM     22  N   UNL     1      45.431   4.588   8.291  0.00  0.00    +0.000 NA
ATOM     23  C   UNL     1      46.333   3.865   7.576  0.00  0.00    +0.000 A 
ATOM     24  H   UNL     1      43.859   5.686   9.571  0.00  0.00    +0.000 HD
BRANCH  17  26
ATOM     25  N   UNL     1      48.527   2.497   6.390  0.00  0.00    +0.000 N 
ATOM     26  C   UNL     1      47.432   1.787   6.803  0.00  0.00    +0.000 C 
ATOM     27  O   UNL     1      47.282   0.614   6.495  0.00  0.00    +0.000 OA
ATOM     28  H   UNL     1      49.240   1.973   5.898  0.00  0.00    +0.000 HD
ATOM     29  H   UNL     1      48.812   3.358   6.835  0.00  0.00    +0.000 HD
ENDBRANCH  17  26
ENDBRANCH  16  21
ENDBRANCH   1  16
TORSDOF 6
ENDMDL
MODEL 3
REMARK VINA RESULT:    -8.303      1.805      2.150
REMARK INTER + INTRA:         -12.070
REMARK INTER:                 -11.373
REMARK INTRA:                  -0.697
REMARK UNBOUND:                -0.855
REMARK  Name = 
REMARK  6 active torsions:
REMARK  status: ('A' for Active; 'I' for Inactive)
REMARK    1  A    between atoms: C_2  and  C_4
REMARK    2  A    between atoms: N_8  and  C_9
REMARK    3  A    between atoms: C_9  and  C_10
REMARK    4  A    between atoms: C_10  and  C_13
REMARK    5  A    between atoms: C_18  and  O_19
REMARK    6  A    between atoms: O_19  and  C_20
REMARK                            x       y       z     vdW  Elec       q    Type
REMARK                         _______ _______ _______ _____ _____    ______ ____
ROOT
ATOM      1  C   UNL     1      43.452   4.511  12.545  0.00  0.00    +0.000 C 
ATOM      2  F   UNL     1      42.266   5.135  12.823  0.00  0.00    +0.000 F 
ATOM      3  F   UNL     1      43.537   3.484  13.441  0.00  0.00    +0.000 F 
ENDROOT
BRANCH   1   4
ATOM      4  C   UNL     1      44.634   5.455  12.679  0.00  0.00    +0.000 A 
ATOM      5  C   UNL     1      44.627   6.697  12.028  0.00  0.00    +0.000 A 
ATOM      6  C   UNL     1      45.720   7.547  12.147  0.00  0.00    +0.000 A 
ATOM      7  F   UNL     1      45.706   8.727  11.514  0.00  0.00    +0.000 F 
ATOM      8  C   UNL     1      46.825   7.192  12.908  0.00  0.00    +0.000 A 
ATOM      9  C   UNL     1      46.841   5.969  13.577  0.00  0.00    +0.000 A 
ATOM     10  C   UNL     1      45.756   5.097  13.455  0.00  0.00    +0.000 A 
BRANCH   9  11
ATOM     11  O   UNL     1      47.980   5.713  14.296  0.00  0.00    +0.000 OA
BRANCH  11  12
ATOM     12  C   UNL     1      48.629   6.800  14.994  0.00  0.00    +0.000 C 
ATOM     13  C   UNL     1      49.883   7.423  14.365  0.00  0.00    +0.000 C 
ATOM     14  O   UNL     1      50.658   7.196  15.567  0.00  0.00    +0.000 OA
ATOM     15  C   UNL     1      49.597   6.378  16.111  0.00  0.00    +0.000 C 
ENDBRANCH  11  12
ENDBRANCH   9  11
ENDBRANCH   1   4
BRANCH   1  16
ATOM     16  C   UNL     1      43.364   3.925  11.109  0.00  0.00    +0.000 C 
BRANCH  16  21
ATOM     17  C   UNL     1      46.581   2.583   7.359  0.00  0.00    +0.000 A 
ATOM     18  C   UNL     1      46.161   3.845   7.756  0.00  0.00    +0.000 A 
ATOM     19  C   UNL     1      45.388   3.974   8.911  0.00  0.00    +0.000 A 
ATOM     20  C   UNL     1      45.037   2.840   9.639  0.00  0.00    +0.000 A 
ATOM     21  N   UNL     1      44.374   2.893  10.848  0.00  0.00    +0.000 N 
ATOM     22  N   UNL     1      45.402   1.608   9.236  0.00  0.00    +0.000 NA
ATOM     23  C   UNL     1      46.156   1.497   8.109  0.00  0.00    +0.000 A 
ATOM     24  H   UNL     1      44.123   1.944  11.123  0.00  0.00    +0.000 HD
BRANCH  17  26
ATOM     25  N   UNL     1      47.247   3.153   5.097  0.00  0.00    +0.000 N 
ATOM     26  C   UNL     1      47.460   2.361   6.192  0.00  0.00    +0.000 C 
ATOM     27  O   UNL     1      48.365   1.539   6.217  0.00  0.00    +0.000 OA
ATOM     28  H   UNL     1      47.932   3.082   4.354  0.00  0.00    +0.000 HD
ATOM     29  H   UNL     1      46.702   4.002   5.141  0.00  0.00    +0.000 HD
ENDBRANCH  17  26
ENDBRANCH  16  21
ENDBRANCH   1  16
TORSDOF 6
ENDMDL
MODEL 4
REMARK VINA RESULT:    -8.110      3.145      7.898
REMARK INTER + INTRA:         -11.809
REMARK INTER:                 -11.162
REMARK INTRA:                  -0.647
REMARK UNBOUND:                -0.855
REMARK  Name = 
REMARK  6 active torsions:
REMARK  status: ('A' for Active; 'I' for Inactive)
REMARK    1  A    between atoms: C_2  and  C_4
REMARK    2  A    between atoms: N_8  and  C_9
REMARK    3  A    between atoms: C_9  and  C_10
REMARK    4  A    between atoms: C_10  and  C_13
REMARK    5  A    between atoms: C_18  and  O_19
REMARK    6  A    between atoms: O_19  and  C_20
REMARK                            x       y       z     vdW  Elec       q    Type
REMARK                         _______ _______ _______ _____ _____    ______ ____
ROOT
ATOM      1  C   UNL     1      45.756   6.239  11.408  0.00  0.00    +0.000 C 
ATOM      2  F   UNL     1      44.919   7.307  11.231  0.00  0.00    +0.000 F 
ATOM      3  F   UNL     1      46.976   6.659  10.959  0.00  0.00    +0.000 F 
ENDROOT
BRANCH   1   4
ATOM      4  C   UNL     1      45.282   5.015  10.644  0.00  0.00    +0.000 A 
ATOM      5  C   UNL     1      44.464   4.062  11.268  0.00  0.00    +0.000 A 
ATOM      6  C   UNL     1      44.048   2.939  10.563  0.00  0.00    +0.000 A 
ATOM      7  F   UNL     1      43.273   2.032  11.171  0.00  0.00    +0.000 F 
ATOM      8  C   UNL     1      44.424   2.742   9.241  0.00  0.00    +0.000 A 
ATOM      9  C   UNL     1      45.223   3.688   8.600  0.00  0.00    +0.000 A 
ATOM     10  C   UNL     1      45.662   4.814   9.300  0.00  0.00    +0.000 A 
BRANCH   9  11
ATOM     11  O   UNL     1      45.542   3.395   7.299  0.00  0.00    +0.000 OA
BRANCH  11  12
ATOM     12  C   UNL     1      46.923   3.147   6.953  0.00  0.00    +0.000 C 
ATOM     13  C   UNL     1      47.252   2.749   5.508  0.00  0.00    +0.000 C 
ATOM     14  O   UNL     1      47.938   1.551   5.943  0.00  0.00    +0.000 OA
ATOM     15  C   UNL     1      47.441   1.739   7.288  0.00  0.00    +0.000 C 
ENDBRANCH  11  12
ENDBRANCH   9  11
ENDBRANCH   1   4
BRANCH   1  16
ATOM     16  C   UNL     1      45.850   5.947  12.931  0.00  0.00    +0.000 C 
BRANCH  16  21
ATOM     17  C   UNL     1      48.527   4.378  17.003  0.00  0.00    +0.000 A 
ATOM     18  C   UNL     1      47.500   3.741  16.320  0.00  0.00    +0.000 A 
ATOM     19  C   UNL     1      47.017   4.304  15.137  0.00  0.00    +0.000 A 
ATOM     20  C   UNL     1      47.559   5.498  14.667  0.00  0.00    +0.000 A 
ATOM     21  N   UNL     1      47.217   6.056  13.452  0.00  0.00    +0.000 N 
ATOM     22  N   UNL     1      48.525   6.145  15.347  0.00  0.00    +0.000 NA
ATOM     23  C   UNL     1      48.986   5.585  16.498  0.00  0.00    +0.000 A 
ATOM     24  H   UNL     1      47.647   6.978  13.386  0.00  0.00    +0.000 HD
BRANCH  17  26
ATOM     25  N   UNL     1      48.312   3.201  19.114  0.00  0.00    +0.000 N 
ATOM     26  C   UNL     1      49.146   3.818  18.222  0.00  0.00    +0.000 C 
ATOM     27  O   UNL     1      50.354   3.864  18.408  0.00  0.00    +0.000 OA
ATOM     28  H   UNL     1      48.758   2.711  19.879  0.00  0.00    +0.000 HD
ATOM     29  H   UNL     1      47.374   2.914  18.868  0.00  0.00    +0.000 HD
ENDBRANCH  17  26
ENDBRANCH  16  21
ENDBRANCH   1  16
TORSDOF 6
ENDMDL
MODEL 5
REMARK VINA RESULT:    -8.067      3.062      4.633
REMARK INTER + INTRA:         -11.751
REMARK INTER:                 -10.758
REMARK INTRA:                  -0.993
REMARK UNBOUND:                -0.855
REMARK  Name = 
REMARK  6 active torsions:
REMARK  status: ('A' for Active; 'I' for Inactive)
REMARK    1  A    between atoms: C_2  and  C_4
REMARK    2  A    between atoms: N_8  and  C_9
REMARK    3  A    between atoms: C_9  and  C_10
REMARK    4  A    between atoms: C_10  and  C_13
REMARK    5  A    between atoms: C_18  and  O_19
REMARK    6  A    between atoms: O_19  and  C_20
REMARK                            x       y       z     vdW  Elec       q    Type
REMARK                         _______ _______ _______ _____ _____    ______ ____
ROOT
ATOM      1  C   UNL     1      43.736   4.638  12.592  0.00  0.00    +0.000 C 
ATOM      2  F   UNL     1      42.575   5.147  13.107  0.00  0.00    +0.000 F 
ATOM      3  F   UNL     1      44.167   3.724  13.512  0.00  0.00    +0.000 F 
ENDROOT
BRANCH   1   4
ATOM      4  C   UNL     1      44.778   5.720  12.366  0.00  0.00    +0.000 A 
ATOM      5  C   UNL     1      46.144   5.423  12.476  0.00  0.00    +0.000 A 
ATOM      6  C   UNL     1      47.088   6.425  12.279  0.00  0.00    +0.000 A 
ATOM      7  F   UNL     1      48.389   6.131  12.395  0.00  0.00    +0.000 F 
ATOM      8  C   UNL     1      46.703   7.722  11.969  0.00  0.00    +0.000 A 
ATOM      9  C   UNL     1      45.349   8.030  11.837  0.00  0.00    +0.000 A 
ATOM     10  C   UNL     1      44.389   7.038  12.047  0.00  0.00    +0.000 A 
BRANCH   9  11
ATOM     11  O   UNL     1      45.077   9.339  11.535  0.00  0.00    +0.000 OA
BRANCH  11  12
ATOM     12  C   UNL     1      43.848   9.660  10.845  0.00  0.00    +0.000 C 
ATOM     13  C   UNL     1      43.929  10.500   9.564  0.00  0.00    +0.000 C 
ATOM     14  O   UNL     1      43.000  11.479  10.088  0.00  0.00    +0.000 OA
ATOM     15  C   UNL     1      43.082  10.872  11.399  0.00  0.00    +0.000 C 
ENDBRANCH  11  12
ENDBRANCH   9  11
ENDBRANCH   1   4
BRANCH   1  16
ATOM     16  C   UNL     1      43.395   3.903  11.267  0.00  0.00    +0.000 C 
BRANCH  16  21
ATOM     17  C   UNL     1      46.531   2.864   7.355  0.00  0.00    +0.000 A 
ATOM     18  C   UNL     1      46.128   4.091   7.866  0.00  0.00    +0.000 A 
ATOM     19  C   UNL     1      45.378   4.125   9.042  0.00  0.00    +0.000 A 
ATOM     20  C   UNL     1      45.032   2.936   9.679  0.00  0.00    +0.000 A 
ATOM     21  N   UNL     1      44.393   2.891  10.901  0.00  0.00    +0.000 N 
ATOM     22  N   UNL     1      45.380   1.740   9.165  0.00  0.00    +0.000 NA
ATOM     23  C   UNL     1      46.112   1.721   8.019  0.00  0.00    +0.000 A 
ATOM     24  H   UNL     1      44.140   1.923  11.099  0.00  0.00    +0.000 HD
BRANCH  17  26
ATOM     25  N   UNL     1      48.709   2.458   6.367  0.00  0.00    +0.000 N 
ATOM     26  C   UNL     1      47.386   2.736   6.157  0.00  0.00    +0.000 C 
ATOM     27  O   UNL     1      46.926   2.830   5.027  0.00  0.00    +0.000 OA
ATOM     28  H   UNL     1      49.258   2.247   5.542  0.00  0.00    +0.000 HD
ATOM     29  H   UNL     1      49.055   2.115   7.251  0.00  0.00    +0.000 HD
ENDBRANCH  17  26
ENDBRANCH  16  21
ENDBRANCH   1  16
TORSDOF 6
ENDMDL
MODEL 6
REMARK VINA RESULT:    -6.932      3.613      8.141
REMARK INTER + INTRA:         -10.218
REMARK INTER:                  -9.493
REMARK INTRA:                  -0.725
REMARK UNBOUND:                -0.855
REMARK  Name = 
REMARK  6 active torsions:
REMARK  status: ('A' for Active; 'I' for Inactive)
REMARK    1  A    between atoms: C_2  and  C_4
REMARK    2  A    between atoms: N_8  and  C_9
REMARK    3  A    between atoms: C_9  and  C_10
REMARK    4  A    between atoms: C_10  and  C_13
REMARK    5  A    between atoms: C_18  and  O_19
REMARK    6  A    between atoms: O_19  and  C_20
REMARK                            x       y       z     vdW  Elec       q    Type
REMARK                         _______ _______ _______ _____ _____    ______ ____
ROOT
ATOM      1  C   UNL     1      45.384   6.441  11.605  0.00  0.00    +0.000 C 
ATOM      2  F   UNL     1      44.899   6.471  12.884  0.00  0.00    +0.000 F 
ATOM      3  F   UNL     1      44.843   7.536  10.990  0.00  0.00    +0.000 F 
ENDROOT
BRANCH   1   4
ATOM      4  C   UNL     1      44.999   5.161  10.883  0.00  0.00    +0.000 A 
ATOM      5  C   UNL     1      44.210   4.195  11.524  0.00  0.00    +0.000 A 
ATOM      6  C   UNL     1      43.876   3.022  10.859  0.00  0.00    +0.000 A 
ATOM      7  F   UNL     1      43.128   2.103  11.484  0.00  0.00    +0.000 F 
ATOM      8  C   UNL     1      44.306   2.787   9.560  0.00  0.00    +0.000 A 
ATOM      9  C   UNL     1      45.076   3.745   8.902  0.00  0.00    +0.000 A 
ATOM     10  C   UNL     1      45.433   4.922   9.562  0.00  0.00    +0.000 A 
BRANCH   9  11
ATOM     11  O   UNL     1      45.452   3.412   7.626  0.00  0.00    +0.000 OA
BRANCH  11  12
ATOM     12  C   UNL     1      46.797   2.935   7.392  0.00  0.00    +0.000 C 
ATOM     13  C   UNL     1      47.247   2.708   5.943  0.00  0.00    +0.000 C 
ATOM     14  O   UNL     1      47.624   1.339   6.223  0.00  0.00    +0.000 OA
ATOM     15  C   UNL     1      46.985   1.415   7.518  0.00  0.00    +0.000 C 
ENDBRANCH  11  12
ENDBRANCH   9  11
ENDBRANCH   1   4
BRANCH   1  16
ATOM     16  C   UNL     1      46.927   6.606  11.669  0.00  0.00    +0.000 C 
BRANCH  16  21
ATOM     17  C   UNL     1      49.297   8.450  15.817  0.00  0.00    +0.000 A 
ATOM     18  C   UNL     1      48.286   9.015  15.049  0.00  0.00    +0.000 A 
ATOM     19  C   UNL     1      47.689   8.253  14.043  0.00  0.00    +0.000 A 
ATOM     20  C   UNL     1      48.120   6.949  13.813  0.00  0.00    +0.000 A 
ATOM     21  N   UNL     1      47.506   6.098  12.917  0.00  0.00    +0.000 N 
ATOM     22  N   UNL     1      49.130   6.410  14.522  0.00  0.00    +0.000 NA
ATOM     23  C   UNL     1      49.703   7.163  15.500  0.00  0.00    +0.000 A 
ATOM     24  H   UNL     1      48.070   5.252  12.835  0.00  0.00    +0.000 HD
BRANCH  17  26
ATOM     25  N   UNL     1      49.697  10.500  17.051  0.00  0.00    +0.000 N 
ATOM     26  C   UNL     1      49.935   9.156  16.947  0.00  0.00    +0.000 C 
ATOM     27  O   UNL     1      50.609   8.563  17.776  0.00  0.00    +0.000 OA
ATOM     28  H   UNL     1      50.031  10.949  17.895  0.00  0.00    +0.000 HD
ATOM     29  H   UNL     1      48.945  10.956  16.554  0.00  0.00    +0.000 HD
ENDBRANCH  17  26
ENDBRANCH  16  21
ENDBRANCH   1  16
TORSDOF 6
ENDMDL
MODEL 7
REMARK VINA RESULT:    -6.781      3.398      8.049
REMARK INTER + INTRA:         -10.014
REMARK INTER:                  -9.463
REMARK INTRA:                  -0.551
REMARK UNBOUND:                -0.855
REMARK  Name = 
REMARK  6 active torsions:
REMARK  status: ('A' for Active; 'I' for Inactive)
REMARK    1  A    between atoms: C_2  and  C_4
REMARK    2  A    between atoms: N_8  and  C_9
REMARK    3  A    between atoms: C_9  and  C_10
REMARK    4  A    between atoms: C_10  and  C_13
REMARK    5  A    between atoms: C_18  and  O_19
REMARK    6  A    between atoms: O_19  and  C_20
REMARK                            x       y       z     vdW  Elec       q    Type
REMARK                         _______ _______ _______ _____ _____    ______ ____
ROOT
ATOM      1  C   UNL     1      46.442   6.986  12.597  0.00  0.00    +0.000 C 
ATOM      2  F   UNL     1      45.890   7.938  13.409  0.00  0.00    +0.000 F 
ATOM      3  F   UNL     1      47.091   7.681  11.616  0.00  0.00    +0.000 F 
ENDROOT
BRANCH   1   4
ATOM      4  C   UNL     1      45.390   6.062  12.010  0.00  0.00    +0.000 A 
ATOM      5  C   UNL     1      44.035   6.423  12.035  0.00  0.00    +0.000 A 
ATOM      6  C   UNL     1      43.079   5.564  11.507  0.00  0.00    +0.000 A 
ATOM      7  F   UNL     1      41.788   5.916  11.543  0.00  0.00    +0.000 F 
ATOM      8  C   UNL     1      43.441   4.347  10.945  0.00  0.00    +0.000 A 
ATOM      9  C   UNL     1      44.785   3.980  10.895  0.00  0.00    +0.000 A 
ATOM     10  C   UNL     1      45.756   4.826  11.436  0.00  0.00    +0.000 A 
BRANCH   9  11
ATOM     11  O   UNL     1      45.034   2.758  10.326  0.00  0.00    +0.000 OA
BRANCH  11  12
ATOM     12  C   UNL     1      44.958   2.624   8.888  0.00  0.00    +0.000 C 
ATOM     13  C   UNL     1      45.984   1.724   8.185  0.00  0.00    +0.000 C 
ATOM     14  O   UNL     1      46.392   2.797   7.303  0.00  0.00    +0.000 OA
ATOM     15  C   UNL     1      45.636   3.748   8.088  0.00  0.00    +0.000 C 
ENDBRANCH  11  12
ENDBRANCH   9  11
ENDBRANCH   1   4
BRANCH   1  16
ATOM     16  C   UNL     1      47.485   6.190  13.429  0.00  0.00    +0.000 C 
BRANCH  16  21
ATOM     17  C   UNL     1      48.813   4.730  18.154  0.00  0.00    +0.000 A 
ATOM     18  C   UNL     1      49.169   5.870  17.446  0.00  0.00    +0.000 A 
ATOM     19  C   UNL     1      48.559   6.127  16.217  0.00  0.00    +0.000 A 
ATOM     20  C   UNL     1      47.617   5.235  15.711  0.00  0.00    +0.000 A 
ATOM     21  N   UNL     1      46.890   5.475  14.563  0.00  0.00    +0.000 N 
ATOM     22  N   UNL     1      47.299   4.104  16.370  0.00  0.00    +0.000 NA
ATOM     23  C   UNL     1      47.900   3.866  17.566  0.00  0.00    +0.000 A 
ATOM     24  H   UNL     1      46.361   4.634  14.332  0.00  0.00    +0.000 HD
BRANCH  17  26
ATOM     25  N   UNL     1      48.485   3.868  20.397  0.00  0.00    +0.000 N 
ATOM     26  C   UNL     1      49.353   4.416  19.492  0.00  0.00    +0.000 C 
ATOM     27  O   UNL     1      50.531   4.594  19.767  0.00  0.00    +0.000 OA
ATOM     28  H   UNL     1      48.892   3.540  21.265  0.00  0.00    +0.000 HD
ATOM     29  H   UNL     1      47.600   3.467  20.123  0.00  0.00    +0.000 HD
ENDBRANCH  17  26
ENDBRANCH  16  21
ENDBRANCH   1  16
TORSDOF 6
ENDMDL
MODEL 8
REMARK VINA RESULT:    -6.723      4.227      7.356
REMARK INTER + INTRA:          -9.935
REMARK INTER:                  -8.785
REMARK INTRA:                  -1.151
REMARK UNBOUND:                -0.855
REMARK  Name = 
REMARK  6 active torsions:
REMARK  status: ('A' for Active; 'I' for Inactive)
REMARK    1  A    between atoms: C_2  and  C_4
REMARK    2  A    between atoms: N_8  and  C_9
REMARK    3  A    between atoms: C_9  and  C_10
REMARK    4  A    between atoms: C_10  and  C_13
REMARK    5  A    between atoms: C_18  and  O_19
REMARK    6  A    between atoms: O_19  and  C_20
REMARK                            x       y       z     vdW  Elec       q    Type
REMARK                         _______ _______ _______ _____ _____    ______ ____
ROOT
ATOM      1  C   UNL     1      49.119   8.070  12.351  0.00  0.00    +0.000 C 
ATOM      2  F   UNL     1      49.693   9.030  11.564  0.00  0.00    +0.000 F 
ATOM      3  F   UNL     1      49.751   6.906  12.017  0.00  0.00    +0.000 F 
ENDROOT
BRANCH   1   4
ATOM      4  C   UNL     1      47.622   7.967  12.117  0.00  0.00    +0.000 A 
ATOM      5  C   UNL     1      46.783   9.054  12.404  0.00  0.00    +0.000 A 
ATOM      6  C   UNL     1      45.413   8.944  12.199  0.00  0.00    +0.000 A 
ATOM      7  F   UNL     1      44.621   9.985  12.483  0.00  0.00    +0.000 F 
ATOM      8  C   UNL     1      44.853   7.773  11.706  0.00  0.00    +0.000 A 
ATOM      9  C   UNL     1      45.675   6.689  11.398  0.00  0.00    +0.000 A 
ATOM     10  C   UNL     1      47.052   6.779  11.614  0.00  0.00    +0.000 A 
BRANCH   9  11
ATOM     11  O   UNL     1      45.022   5.580  10.924  0.00  0.00    +0.000 OA
BRANCH  11  12
ATOM     12  C   UNL     1      44.023   4.945  11.754  0.00  0.00    +0.000 C 
ATOM     13  C   UNL     1      44.466   4.341  13.093  0.00  0.00    +0.000 C 
ATOM     14  O   UNL     1      43.906   3.050  12.751  0.00  0.00    +0.000 OA
ATOM     15  C   UNL     1      43.696   3.488  11.389  0.00  0.00    +0.000 C 
ENDBRANCH  11  12
ENDBRANCH   9  11
ENDBRANCH   1   4
BRANCH   1  16
ATOM     16  C   UNL     1      49.432   8.409  13.834  0.00  0.00    +0.000 C 
BRANCH  16  21
ATOM     17  C   UNL     1      48.222   4.510  16.923  0.00  0.00    +0.000 A 
ATOM     18  C   UNL     1      47.507   5.057  15.866  0.00  0.00    +0.000 A 
ATOM     19  C   UNL     1      48.111   6.030  15.067  0.00  0.00    +0.000 A 
ATOM     20  C   UNL     1      49.409   6.448  15.347  0.00  0.00    +0.000 A 
ATOM     21  N   UNL     1      50.113   7.318  14.540  0.00  0.00    +0.000 N 
ATOM     22  N   UNL     1      50.093   5.955  16.398  0.00  0.00    +0.000 NA
ATOM     23  C   UNL     1      49.494   5.007  17.167  0.00  0.00    +0.000 A 
ATOM     24  H   UNL     1      50.983   7.566  15.011  0.00  0.00    +0.000 HD
BRANCH  17  26
ATOM     25  N   UNL     1      48.401   3.119  18.903  0.00  0.00    +0.000 N 
ATOM     26  C   UNL     1      47.690   3.426  17.775  0.00  0.00    +0.000 C 
ATOM     27  O   UNL     1      46.640   2.859  17.511  0.00  0.00    +0.000 OA
ATOM     28  H   UNL     1      47.965   2.468  19.544  0.00  0.00    +0.000 HD
ATOM     29  H   UNL     1      49.106   3.736  19.282  0.00  0.00    +0.000 HD
ENDBRANCH  17  26
ENDBRANCH  16  21
ENDBRANCH   1  16
TORSDOF 6
ENDMDL
