MODEL 1
REMARK VINA RESULT:    -8.213      0.000      0.000
REMARK INTER + INTRA:         -10.430
REMARK INTER:                 -10.133
REMARK INTRA:                  -0.297
REMARK UNBOUND:                -0.297
REMARK  Name = 
REMARK  4 active torsions:
REMARK  status: ('A' for Active; 'I' for Inactive)
REMARK    1  A    between atoms: C_2  and  C_4
REMARK    2  A    between atoms: N_9  and  C_10
REMARK    3  A    between atoms: C_10  and  C_11
REMARK    4  A    between atoms: C_14  and  C_15
REMARK                            x       y       z     vdW  Elec       q    Type
REMARK                         _______ _______ _______ _____ _____    ______ ____
ROOT
ATOM      1  C   UNL     1      45.263   8.359  12.161  0.00  0.00    +0.000 A 
ATOM      2  C   UNL     1      46.166   7.729  13.009  0.00  0.00    +0.000 A 
ATOM      3  C   UNL     1      46.161   6.350  13.023  0.00  0.00    +0.000 A 
ATOM      4  N   UNL     1      45.339   5.591  12.263  0.00  0.00    +0.000 NA
ATOM      5  C   UNL     1      44.468   6.206  11.437  0.00  0.00    +0.000 A 
ATOM      6  N   UNL     1      43.562   5.455  10.681  0.00  0.00    +0.000 N 
ATOM      7  C   UNL     1      44.391   7.592  11.383  0.00  0.00    +0.000 A 
ATOM      8  H   UNL     1      43.466   5.834   9.745  0.00  0.00    +0.000 HD
ENDROOT
BRANCH   1  10
ATOM      9  N   UNL     1      43.920  10.393  12.169  0.00  0.00    +0.000 N 
ATOM     10  C   UNL     1      45.168   9.836  12.079  0.00  0.00    +0.000 C 
ATOM     11  O   UNL     1      46.163  10.539  11.973  0.00  0.00    +0.000 OA
ATOM     12  H   UNL     1      43.887  11.404  12.215  0.00  0.00    +0.000 HD
ATOM     13  H   UNL     1      43.118   9.888  12.513  0.00  0.00    +0.000 HD
ENDBRANCH   1  10
BRANCH   6  14
ATOM     14  C   UNL     1      43.727   4.006  10.688  0.00  0.00    +0.000 C 
BRANCH  14  15
ATOM     15  C   UNL     1      44.635   3.526   9.586  0.00  0.00    +0.000 A 
ATOM     16  C   UNL     1      44.966   2.179   9.432  0.00  0.00    +0.000 A 
ATOM     17  C   UNL     1      45.826   1.785   8.406  0.00  0.00    +0.000 A 
ATOM     18  C   UNL     1      46.339   2.748   7.534  0.00  0.00    +0.000 A 
ATOM     19  N   UNL     1      46.020   4.067   7.667  0.00  0.00    +0.000 NA
ATOM     20  C   UNL     1      45.186   4.420   8.675  0.00  0.00    +0.000 A 
BRANCH  18  21
ATOM     21  C   UNL     1      47.271   2.331   6.401  0.00  0.00    +0.000 C 
ATOM     22  F   UNL     1      46.954   2.910   5.203  0.00  0.00    +0.000 F 
ATOM     23  F   UNL     1      48.573   2.668   6.627  0.00  0.00    +0.000 F 
ATOM     24  F   UNL     1      47.263   0.988   6.164  0.00  0.00    +0.000 F 
ENDBRANCH  18  21
ENDBRANCH  14  15
ENDBRANCH   6  14
TORSDOF 4
ENDMDL
MODEL 2
REMARK VINA RESULT:    -8.165      1.836      2.341
REMARK INTER + INTRA:         -10.371
REMARK INTER:                 -10.036
REMARK INTRA:                  -0.335
REMARK UNBOUND:                -0.297
REMARK  Name = 
REMARK  4 active torsions:
REMARK  status: ('A' for Active; 'I' for Inactive)
REMARK    1  A    between atoms: C_2  and  C_4
REMARK    2  A    between atoms: N_9  and  C_10
REMARK    3  A    between atoms: C_10  and  C_11
REMARK    4  A    between atoms: C_14  and  C_15
REMARK                            x       y       z     vdW  Elec       q    Type
REMARK                         _______ _______ _______ _____ _____    ______ ____
ROOT
ATOM      1  C   UNL     1      46.978   6.744  13.285  0.00  0.00    +0.000 A 
ATOM      2  C   UNL     1      47.140   5.518  13.920  0.00  0.00    +0.000 A 
ATOM      3  C   UNL     1      46.373   4.467  13.465  0.00  0.00    +0.000 A 
ATOM      4  N   UNL     1      45.489   4.562  12.447  0.00  0.00    +0.000 NA
ATOM      5  C   UNL     1      45.338   5.752  11.829  0.00  0.00    +0.000 A 
ATOM      6  N   UNL     1      44.390   5.904  10.812  0.00  0.00    +0.000 N 
ATOM      7  C   UNL     1      46.053   6.869  12.244  0.00  0.00    +0.000 A 
ATOM      8  H   UNL     1      44.754   6.474  10.056  0.00  0.00    +0.000 HD
ENDROOT
BRANCH   1  10
ATOM      9  N   UNL     1      47.077   8.874  14.465  0.00  0.00    +0.000 N 
ATOM     10  C   UNL     1      47.736   7.947  13.702  0.00  0.00    +0.000 C 
ATOM     11  O   UNL     1      48.915   8.096  13.414  0.00  0.00    +0.000 OA
ATOM     12  H   UNL     1      47.640   9.635  14.825  0.00  0.00    +0.000 HD
ATOM     13  H   UNL     1      46.208   8.677  14.938  0.00  0.00    +0.000 HD
ENDBRANCH   1  10
BRANCH   6  14
ATOM     14  C   UNL     1      43.722   4.698  10.337  0.00  0.00    +0.000 C 
BRANCH  14  15
ATOM     15  C   UNL     1      44.612   3.856   9.460  0.00  0.00    +0.000 A 
ATOM     16  C   UNL     1      45.428   4.418   8.477  0.00  0.00    +0.000 A 
ATOM     17  C   UNL     1      46.222   3.595   7.676  0.00  0.00    +0.000 A 
ATOM     18  C   UNL     1      46.199   2.213   7.879  0.00  0.00    +0.000 A 
ATOM     19  N   UNL     1      45.413   1.650   8.840  0.00  0.00    +0.000 NA
ATOM     20  C   UNL     1      44.649   2.474   9.598  0.00  0.00    +0.000 A 
BRANCH  18  21
ATOM     21  C   UNL     1      47.070   1.302   7.020  0.00  0.00    +0.000 C 
ATOM     22  F   UNL     1      48.410   1.486   7.228  0.00  0.00    +0.000 F 
ATOM     23  F   UNL     1      46.851  -0.024   7.253  0.00  0.00    +0.000 F 
ATOM     24  F   UNL     1      46.886   1.488   5.682  0.00  0.00    +0.000 F 
ENDBRANCH  18  21
ENDBRANCH  14  15
ENDBRANCH   6  14
TORSDOF 4
ENDMDL
MODEL 3
REMARK VINA RESULT:    -8.047      2.669      3.480
REMARK INTER + INTRA:         -10.225
REMARK INTER:                  -9.819
REMARK INTRA:                  -0.405
REMARK UNBOUND:                -0.297
REMARK  Name = 
REMARK  4 active torsions:
REMARK  status: ('A' for Active; 'I' for Inactive)
REMARK    1  A    between atoms: C_2  and  C_4
REMARK    2  A    between atoms: N_9  and  C_10
REMARK    3  A    between atoms: C_10  and  C_11
REMARK    4  A    between atoms: C_14  and  C_15
REMARK                            x       y       z     vdW  Elec       q    Type
REMARK                         _______ _______ _______ _____ _____    ______ ____
ROOT
ATOM      1  C   UNL     1      47.069   5.015  14.600  0.00  0.00    +0.000 A 
ATOM      2  C   UNL     1      47.768   6.017  13.939  0.00  0.00    +0.000 A 
ATOM      3  C   UNL     1      47.354   6.338  12.663  0.00  0.00    +0.000 A 
ATOM      4  N   UNL     1      46.317   5.741  12.034  0.00  0.00    +0.000 NA
ATOM      5  C   UNL     1      45.637   4.772  12.681  0.00  0.00    +0.000 A 
ATOM      6  N   UNL     1      44.596   4.091  12.041  0.00  0.00    +0.000 N 
ATOM      7  C   UNL     1      46.006   4.371  13.959  0.00  0.00    +0.000 A 
ATOM      8  H   UNL     1      43.819   3.934  12.673  0.00  0.00    +0.000 HD
ENDROOT
BRANCH   1  10
ATOM      9  N   UNL     1      47.909   5.530  16.829  0.00  0.00    +0.000 N 
ATOM     10  C   UNL     1      47.438   4.576  15.968  0.00  0.00    +0.000 C 
ATOM     11  O   UNL     1      47.294   3.418  16.331  0.00  0.00    +0.000 OA
ATOM     12  H   UNL     1      48.057   5.232  17.786  0.00  0.00    +0.000 HD
ATOM     13  H   UNL     1      47.800   6.519  16.665  0.00  0.00    +0.000 HD
ENDBRANCH   1  10
BRANCH   6  14
ATOM     14  C   UNL     1      44.172   4.593  10.739  0.00  0.00    +0.000 C 
BRANCH  14  15
ATOM     15  C   UNL     1      44.921   3.946   9.603  0.00  0.00    +0.000 A 
ATOM     16  C   UNL     1      44.992   2.560   9.457  0.00  0.00    +0.000 A 
ATOM     17  C   UNL     1      45.714   2.007   8.398  0.00  0.00    +0.000 A 
ATOM     18  C   UNL     1      46.349   2.853   7.486  0.00  0.00    +0.000 A 
ATOM     19  N   UNL     1      46.284   4.209   7.611  0.00  0.00    +0.000 NA
ATOM     20  C   UNL     1      45.580   4.716   8.652  0.00  0.00    +0.000 A 
BRANCH  18  21
ATOM     21  C   UNL     1      47.132   2.263   6.317  0.00  0.00    +0.000 C 
ATOM     22  F   UNL     1      48.474   2.517   6.386  0.00  0.00    +0.000 F 
ATOM     23  F   UNL     1      47.028   0.906   6.233  0.00  0.00    +0.000 F 
ATOM     24  F   UNL     1      46.737   2.749   5.106  0.00  0.00    +0.000 F 
ENDBRANCH  18  21
ENDBRANCH  14  15
ENDBRANCH   6  14
TORSDOF 4
ENDMDL
MODEL 4
REMARK VINA RESULT:    -7.823      4.796      7.378
REMARK INTER + INTRA:          -9.949
REMARK INTER:                  -9.690
REMARK INTRA:                  -0.260
REMARK UNBOUND:                -0.297
REMARK  Name = 
REMARK  4 active torsions:
REMARK  status: ('A' for Active; 'I' for Inactive)
REMARK    1  A    between atoms: C_2  and  C_4
REMARK    2  A    between atoms: N_9  and  C_10
REMARK    3  A    between atoms: C_10  and  C_11
REMARK    4  A    between atoms: C_14  and  C_15
REMARK                            x       y       z     vdW  Elec       q    Type
REMARK                         _______ _______ _______ _____ _____    ______ ____
ROOT
ATOM      1  C   UNL     1      46.512   2.905   7.289  0.00  0.00    +0.000 A 
ATOM      2  C   UNL     1      45.939   1.818   7.938  0.00  0.00    +0.000 A 
ATOM      3  C   UNL     1      45.252   2.072   9.106  0.00  0.00    +0.000 A 
ATOM      4  N   UNL     1      45.104   3.305   9.641  0.00  0.00    +0.000 NA
ATOM      5  C   UNL     1      45.658   4.359   9.005  0.00  0.00    +0.000 A 
ATOM      6  N   UNL     1      45.577   5.640   9.560  0.00  0.00    +0.000 N 
ATOM      7  C   UNL     1      46.390   4.185   7.837  0.00  0.00    +0.000 A 
ATOM      8  H   UNL     1      45.398   6.337   8.845  0.00  0.00    +0.000 HD
ENDROOT
BRANCH   1  10
ATOM      9  N   UNL     1      48.614   2.420   6.154  0.00  0.00    +0.000 N 
ATOM     10  C   UNL     1      47.289   2.746   6.036  0.00  0.00    +0.000 C 
ATOM     11  O   UNL     1      46.767   2.862   4.937  0.00  0.00    +0.000 OA
ATOM     12  H   UNL     1      49.100   2.215   5.289  0.00  0.00    +0.000 HD
ATOM     13  H   UNL     1      49.017   2.063   7.007  0.00  0.00    +0.000 HD
ENDBRANCH   1  10
BRANCH   6  14
ATOM     14  C   UNL     1      44.728   5.807  10.734  0.00  0.00    +0.000 C 
BRANCH  14  15
ATOM     15  C   UNL     1      45.448   5.468  12.014  0.00  0.00    +0.000 A 
ATOM     16  C   UNL     1      46.592   6.154  12.425  0.00  0.00    +0.000 A 
ATOM     17  C   UNL     1      47.235   5.792  13.609  0.00  0.00    +0.000 A 
ATOM     18  C   UNL     1      46.714   4.750  14.380  0.00  0.00    +0.000 A 
ATOM     19  N   UNL     1      45.593   4.075  13.997  0.00  0.00    +0.000 NA
ATOM     20  C   UNL     1      44.994   4.446  12.840  0.00  0.00    +0.000 A 
BRANCH  18  21
ATOM     21  C   UNL     1      47.399   4.351  15.683  0.00  0.00    +0.000 C 
ATOM     22  F   UNL     1      48.479   5.133  15.986  0.00  0.00    +0.000 F 
ATOM     23  F   UNL     1      46.578   4.440  16.769  0.00  0.00    +0.000 F 
ATOM     24  F   UNL     1      47.874   3.072  15.672  0.00  0.00    +0.000 F 
ENDBRANCH  18  21
ENDBRANCH  14  15
ENDBRANCH   6  14
TORSDOF 4
ENDMDL
MODEL 5
REMARK VINA RESULT:    -7.692      4.426      7.189
REMARK INTER + INTRA:          -9.787
REMARK INTER:                  -9.944
REMARK INTRA:                   0.157
REMARK UNBOUND:                -0.297
REMARK  Name = 
REMARK  4 active torsions:
REMARK  status: ('A' for Active; 'I' for Inactive)
REMARK    1  A    between atoms: C_2  and  C_4
REMARK    2  A    between atoms: N_9  and  C_10
REMARK    3  A    between atoms: C_10  and  C_11
REMARK    4  A    between atoms: C_14  and  C_15
REMARK                            x       y       z     vdW  Elec       q    Type
REMARK                         _______ _______ _______ _____ _____    ______ ____
ROOT
ATOM      1  C   UNL     1      46.345   2.129   7.890  0.00  0.00    +0.000 A 
ATOM      2  C   UNL     1      46.361   3.413   7.356  0.00  0.00    +0.000 A 
ATOM      3  C   UNL     1      45.579   4.363   7.977  0.00  0.00    +0.000 A 
ATOM      4  N   UNL     1      44.812   4.117   9.063  0.00  0.00    +0.000 NA
ATOM      5  C   UNL     1      44.803   2.872   9.582  0.00  0.00    +0.000 A 
ATOM      6  N   UNL     1      43.977   2.566  10.669  0.00  0.00    +0.000 N 
ATOM      7  C   UNL     1      45.543   1.850   9.000  0.00  0.00    +0.000 A 
ATOM      8  H   UNL     1      44.454   1.963  11.331  0.00  0.00    +0.000 HD
ENDROOT
BRANCH   1  10
ATOM      9  N   UNL     1      46.803  -0.253   7.659  0.00  0.00    +0.000 N 
ATOM     10  C   UNL     1      47.133   1.024   7.293  0.00  0.00    +0.000 C 
ATOM     11  O   UNL     1      48.019   1.235   6.477  0.00  0.00    +0.000 OA
ATOM     12  H   UNL     1      47.282  -0.995   7.163  0.00  0.00    +0.000 HD
ATOM     13  H   UNL     1      45.932  -0.486   8.112  0.00  0.00    +0.000 HD
ENDBRANCH   1  10
BRANCH   6  14
ATOM     14  C   UNL     1      43.285   3.675  11.314  0.00  0.00    +0.000 C 
BRANCH  14  15
ATOM     15  C   UNL     1      44.237   4.715  11.845  0.00  0.00    +0.000 A 
ATOM     16  C   UNL     1      45.294   4.386  12.695  0.00  0.00    +0.000 A 
ATOM     17  C   UNL     1      46.140   5.387  13.176  0.00  0.00    +0.000 A 
ATOM     18  C   UNL     1      45.923   6.711  12.789  0.00  0.00    +0.000 A 
ATOM     19  N   UNL     1      44.898   7.048  11.954  0.00  0.00    +0.000 NA
ATOM     20  C   UNL     1      44.092   6.055  11.507  0.00  0.00    +0.000 A 
BRANCH  18  21
ATOM     21  C   UNL     1      46.845   7.815  13.297  0.00  0.00    +0.000 C 
ATOM     22  F   UNL     1      47.668   8.317  12.327  0.00  0.00    +0.000 F 
ATOM     23  F   UNL     1      46.170   8.894  13.787  0.00  0.00    +0.000 F 
ATOM     24  F   UNL     1      47.677   7.403  14.295  0.00  0.00    +0.000 F 
ENDBRANCH  18  21
ENDBRANCH  14  15
ENDBRANCH   6  14
TORSDOF 4
ENDMDL
MODEL 6
REMARK VINA RESULT:    -7.294      1.549      2.137
REMARK INTER + INTRA:          -9.296
REMARK INTER:                  -8.850
REMARK INTRA:                  -0.446
REMARK UNBOUND:                -0.297
REMARK  Name = 
REMARK  4 active torsions:
REMARK  status: ('A' for Active; 'I' for Inactive)
REMARK    1  A    between atoms: C_2  and  C_4
REMARK    2  A    between atoms: N_9  and  C_10
REMARK    3  A    between atoms: C_10  and  C_11
REMARK    4  A    between atoms: C_14  and  C_15
REMARK                            x       y       z     vdW  Elec       q    Type
REMARK                         _______ _______ _______ _____ _____    ______ ____
ROOT
ATOM      1  C   UNL     1      46.536   8.633  13.044  0.00  0.00    +0.000 A 
ATOM      2  C   UNL     1      45.664   9.416  12.295  0.00  0.00    +0.000 A 
ATOM      3  C   UNL     1      44.815   8.761  11.429  0.00  0.00    +0.000 A 
ATOM      4  N   UNL     1      44.783   7.417  11.276  0.00  0.00    +0.000 NA
ATOM      5  C   UNL     1      45.626   6.661  12.008  0.00  0.00    +0.000 A 
ATOM      6  N   UNL     1      45.663   5.273  11.833  0.00  0.00    +0.000 N 
ATOM      7  C   UNL     1      46.533   7.245  12.885  0.00  0.00    +0.000 A 
ATOM      8  H   UNL     1      45.753   4.796  12.723  0.00  0.00    +0.000 HD
ENDROOT
BRANCH   1  10
ATOM      9  N   UNL     1      47.408   8.863  15.308  0.00  0.00    +0.000 N 
ATOM     10  C   UNL     1      47.505   9.232  13.993  0.00  0.00    +0.000 C 
ATOM     11  O   UNL     1      48.383   9.996  13.618  0.00  0.00    +0.000 OA
ATOM     12  H   UNL     1      48.141   9.201  15.920  0.00  0.00    +0.000 HD
ATOM     13  H   UNL     1      46.885   8.057  15.614  0.00  0.00    +0.000 HD
ENDBRANCH   1  10
BRANCH   6  14
ATOM     14  C   UNL     1      44.641   4.682  10.977  0.00  0.00    +0.000 C 
BRANCH  14  15
ATOM     15  C   UNL     1      45.229   4.014   9.760  0.00  0.00    +0.000 A 
ATOM     16  C   UNL     1      45.227   2.627   9.602  0.00  0.00    +0.000 A 
ATOM     17  C   UNL     1      45.799   2.054   8.466  0.00  0.00    +0.000 A 
ATOM     18  C   UNL     1      46.360   2.881   7.490  0.00  0.00    +0.000 A 
ATOM     19  N   UNL     1      46.364   4.238   7.627  0.00  0.00    +0.000 NA
ATOM     20  C   UNL     1      45.805   4.765   8.743  0.00  0.00    +0.000 A 
BRANCH  18  21
ATOM     21  C   UNL     1      46.979   2.271   6.238  0.00  0.00    +0.000 C 
ATOM     22  F   UNL     1      46.862   0.909   6.188  0.00  0.00    +0.000 F 
ATOM     23  F   UNL     1      46.409   2.720   5.083  0.00  0.00    +0.000 F 
ATOM     24  F   UNL     1      48.315   2.520   6.122  0.00  0.00    +0.000 F 
ENDBRANCH  18  21
ENDBRANCH  14  15
ENDBRANCH   6  14
TORSDOF 4
ENDMDL
MODEL 7
REMARK VINA RESULT:    -6.344      5.526      7.067
REMARK INTER + INTRA:          -8.124
REMARK INTER:                  -7.760
REMARK INTRA:                  -0.365
REMARK UNBOUND:                -0.297
REMARK  Name = 
REMARK  4 active torsions:
REMARK  status: ('A' for Active; 'I' for Inactive)
REMARK    1  A    between atoms: C_2  and  C_4
REMARK    2  A    between atoms: N_9  and  C_10
REMARK    3  A    between atoms: C_10  and  C_11
REMARK    4  A    between atoms: C_14  and  C_15
REMARK                            x       y       z     vdW  Elec       q    Type
REMARK                         _______ _______ _______ _____ _____    ______ ____
ROOT
ATOM      1  C   UNL     1      49.632   5.224  18.787  0.00  0.00    +0.000 A 
ATOM      2  C   UNL     1      50.861   5.699  18.346  0.00  0.00    +0.000 A 
ATOM      3  C   UNL     1      50.949   6.090  17.027  0.00  0.00    +0.000 A 
ATOM      4  N   UNL     1      49.916   6.041  16.155  0.00  0.00    +0.000 NA
ATOM      5  C   UNL     1      48.723   5.584  16.588  0.00  0.00    +0.000 A 
ATOM      6  N   UNL     1      47.649   5.464  15.700  0.00  0.00    +0.000 N 
ATOM      7  C   UNL     1      48.558   5.145  17.896  0.00  0.00    +0.000 A 
ATOM      8  H   UNL     1      46.781   5.757  16.135  0.00  0.00    +0.000 HD
ENDROOT
BRANCH   1  10
ATOM      9  N   UNL     1      48.455   3.819  20.394  0.00  0.00    +0.000 N 
ATOM     10  C   UNL     1      49.428   4.759  20.181  0.00  0.00    +0.000 C 
ATOM     11  O   UNL     1      50.122   5.165  21.102  0.00  0.00    +0.000 OA
ATOM     12  H   UNL     1      48.402   3.439  21.332  0.00  0.00    +0.000 HD
ATOM     13  H   UNL     1      48.047   3.273  19.650  0.00  0.00    +0.000 HD
ENDBRANCH   1  10
BRANCH   6  14
ATOM     14  C   UNL     1      47.824   6.015  14.362  0.00  0.00    +0.000 C 
BRANCH  14  15
ATOM     15  C   UNL     1      46.854   5.429  13.369  0.00  0.00    +0.000 A 
ATOM     16  C   UNL     1      46.568   6.056  12.155  0.00  0.00    +0.000 A 
ATOM     17  C   UNL     1      45.649   5.483  11.274  0.00  0.00    +0.000 A 
ATOM     18  C   UNL     1      45.033   4.277  11.616  0.00  0.00    +0.000 A 
ATOM     19  N   UNL     1      45.307   3.649  12.795  0.00  0.00    +0.000 NA
ATOM     20  C   UNL     1      46.200   4.231  13.631  0.00  0.00    +0.000 A 
BRANCH  18  21
ATOM     21  C   UNL     1      44.034   3.634  10.660  0.00  0.00    +0.000 C 
ATOM     22  F   UNL     1      43.014   2.986  11.301  0.00  0.00    +0.000 F 
ATOM     23  F   UNL     1      43.424   4.533   9.836  0.00  0.00    +0.000 F 
ATOM     24  F   UNL     1      44.598   2.696   9.845  0.00  0.00    +0.000 F 
ENDBRANCH  18  21
ENDBRANCH  14  15
ENDBRANCH   6  14
TORSDOF 4
ENDMDL
MODEL 8
REMARK VINA RESULT:    -6.052      5.685      7.320
REMARK INTER + INTRA:          -7.764
REMARK INTER:                  -7.327
REMARK INTRA:                  -0.437
REMARK UNBOUND:                -0.297
REMARK  Name = 
REMARK  4 active torsions:
REMARK  status: ('A' for Active; 'I' for Inactive)
REMARK    1  A    between atoms: C_2  and  C_4
REMARK    2  A    between atoms: N_9  and  C_10
REMARK    3  A    between atoms: C_10  and  C_11
REMARK    4  A    between atoms: C_14  and  C_15
REMARK                            x       y       z     vdW  Elec       q    Type
REMARK                         _______ _______ _______ _____ _____    ______ ____
ROOT
ATOM      1  C   UNL     1      48.432   4.919  18.924  0.00  0.00    +0.000 A 
ATOM      2  C   UNL     1      48.624   3.593  18.555  0.00  0.00    +0.000 A 
ATOM      3  C   UNL     1      48.629   3.309  17.206  0.00  0.00    +0.000 A 
ATOM      4  N   UNL     1      48.464   4.239  16.238  0.00  0.00    +0.000 NA
ATOM      5  C   UNL     1      48.284   5.526  16.600  0.00  0.00    +0.000 A 
ATOM      6  N   UNL     1      48.051   6.506  15.629  0.00  0.00    +0.000 N 
ATOM      7  C   UNL     1      48.239   5.893  17.939  0.00  0.00    +0.000 A 
ATOM      8  H   UNL     1      48.551   7.361  15.847  0.00  0.00    +0.000 HD
ENDROOT
BRANCH   1  10
ATOM      9  N   UNL     1      47.162   5.613  20.886  0.00  0.00    +0.000 N 
ATOM     10  C   UNL     1      48.390   5.337  20.346  0.00  0.00    +0.000 C 
ATOM     11  O   UNL     1      49.404   5.398  21.028  0.00  0.00    +0.000 OA
ATOM     12  H   UNL     1      47.145   5.794  21.882  0.00  0.00    +0.000 HD
ATOM     13  H   UNL     1      46.297   5.329  20.451  0.00  0.00    +0.000 HD
ENDBRANCH   1  10
BRANCH   6  14
ATOM     14  C   UNL     1      48.194   6.110  14.234  0.00  0.00    +0.000 C 
BRANCH  14  15
ATOM     15  C   UNL     1      46.866   5.998  13.530  0.00  0.00    +0.000 A 
ATOM     16  C   UNL     1      46.021   4.901  13.713  0.00  0.00    +0.000 A 
ATOM     17  C   UNL     1      44.809   4.834  13.026  0.00  0.00    +0.000 A 
ATOM     18  C   UNL     1      44.448   5.875  12.168  0.00  0.00    +0.000 A 
ATOM     19  N   UNL     1      45.259   6.956  11.984  0.00  0.00    +0.000 NA
ATOM     20  C   UNL     1      46.432   6.991  12.661  0.00  0.00    +0.000 A 
BRANCH  18  21
ATOM     21  C   UNL     1      43.121   5.821  11.419  0.00  0.00    +0.000 C 
ATOM     22  F   UNL     1      43.189   5.106  10.254  0.00  0.00    +0.000 F 
ATOM     23  F   UNL     1      42.122   5.235  12.139  0.00  0.00    +0.000 F 
ATOM     24  F   UNL     1      42.656   7.051  11.057  0.00  0.00    +0.000 F 
ENDBRANCH  18  21
ENDBRANCH  14  15
ENDBRANCH   6  14
TORSDOF 4
ENDMDL
MODEL 9
REMARK VINA RESULT:    -5.780      6.555      8.573
REMARK INTER + INTRA:          -7.428
REMARK INTER:                  -7.058
REMARK INTRA:                  -0.370
REMARK UNBOUND:                -0.297
REMARK  Name = 
REMARK  4 active torsions:
REMARK  status: ('A' for Active; 'I' for Inactive)
REMARK    1  A    between atoms: C_2  and  C_4
REMARK    2  A    between atoms: N_9  and  C_10
REMARK    3  A    between atoms: C_10  and  C_11
REMARK    4  A    between atoms: C_14  and  C_15
REMARK                            x       y       z     vdW  Elec       q    Type
REMARK                         _______ _______ _______ _____ _____    ______ ____
ROOT
ATOM      1  C   UNL     1      44.524   6.990  11.882  0.00  0.00    +0.000 A 
ATOM      2  C   UNL     1      43.794   5.872  11.495  0.00  0.00    +0.000 A 
ATOM      3  C   UNL     1      44.150   4.663  12.054  0.00  0.00    +0.000 A 
ATOM      4  N   UNL     1      45.151   4.511  12.949  0.00  0.00    +0.000 NA
ATOM      5  C   UNL     1      45.854   5.600  13.327  0.00  0.00    +0.000 A 
ATOM      6  N   UNL     1      46.934   5.472  14.206  0.00  0.00    +0.000 N 
ATOM      7  C   UNL     1      45.577   6.851  12.791  0.00  0.00    +0.000 A 
ATOM      8  H   UNL     1      46.949   6.230  14.880  0.00  0.00    +0.000 HD
ENDROOT
BRANCH   1  10
ATOM      9  N   UNL     1      43.024   8.531  10.733  0.00  0.00    +0.000 N 
ATOM     10  C   UNL     1      44.241   8.337  11.331  0.00  0.00    +0.000 C 
ATOM     11  O   UNL     1      45.042   9.255  11.435  0.00  0.00    +0.000 OA
ATOM     12  H   UNL     1      42.810   9.481  10.457  0.00  0.00    +0.000 HD
ATOM     13  H   UNL     1      42.248   7.898  10.854  0.00  0.00    +0.000 HD
ENDBRANCH   1  10
BRANCH   6  14
ATOM     14  C   UNL     1      47.143   4.167  14.822  0.00  0.00    +0.000 C 
BRANCH  14  15
ATOM     15  C   UNL     1      47.697   4.275  16.220  0.00  0.00    +0.000 A 
ATOM     16  C   UNL     1      47.666   3.203  17.113  0.00  0.00    +0.000 A 
ATOM     17  C   UNL     1      48.175   3.356  18.404  0.00  0.00    +0.000 A 
ATOM     18  C   UNL     1      48.724   4.583  18.782  0.00  0.00    +0.000 A 
ATOM     19  N   UNL     1      48.769   5.637  17.919  0.00  0.00    +0.000 NA
ATOM     20  C   UNL     1      48.263   5.460  16.674  0.00  0.00    +0.000 A 
BRANCH  18  21
ATOM     21  C   UNL     1      49.295   4.762  20.185  0.00  0.00    +0.000 C 
ATOM     22  F   UNL     1      48.639   4.024  21.132  0.00  0.00    +0.000 F 
ATOM     23  F   UNL     1      50.603   4.388  20.283  0.00  0.00    +0.000 F 
ATOM     24  F   UNL     1      49.235   6.050  20.630  0.00  0.00    +0.000 F 
ENDBRANCH  18  21
ENDBRANCH  14  15
ENDBRANCH   6  14
TORSDOF 4
ENDMDL
