MODEL 1
REMARK VINA RESULT:    -8.408      0.000      0.000
REMARK INTER + INTRA:         -12.363
REMARK INTER:                 -11.357
REMARK INTRA:                  -1.006
REMARK UNBOUND:                -1.006
REMARK  Name = 
REMARK  6 active torsions:
REMARK  status: ('A' for Active; 'I' for Inactive)
REMARK    1  A    between atoms: C_2  and  C_25
REMARK    2  A    between atoms: N_3  and  C_4
REMARK    3  A    between atoms: C_4  and  C_5
REMARK    4  A    between atoms: C_8  and  C_9
REMARK    5  A    between atoms: C_9  and  N_10
REMARK    6  A    between atoms: C_11  and  C_13
REMARK                            x       y       z     vdW  Elec       q    Type
REMARK                         _______ _______ _______ _____ _____    ______ ____
ROOT
ATOM      1  C   UNL     1      44.970   6.243  11.294  0.00  0.00    +0.000 A 
ATOM      2  C   UNL     1      44.574   7.528  11.684  0.00  0.00    +0.000 A 
ATOM      3  C   UNL     1      45.379   8.296  12.531  0.00  0.00    +0.000 A 
ATOM      4  C   UNL     1      46.607   7.801  12.990  0.00  0.00    +0.000 A 
ATOM      5  C   UNL     1      46.998   6.510  12.607  0.00  0.00    +0.000 A 
ATOM      6  C   UNL     1      46.193   5.744  11.759  0.00  0.00    +0.000 A 
ENDROOT
BRANCH   1   7
ATOM      7  C   UNL     1      44.103   5.414  10.384  0.00  0.00    +0.000 C 
BRANCH   7  10
ATOM      8  O   UNL     1      44.293   2.621  10.213  0.00  0.00    +0.000 OA
ATOM      9  C   UNL     1      44.893   3.312   9.395  0.00  0.00    +0.000 C 
ATOM     10  N   UNL     1      44.871   4.689   9.406  0.00  0.00    +0.000 N 
ATOM     11  H   UNL     1      45.409   5.176   8.694  0.00  0.00    +0.000 HD
BRANCH   9  12
ATOM     12  C   UNL     1      45.701   2.694   8.294  0.00  0.00    +0.000 A 
ATOM     13  C   UNL     1      46.030   3.454   7.178  0.00  0.00    +0.000 A 
ATOM     14  C   UNL     1      46.801   2.864   6.182  0.00  0.00    +0.000 A 
ATOM     15  C   UNL     1      47.213   1.543   6.334  0.00  0.00    +0.000 A 
ATOM     16  C   UNL     1      46.834   0.861   7.482  0.00  0.00    +0.000 A 
ATOM     17  N   UNL     1      46.084   1.398   8.472  0.00  0.00    +0.000 NA
ENDBRANCH   9  12
ENDBRANCH   7  10
ENDBRANCH   1   7
BRANCH   4  18
ATOM     18  C   UNL     1      47.481   8.620  13.904  0.00  0.00    +0.000 C 
BRANCH  18  19
ATOM     19  N   UNL     1      47.891   7.861  15.059  0.00  0.00    +0.000 N 
ATOM     20  C   UNL     1      49.154   7.331  15.147  0.00  0.00    +0.000 C 
ATOM     21  O   UNL     1      49.994   7.519  14.272  0.00  0.00    +0.000 OA
ATOM     22  H   UNL     1      47.154   7.503  15.659  0.00  0.00    +0.000 HD
BRANCH  20  23
ATOM     23  C   UNL     1      49.471   6.577  16.364  0.00  0.00    +0.000 A 
ATOM     24  C   UNL     1      50.492   7.019  17.196  0.00  0.00    +0.000 A 
ATOM     25  S   UNL     1      50.691   6.070  18.599  0.00  0.00    +0.000 S 
ATOM     26  C   UNL     1      49.456   5.004  18.119  0.00  0.00    +0.000 A 
ATOM     27  N   UNL     1      49.124   3.929  18.884  0.00  0.00    +0.000 NA
ATOM     28  C   UNL     1      48.195   3.185  18.384  0.00  0.00    +0.000 A 
ATOM     29  N   UNL     1      47.565   3.421  17.189  0.00  0.00    +0.000 N 
ATOM     30  C   UNL     1      47.847   4.508  16.397  0.00  0.00    +0.000 A 
ATOM     31  O   UNL     1      47.241   4.708  15.350  0.00  0.00    +0.000 OA
ATOM     32  C   UNL     1      48.891   5.374  16.911  0.00  0.00    +0.000 A 
ATOM     33  H   UNL     1      46.841   2.801  16.855  0.00  0.00    +0.000 HD
ENDBRANCH  20  23
ENDBRANCH  18  19
ENDBRANCH   4  18
TORSDOF 6
ENDMDL
MODEL 2
REMARK VINA RESULT:    -7.505      2.043      2.567
REMARK INTER + INTRA:         -11.143
REMARK INTER:                 -10.194
REMARK INTRA:                  -0.949
REMARK UNBOUND:                -1.006
REMARK  Name = 
REMARK  6 active torsions:
REMARK  status: ('A' for Active; 'I' for Inactive)
REMARK    1  A    between atoms: C_2  and  C_25
REMARK    2  A    between atoms: N_3  and  C_4
REMARK    3  A    between atoms: C_4  and  C_5
REMARK    4  A    between atoms: C_8  and  C_9
REMARK    5  A    between atoms: C_9  and  N_10
REMARK    6  A    between atoms: C_11  and  C_13
REMARK                            x       y       z     vdW  Elec       q    Type
REMARK                         _______ _______ _______ _____ _____    ______ ____
ROOT
ATOM      1  C   UNL     1      45.171   4.930  11.890  0.00  0.00    +0.000 A 
ATOM      2  C   UNL     1      46.099   4.457  12.826  0.00  0.00    +0.000 A 
ATOM      3  C   UNL     1      46.959   5.340  13.487  0.00  0.00    +0.000 A 
ATOM      4  C   UNL     1      46.893   6.718  13.239  0.00  0.00    +0.000 A 
ATOM      5  C   UNL     1      45.970   7.190  12.296  0.00  0.00    +0.000 A 
ATOM      6  C   UNL     1      45.111   6.306  11.636  0.00  0.00    +0.000 A 
ENDROOT
BRANCH   1   7
ATOM      7  C   UNL     1      44.247   3.980  11.176  0.00  0.00    +0.000 C 
BRANCH   7  10
ATOM      8  O   UNL     1      44.806   4.736   8.533  0.00  0.00    +0.000 OA
ATOM      9  C   UNL     1      45.177   3.636   8.931  0.00  0.00    +0.000 C 
ATOM     10  N   UNL     1      44.938   3.171  10.205  0.00  0.00    +0.000 N 
ATOM     11  H   UNL     1      45.273   2.240  10.439  0.00  0.00    +0.000 HD
BRANCH   9  12
ATOM     12  C   UNL     1      45.942   2.702   8.042  0.00  0.00    +0.000 A 
ATOM     13  C   UNL     1      46.540   3.194   6.888  0.00  0.00    +0.000 A 
ATOM     14  C   UNL     1      47.264   2.311   6.094  0.00  0.00    +0.000 A 
ATOM     15  C   UNL     1      47.364   0.976   6.476  0.00  0.00    +0.000 A 
ATOM     16  C   UNL     1      46.730   0.575   7.644  0.00  0.00    +0.000 A 
ATOM     17  N   UNL     1      46.016   1.401   8.444  0.00  0.00    +0.000 NA
ENDBRANCH   9  12
ENDBRANCH   7  10
ENDBRANCH   1   7
BRANCH   4  18
ATOM     18  C   UNL     1      47.815   7.677  13.946  0.00  0.00    +0.000 C 
BRANCH  18  19
ATOM     19  N   UNL     1      47.967   7.331  15.338  0.00  0.00    +0.000 N 
ATOM     20  C   UNL     1      49.153   6.839  15.820  0.00  0.00    +0.000 C 
ATOM     21  O   UNL     1      50.141   6.716  15.100  0.00  0.00    +0.000 OA
ATOM     22  H   UNL     1      47.115   7.202  15.875  0.00  0.00    +0.000 HD
BRANCH  20  23
ATOM     23  C   UNL     1      49.205   6.519  17.250  0.00  0.00    +0.000 A 
ATOM     24  C   UNL     1      49.742   5.306  17.662  0.00  0.00    +0.000 A 
ATOM     25  S   UNL     1      49.788   5.117  19.355  0.00  0.00    +0.000 S 
ATOM     26  C   UNL     1      49.043   6.626  19.599  0.00  0.00    +0.000 A 
ATOM     27  N   UNL     1      48.768   7.076  20.853  0.00  0.00    +0.000 NA
ATOM     28  C   UNL     1      48.170   8.219  20.890  0.00  0.00    +0.000 A 
ATOM     29  N   UNL     1      47.824   8.956  19.787  0.00  0.00    +0.000 N 
ATOM     30  C   UNL     1      48.106   8.556  18.502  0.00  0.00    +0.000 A 
ATOM     31  O   UNL     1      47.814   9.255  17.538  0.00  0.00    +0.000 OA
ATOM     32  C   UNL     1      48.774   7.271  18.404  0.00  0.00    +0.000 A 
ATOM     33  H   UNL     1      47.361   9.847  19.885  0.00  0.00    +0.000 HD
ENDBRANCH  20  23
ENDBRANCH  18  19
ENDBRANCH   4  18
TORSDOF 6
ENDMDL
MODEL 3
REMARK VINA RESULT:    -7.429      2.591      3.703
REMARK INTER + INTRA:         -11.041
REMARK INTER:                 -10.033
REMARK INTRA:                  -1.008
REMARK UNBOUND:                -1.006
REMARK  Name = 
REMARK  6 active torsions:
REMARK  status: ('A' for Active; 'I' for Inactive)
REMARK    1  A    between atoms: C_2  and  C_25
REMARK    2  A    between atoms: N_3  and  C_4
REMARK    3  A    between atoms: C_4  and  C_5
REMARK    4  A    between atoms: C_8  and  C_9
REMARK    5  A    between atoms: C_9  and  N_10
REMARK    6  A    between atoms: C_11  and  C_13
REMARK                            x       y       z     vdW  Elec       q    Type
REMARK                         _______ _______ _______ _____ _____    ______ ____
ROOT
ATOM      1  C   UNL     1      45.849   5.406  12.003  0.00  0.00    +0.000 A 
ATOM      2  C   UNL     1      46.784   6.332  12.486  0.00  0.00    +0.000 A 
ATOM      3  C   UNL     1      47.430   6.121  13.708  0.00  0.00    +0.000 A 
ATOM      4  C   UNL     1      47.168   4.970  14.464  0.00  0.00    +0.000 A 
ATOM      5  C   UNL     1      46.226   4.050  13.985  0.00  0.00    +0.000 A 
ATOM      6  C   UNL     1      45.581   4.261  12.762  0.00  0.00    +0.000 A 
ENDROOT
BRANCH   1   7
ATOM      7  C   UNL     1      45.151   5.633  10.689  0.00  0.00    +0.000 C 
BRANCH   7  10
ATOM      8  O   UNL     1      44.251   3.188   9.651  0.00  0.00    +0.000 OA
ATOM      9  C   UNL     1      45.243   3.717   9.159  0.00  0.00    +0.000 C 
ATOM     10  N   UNL     1      45.768   4.908   9.609  0.00  0.00    +0.000 N 
ATOM     11  H   UNL     1      46.601   5.263   9.145  0.00  0.00    +0.000 HD
BRANCH   9  12
ATOM     12  C   UNL     1      45.966   3.096   8.002  0.00  0.00    +0.000 A 
ATOM     13  C   UNL     1      46.341   1.759   8.068  0.00  0.00    +0.000 A 
ATOM     14  C   UNL     1      46.989   1.202   6.971  0.00  0.00    +0.000 A 
ATOM     15  C   UNL     1      47.239   1.993   5.853  0.00  0.00    +0.000 A 
ATOM     16  C   UNL     1      46.831   3.320   5.879  0.00  0.00    +0.000 A 
ATOM     17  N   UNL     1      46.199   3.900   6.926  0.00  0.00    +0.000 NA
ENDBRANCH   9  12
ENDBRANCH   7  10
ENDBRANCH   1   7
BRANCH   4  18
ATOM     18  C   UNL     1      47.858   4.735  15.782  0.00  0.00    +0.000 C 
BRANCH  18  19
ATOM     19  N   UNL     1      47.611   5.814  16.705  0.00  0.00    +0.000 N 
ATOM     20  C   UNL     1      48.505   6.113  17.702  0.00  0.00    +0.000 C 
ATOM     21  O   UNL     1      49.566   5.506  17.819  0.00  0.00    +0.000 OA
ATOM     22  H   UNL     1      46.657   6.154  16.769  0.00  0.00    +0.000 HD
BRANCH  20  23
ATOM     23  C   UNL     1      48.160   7.230  18.588  0.00  0.00    +0.000 A 
ATOM     24  C   UNL     1      47.954   6.992  19.940  0.00  0.00    +0.000 A 
ATOM     25  S   UNL     1      47.626   8.403  20.841  0.00  0.00    +0.000 S 
ATOM     26  C   UNL     1      47.695   9.374  19.447  0.00  0.00    +0.000 A 
ATOM     27  N   UNL     1      47.481  10.716  19.519  0.00  0.00    +0.000 NA
ATOM     28  C   UNL     1      47.528  11.325  18.382  0.00  0.00    +0.000 A 
ATOM     29  N   UNL     1      47.775  10.715  17.179  0.00  0.00    +0.000 N 
ATOM     30  C   UNL     1      48.026   9.369  17.061  0.00  0.00    +0.000 A 
ATOM     31  O   UNL     1      48.277   8.860  15.974  0.00  0.00    +0.000 OA
ATOM     32  C   UNL     1      47.977   8.635  18.312  0.00  0.00    +0.000 A 
ATOM     33  H   UNL     1      47.804  11.251  16.324  0.00  0.00    +0.000 HD
ENDBRANCH  20  23
ENDBRANCH  18  19
ENDBRANCH   4  18
TORSDOF 6
ENDMDL
MODEL 4
REMARK VINA RESULT:    -7.017      2.097      3.720
REMARK INTER + INTRA:         -10.484
REMARK INTER:                  -9.428
REMARK INTRA:                  -1.056
REMARK UNBOUND:                -1.006
REMARK  Name = 
REMARK  6 active torsions:
REMARK  status: ('A' for Active; 'I' for Inactive)
REMARK    1  A    between atoms: C_2  and  C_25
REMARK    2  A    between atoms: N_3  and  C_4
REMARK    3  A    between atoms: C_4  and  C_5
REMARK    4  A    between atoms: C_8  and  C_9
REMARK    5  A    between atoms: C_9  and  N_10
REMARK    6  A    between atoms: C_11  and  C_13
REMARK                            x       y       z     vdW  Elec       q    Type
REMARK                         _______ _______ _______ _____ _____    ______ ____
ROOT
ATOM      1  C   UNL     1      45.239   4.833  11.736  0.00  0.00    +0.000 A 
ATOM      2  C   UNL     1      45.854   6.009  12.185  0.00  0.00    +0.000 A 
ATOM      3  C   UNL     1      46.570   6.025  13.386  0.00  0.00    +0.000 A 
ATOM      4  C   UNL     1      46.702   4.860  14.153  0.00  0.00    +0.000 A 
ATOM      5  C   UNL     1      46.078   3.686  13.708  0.00  0.00    +0.000 A 
ATOM      6  C   UNL     1      45.363   3.670  12.507  0.00  0.00    +0.000 A 
ENDROOT
BRANCH   1   7
ATOM      7  C   UNL     1      44.465   4.815  10.445  0.00  0.00    +0.000 C 
BRANCH   7  10
ATOM      8  O   UNL     1      44.573   2.194   9.450  0.00  0.00    +0.000 OA
ATOM      9  C   UNL     1      45.244   3.068   8.908  0.00  0.00    +0.000 C 
ATOM     10  N   UNL     1      45.267   4.378   9.332  0.00  0.00    +0.000 N 
ATOM     11  H   UNL     1      45.863   5.028   8.826  0.00  0.00    +0.000 HD
BRANCH   9  12
ATOM     12  C   UNL     1      46.097   2.767   7.713  0.00  0.00    +0.000 A 
ATOM     13  C   UNL     1      46.773   1.554   7.643  0.00  0.00    +0.000 A 
ATOM     14  C   UNL     1      47.538   1.291   6.512  0.00  0.00    +0.000 A 
ATOM     15  C   UNL     1      47.603   2.241   5.497  0.00  0.00    +0.000 A 
ATOM     16  C   UNL     1      46.897   3.426   5.656  0.00  0.00    +0.000 A 
ATOM     17  N   UNL     1      46.142   3.721   6.740  0.00  0.00    +0.000 NA
ENDBRANCH   9  12
ENDBRANCH   7  10
ENDBRANCH   1   7
BRANCH   4  18
ATOM     18  C   UNL     1      47.471   4.868  15.449  0.00  0.00    +0.000 C 
BRANCH  18  19
ATOM     19  N   UNL     1      48.135   6.130  15.658  0.00  0.00    +0.000 N 
ATOM     20  C   UNL     1      49.330   6.199  16.329  0.00  0.00    +0.000 C 
ATOM     21  O   UNL     1      49.901   5.190  16.735  0.00  0.00    +0.000 OA
ATOM     22  H   UNL     1      47.575   6.969  15.546  0.00  0.00    +0.000 HD
BRANCH  20  23
ATOM     23  C   UNL     1      49.924   7.530  16.488  0.00  0.00    +0.000 A 
ATOM     24  C   UNL     1      50.153   8.030  17.763  0.00  0.00    +0.000 A 
ATOM     25  S   UNL     1      50.907   9.559  17.775  0.00  0.00    +0.000 S 
ATOM     26  C   UNL     1      50.907   9.632  16.076  0.00  0.00    +0.000 A 
ATOM     27  N   UNL     1      51.407  10.716  15.422  0.00  0.00    +0.000 NA
ATOM     28  C   UNL     1      51.311  10.655  14.137  0.00  0.00    +0.000 A 
ATOM     29  N   UNL     1      50.765   9.606  13.444  0.00  0.00    +0.000 N 
ATOM     30  C   UNL     1      50.273   8.479  14.058  0.00  0.00    +0.000 A 
ATOM     31  O   UNL     1      49.821   7.543  13.407  0.00  0.00    +0.000 OA
ATOM     32  C   UNL     1      50.350   8.500  15.507  0.00  0.00    +0.000 A 
ATOM     33  H   UNL     1      50.724   9.617  12.435  0.00  0.00    +0.000 HD
ENDBRANCH  20  23
ENDBRANCH  18  19
ENDBRANCH   4  18
TORSDOF 6
ENDMDL
MODEL 5
REMARK VINA RESULT:    -6.952      3.280      8.758
REMARK INTER + INTRA:         -10.396
REMARK INTER:                  -9.432
REMARK INTRA:                  -0.964
REMARK UNBOUND:                -1.006
REMARK  Name = 
REMARK  6 active torsions:
REMARK  status: ('A' for Active; 'I' for Inactive)
REMARK    1  A    between atoms: C_2  and  C_25
REMARK    2  A    between atoms: N_3  and  C_4
REMARK    3  A    between atoms: C_4  and  C_5
REMARK    4  A    between atoms: C_8  and  C_9
REMARK    5  A    between atoms: C_9  and  N_10
REMARK    6  A    between atoms: C_11  and  C_13
REMARK                            x       y       z     vdW  Elec       q    Type
REMARK                         _______ _______ _______ _____ _____    ______ ____
ROOT
ATOM      1  C   UNL     1      50.111   7.397  15.312  0.00  0.00    +0.000 A 
ATOM      2  C   UNL     1      50.404   8.259  14.247  0.00  0.00    +0.000 A 
ATOM      3  C   UNL     1      49.514   8.398  13.177  0.00  0.00    +0.000 A 
ATOM      4  C   UNL     1      48.305   7.691  13.159  0.00  0.00    +0.000 A 
ATOM      5  C   UNL     1      48.017   6.821  14.220  0.00  0.00    +0.000 A 
ATOM      6  C   UNL     1      48.906   6.684  15.290  0.00  0.00    +0.000 A 
ENDROOT
BRANCH   1   7
ATOM      7  C   UNL     1      51.069   7.244  16.463  0.00  0.00    +0.000 C 
BRANCH   7  10
ATOM      8  O   UNL     1      50.337   5.577  18.597  0.00  0.00    +0.000 OA
ATOM      9  C   UNL     1      51.073   5.137  17.719  0.00  0.00    +0.000 C 
ATOM     10  N   UNL     1      51.498   5.881  16.641  0.00  0.00    +0.000 N 
ATOM     11  H   UNL     1      52.117   5.433  15.971  0.00  0.00    +0.000 HD
BRANCH   9  12
ATOM     12  C   UNL     1      51.567   3.721  17.753  0.00  0.00    +0.000 A 
ATOM     13  C   UNL     1      52.797   3.440  18.336  0.00  0.00    +0.000 A 
ATOM     14  C   UNL     1      53.220   2.116  18.375  0.00  0.00    +0.000 A 
ATOM     15  C   UNL     1      52.407   1.125  17.833  0.00  0.00    +0.000 A 
ATOM     16  C   UNL     1      51.196   1.501  17.268  0.00  0.00    +0.000 A 
ATOM     17  N   UNL     1      50.749   2.776  17.208  0.00  0.00    +0.000 NA
ENDBRANCH   9  12
ENDBRANCH   7  10
ENDBRANCH   1   7
BRANCH   4  18
ATOM     18  C   UNL     1      47.341   7.834  12.010  0.00  0.00    +0.000 C 
BRANCH  18  19
ATOM     19  N   UNL     1      46.707   6.577  11.696  0.00  0.00    +0.000 N 
ATOM     20  C   UNL     1      45.341   6.449  11.715  0.00  0.00    +0.000 C 
ATOM     21  O   UNL     1      44.606   7.404  11.952  0.00  0.00    +0.000 OA
ATOM     22  H   UNL     1      47.289   5.746  11.736  0.00  0.00    +0.000 HD
BRANCH  20  23
ATOM     23  C   UNL     1      44.796   5.129  11.379  0.00  0.00    +0.000 A 
ATOM     24  C   UNL     1      44.044   4.439  12.322  0.00  0.00    +0.000 A 
ATOM     25  S   UNL     1      43.430   2.953  11.754  0.00  0.00    +0.000 S 
ATOM     26  C   UNL     1      44.191   3.153  10.246  0.00  0.00    +0.000 A 
ATOM     27  N   UNL     1      44.081   2.205   9.277  0.00  0.00    +0.000 NA
ATOM     28  C   UNL     1      44.737   2.468   8.197  0.00  0.00    +0.000 A 
ATOM     29  N   UNL     1      45.490   3.596   7.996  0.00  0.00    +0.000 N 
ATOM     30  C   UNL     1      45.608   4.593   8.935  0.00  0.00    +0.000 A 
ATOM     31  O   UNL     1      46.262   5.606   8.710  0.00  0.00    +0.000 OA
ATOM     32  C   UNL     1      44.894   4.343  10.172  0.00  0.00    +0.000 A 
ATOM     33  H   UNL     1      45.977   3.745   7.124  0.00  0.00    +0.000 HD
ENDBRANCH  20  23
ENDBRANCH  18  19
ENDBRANCH   4  18
TORSDOF 6
ENDMDL
MODEL 6
REMARK VINA RESULT:    -6.913      3.393      4.807
REMARK INTER + INTRA:         -10.344
REMARK INTER:                  -9.327
REMARK INTRA:                  -1.017
REMARK UNBOUND:                -1.006
REMARK  Name = 
REMARK  6 active torsions:
REMARK  status: ('A' for Active; 'I' for Inactive)
REMARK    1  A    between atoms: C_2  and  C_25
REMARK    2  A    between atoms: N_3  and  C_4
REMARK    3  A    between atoms: C_4  and  C_5
REMARK    4  A    between atoms: C_8  and  C_9
REMARK    5  A    between atoms: C_9  and  N_10
REMARK    6  A    between atoms: C_11  and  C_13
REMARK                            x       y       z     vdW  Elec       q    Type
REMARK                         _______ _______ _______ _____ _____    ______ ____
ROOT
ATOM      1  C   UNL     1      45.286   6.463  11.583  0.00  0.00    +0.000 A 
ATOM      2  C   UNL     1      46.406   5.836  12.144  0.00  0.00    +0.000 A 
ATOM      3  C   UNL     1      47.252   6.533  13.013  0.00  0.00    +0.000 A 
ATOM      4  C   UNL     1      46.985   7.866  13.352  0.00  0.00    +0.000 A 
ATOM      5  C   UNL     1      45.870   8.496  12.782  0.00  0.00    +0.000 A 
ATOM      6  C   UNL     1      45.023   7.798  11.915  0.00  0.00    +0.000 A 
ENDROOT
BRANCH   1   7
ATOM      7  C   UNL     1      44.375   5.716  10.646  0.00  0.00    +0.000 C 
BRANCH   7  10
ATOM      8  O   UNL     1      44.031   2.968  10.201  0.00  0.00    +0.000 OA
ATOM      9  C   UNL     1      44.855   3.584   9.531  0.00  0.00    +0.000 C 
ATOM     10  N   UNL     1      45.104   4.929   9.686  0.00  0.00    +0.000 N 
ATOM     11  H   UNL     1      45.814   5.350   9.092  0.00  0.00    +0.000 HD
BRANCH   9  12
ATOM     12  C   UNL     1      45.659   2.903   8.465  0.00  0.00    +0.000 A 
ATOM     13  C   UNL     1      46.095   3.633   7.366  0.00  0.00    +0.000 A 
ATOM     14  C   UNL     1      46.861   2.983   6.403  0.00  0.00    +0.000 A 
ATOM     15  C   UNL     1      47.160   1.634   6.569  0.00  0.00    +0.000 A 
ATOM     16  C   UNL     1      46.678   0.985   7.698  0.00  0.00    +0.000 A 
ATOM     17  N   UNL     1      45.931   1.580   8.656  0.00  0.00    +0.000 NA
ENDBRANCH   9  12
ENDBRANCH   7  10
ENDBRANCH   1   7
BRANCH   4  18
ATOM     18  C   UNL     1      47.892   8.625  14.285  0.00  0.00    +0.000 C 
BRANCH  18  19
ATOM     19  N   UNL     1      49.113   9.018  13.628  0.00  0.00    +0.000 N 
ATOM     20  C   UNL     1      50.304   8.400  13.917  0.00  0.00    +0.000 C 
ATOM     21  O   UNL     1      50.369   7.463  14.709  0.00  0.00    +0.000 OA
ATOM     22  H   UNL     1      49.117   9.922  13.168  0.00  0.00    +0.000 HD
BRANCH  20  23
ATOM     23  C   UNL     1      51.488   8.873  13.193  0.00  0.00    +0.000 A 
ATOM     24  C   UNL     1      52.347   9.779  13.802  0.00  0.00    +0.000 A 
ATOM     25  S   UNL     1      53.707  10.178  12.855  0.00  0.00    +0.000 S 
ATOM     26  C   UNL     1      53.170   9.196  11.574  0.00  0.00    +0.000 A 
ATOM     27  N   UNL     1      53.884   9.100  10.420  0.00  0.00    +0.000 NA
ATOM     28  C   UNL     1      53.344   8.349   9.520  0.00  0.00    +0.000 A 
ATOM     29  N   UNL     1      52.157   7.681   9.670  0.00  0.00    +0.000 N 
ATOM     30  C   UNL     1      51.416   7.724  10.827  0.00  0.00    +0.000 A 
ATOM     31  O   UNL     1      50.374   7.087  10.942  0.00  0.00    +0.000 OA
ATOM     32  C   UNL     1      51.976   8.562  11.871  0.00  0.00    +0.000 A 
ATOM     33  H   UNL     1      51.790   7.104   8.928  0.00  0.00    +0.000 HD
ENDBRANCH  20  23
ENDBRANCH  18  19
ENDBRANCH   4  18
TORSDOF 6
ENDMDL
MODEL 7
REMARK VINA RESULT:    -6.845      3.941      8.587
REMARK INTER + INTRA:         -10.253
REMARK INTER:                  -9.209
REMARK INTRA:                  -1.044
REMARK UNBOUND:                -1.006
REMARK  Name = 
REMARK  6 active torsions:
REMARK  status: ('A' for Active; 'I' for Inactive)
REMARK    1  A    between atoms: C_2  and  C_25
REMARK    2  A    between atoms: N_3  and  C_4
REMARK    3  A    between atoms: C_4  and  C_5
REMARK    4  A    between atoms: C_8  and  C_9
REMARK    5  A    between atoms: C_9  and  N_10
REMARK    6  A    between atoms: C_11  and  C_13
REMARK                            x       y       z     vdW  Elec       q    Type
REMARK                         _______ _______ _______ _____ _____    ______ ____
ROOT
ATOM      1  C   UNL     1      49.658   4.666  17.609  0.00  0.00    +0.000 A 
ATOM      2  C   UNL     1      48.455   4.452  16.923  0.00  0.00    +0.000 A 
ATOM      3  C   UNL     1      48.011   5.365  15.961  0.00  0.00    +0.000 A 
ATOM      4  C   UNL     1      48.769   6.502  15.654  0.00  0.00    +0.000 A 
ATOM      5  C   UNL     1      49.968   6.721  16.347  0.00  0.00    +0.000 A 
ATOM      6  C   UNL     1      50.412   5.807  17.307  0.00  0.00    +0.000 A 
ENDROOT
BRANCH   1   7
ATOM      7  C   UNL     1      50.136   3.685  18.646  0.00  0.00    +0.000 C 
BRANCH   7  10
ATOM      8  O   UNL     1      50.748   1.300  17.301  0.00  0.00    +0.000 OA
ATOM      9  C   UNL     1      51.663   2.020  17.690  0.00  0.00    +0.000 C 
ATOM     10  N   UNL     1      51.463   3.200  18.370  0.00  0.00    +0.000 N 
ATOM     11  H   UNL     1      52.286   3.722  18.662  0.00  0.00    +0.000 HD
BRANCH   9  12
ATOM     12  C   UNL     1      53.097   1.661  17.438  0.00  0.00    +0.000 A 
ATOM     13  C   UNL     1      54.085   2.619  17.634  0.00  0.00    +0.000 A 
ATOM     14  C   UNL     1      55.409   2.253  17.416  0.00  0.00    +0.000 A 
ATOM     15  C   UNL     1      55.699   0.953  17.011  0.00  0.00    +0.000 A 
ATOM     16  C   UNL     1      54.645   0.066  16.838  0.00  0.00    +0.000 A 
ATOM     17  N   UNL     1      53.345   0.382  17.038  0.00  0.00    +0.000 NA
ENDBRANCH   9  12
ENDBRANCH   7  10
ENDBRANCH   1   7
BRANCH   4  18
ATOM     18  C   UNL     1      48.298   7.492  14.620  0.00  0.00    +0.000 C 
BRANCH  18  19
ATOM     19  N   UNL     1      47.046   7.083  14.033  0.00  0.00    +0.000 N 
ATOM     20  C   UNL     1      46.995   6.563  12.765  0.00  0.00    +0.000 C 
ATOM     21  O   UNL     1      48.012   6.383  12.100  0.00  0.00    +0.000 OA
ATOM     22  H   UNL     1      46.199   7.440  14.463  0.00  0.00    +0.000 HD
BRANCH  20  23
ATOM     23  C   UNL     1      45.673   6.177  12.261  0.00  0.00    +0.000 A 
ATOM     24  C   UNL     1      44.828   7.149  11.740  0.00  0.00    +0.000 A 
ATOM     25  S   UNL     1      43.359   6.528  11.138  0.00  0.00    +0.000 S 
ATOM     26  C   UNL     1      43.775   4.946  11.600  0.00  0.00    +0.000 A 
ATOM     27  N   UNL     1      42.923   3.907  11.384  0.00  0.00    +0.000 NA
ATOM     28  C   UNL     1      43.350   2.768  11.815  0.00  0.00    +0.000 A 
ATOM     29  N   UNL     1      44.555   2.572  12.440  0.00  0.00    +0.000 N 
ATOM     30  C   UNL     1      45.459   3.585  12.655  0.00  0.00    +0.000 A 
ATOM     31  O   UNL     1      46.543   3.369  13.187  0.00  0.00    +0.000 OA
ATOM     32  C   UNL     1      45.024   4.889  12.194  0.00  0.00    +0.000 A 
ATOM     33  H   UNL     1      44.832   1.653  12.751  0.00  0.00    +0.000 HD
ENDBRANCH  20  23
ENDBRANCH  18  19
ENDBRANCH   4  18
TORSDOF 6
ENDMDL
MODEL 8
REMARK VINA RESULT:    -6.719      5.044      7.619
REMARK INTER + INTRA:         -10.081
REMARK INTER:                  -9.181
REMARK INTRA:                  -0.901
REMARK UNBOUND:                -1.006
REMARK  Name = 
REMARK  6 active torsions:
REMARK  status: ('A' for Active; 'I' for Inactive)
REMARK    1  A    between atoms: C_2  and  C_25
REMARK    2  A    between atoms: N_3  and  C_4
REMARK    3  A    between atoms: C_4  and  C_5
REMARK    4  A    between atoms: C_8  and  C_9
REMARK    5  A    between atoms: C_9  and  N_10
REMARK    6  A    between atoms: C_11  and  C_13
REMARK                            x       y       z     vdW  Elec       q    Type
REMARK                         _______ _______ _______ _____ _____    ______ ____
ROOT
ATOM      1  C   UNL     1      50.391   8.847  11.583  0.00  0.00    +0.000 A 
ATOM      2  C   UNL     1      49.400   9.823  11.417  0.00  0.00    +0.000 A 
ATOM      3  C   UNL     1      48.093   9.595  11.859  0.00  0.00    +0.000 A 
ATOM      4  C   UNL     1      47.755   8.392  12.493  0.00  0.00    +0.000 A 
ATOM      5  C   UNL     1      48.745   7.411  12.650  0.00  0.00    +0.000 A 
ATOM      6  C   UNL     1      50.052   7.641  12.209  0.00  0.00    +0.000 A 
ENDROOT
BRANCH   1   7
ATOM      7  C   UNL     1      51.798   9.091  11.105  0.00  0.00    +0.000 C 
BRANCH   7  10
ATOM      8  O   UNL     1      52.763   9.087   8.471  0.00  0.00    +0.000 OA
ATOM      9  C   UNL     1      52.810   8.051   9.126  0.00  0.00    +0.000 C 
ATOM     10  N   UNL     1      52.348   7.950  10.420  0.00  0.00    +0.000 N 
ATOM     11  H   UNL     1      52.419   7.045  10.878  0.00  0.00    +0.000 HD
BRANCH   9  12
ATOM     12  C   UNL     1      53.394   6.793   8.556  0.00  0.00    +0.000 A 
ATOM     13  C   UNL     1      52.803   6.208   7.442  0.00  0.00    +0.000 A 
ATOM     14  C   UNL     1      53.379   5.056   6.919  0.00  0.00    +0.000 A 
ATOM     15  C   UNL     1      54.518   4.530   7.523  0.00  0.00    +0.000 A 
ATOM     16  C   UNL     1      55.036   5.181   8.634  0.00  0.00    +0.000 A 
ATOM     17  N   UNL     1      54.506   6.302   9.174  0.00  0.00    +0.000 NA
ENDBRANCH   9  12
ENDBRANCH   7  10
ENDBRANCH   1   7
BRANCH   4  18
ATOM     18  C   UNL     1      46.350   8.136  12.972  0.00  0.00    +0.000 C 
BRANCH  18  19
ATOM     19  N   UNL     1      45.916   6.802  12.641  0.00  0.00    +0.000 N 
ATOM     20  C   UNL     1      44.910   6.589  11.732  0.00  0.00    +0.000 C 
ATOM     21  O   UNL     1      44.374   7.519  11.135  0.00  0.00    +0.000 OA
ATOM     22  H   UNL     1      46.174   6.061  13.285  0.00  0.00    +0.000 HD
BRANCH  20  23
ATOM     23  C   UNL     1      44.544   5.195  11.464  0.00  0.00    +0.000 A 
ATOM     24  C   UNL     1      43.809   4.486  12.406  0.00  0.00    +0.000 A 
ATOM     25  S   UNL     1      43.410   2.903  11.914  0.00  0.00    +0.000 S 
ATOM     26  C   UNL     1      44.251   3.089  10.448  0.00  0.00    +0.000 A 
ATOM     27  N   UNL     1      44.321   2.071   9.548  0.00  0.00    +0.000 NA
ATOM     28  C   UNL     1      45.019   2.335   8.496  0.00  0.00    +0.000 A 
ATOM     29  N   UNL     1      45.652   3.528   8.258  0.00  0.00    +0.000 N 
ATOM     30  C   UNL     1      45.587   4.594   9.124  0.00  0.00    +0.000 A 
ATOM     31  O   UNL     1      46.136   5.659   8.866  0.00  0.00    +0.000 OA
ATOM     32  C   UNL     1      44.818   4.346  10.329  0.00  0.00    +0.000 A 
ATOM     33  H   UNL     1      46.180   3.674   7.411  0.00  0.00    +0.000 HD
ENDBRANCH  20  23
ENDBRANCH  18  19
ENDBRANCH   4  18
TORSDOF 6
ENDMDL
MODEL 9
REMARK VINA RESULT:    -6.708      2.515      3.510
REMARK INTER + INTRA:         -10.067
REMARK INTER:                  -9.323
REMARK INTRA:                  -0.744
REMARK UNBOUND:                -1.006
REMARK  Name = 
REMARK  6 active torsions:
REMARK  status: ('A' for Active; 'I' for Inactive)
REMARK    1  A    between atoms: C_2  and  C_25
REMARK    2  A    between atoms: N_3  and  C_4
REMARK    3  A    between atoms: C_4  and  C_5
REMARK    4  A    between atoms: C_8  and  C_9
REMARK    5  A    between atoms: C_9  and  N_10
REMARK    6  A    between atoms: C_11  and  C_13
REMARK                            x       y       z     vdW  Elec       q    Type
REMARK                         _______ _______ _______ _____ _____    ______ ____
ROOT
ATOM      1  C   UNL     1      45.168   4.605  11.803  0.00  0.00    +0.000 A 
ATOM      2  C   UNL     1      45.451   5.834  12.413  0.00  0.00    +0.000 A 
ATOM      3  C   UNL     1      46.176   5.887  13.608  0.00  0.00    +0.000 A 
ATOM      4  C   UNL     1      46.649   4.712  14.207  0.00  0.00    +0.000 A 
ATOM      5  C   UNL     1      46.357   3.482  13.602  0.00  0.00    +0.000 A 
ATOM      6  C   UNL     1      45.634   3.430  12.406  0.00  0.00    +0.000 A 
ENDROOT
BRANCH   1   7
ATOM      7  C   UNL     1      44.386   4.546  10.518  0.00  0.00    +0.000 C 
BRANCH   7  10
ATOM      8  O   UNL     1      44.517   1.996   9.357  0.00  0.00    +0.000 OA
ATOM      9  C   UNL     1      45.194   2.904   8.884  0.00  0.00    +0.000 C 
ATOM     10  N   UNL     1      45.207   4.184   9.393  0.00  0.00    +0.000 N 
ATOM     11  H   UNL     1      45.810   4.866   8.940  0.00  0.00    +0.000 HD
BRANCH   9  12
ATOM     12  C   UNL     1      46.068   2.683   7.686  0.00  0.00    +0.000 A 
ATOM     13  C   UNL     1      46.813   1.513   7.590  0.00  0.00    +0.000 A 
ATOM     14  C   UNL     1      47.597   1.322   6.457  0.00  0.00    +0.000 A 
ATOM     15  C   UNL     1      47.611   2.300   5.466  0.00  0.00    +0.000 A 
ATOM     16  C   UNL     1      46.837   3.438   5.651  0.00  0.00    +0.000 A 
ATOM     17  N   UNL     1      46.062   3.662   6.737  0.00  0.00    +0.000 NA
ENDBRANCH   9  12
ENDBRANCH   7  10
ENDBRANCH   1   7
BRANCH   4  18
ATOM     18  C   UNL     1      47.430   4.759  15.494  0.00  0.00    +0.000 C 
BRANCH  18  19
ATOM     19  N   UNL     1      48.037   6.052  15.694  0.00  0.00    +0.000 N 
ATOM     20  C   UNL     1      49.267   6.172  16.289  0.00  0.00    +0.000 C 
ATOM     21  O   UNL     1      49.918   5.188  16.631  0.00  0.00    +0.000 OA
ATOM     22  H   UNL     1      47.425   6.860  15.641  0.00  0.00    +0.000 HD
BRANCH  20  23
ATOM     23  C   UNL     1      49.797   7.531  16.445  0.00  0.00    +0.000 A 
ATOM     24  C   UNL     1      50.204   8.240  15.322  0.00  0.00    +0.000 A 
ATOM     25  S   UNL     1      50.732   9.825  15.666  0.00  0.00    +0.000 S 
ATOM     26  C   UNL     1      50.487   9.601  17.335  0.00  0.00    +0.000 A 
ATOM     27  N   UNL     1      50.770  10.593  18.222  0.00  0.00    +0.000 NA
ATOM     28  C   UNL     1      50.571  10.277  19.457  0.00  0.00    +0.000 A 
ATOM     29  N   UNL     1      50.110   9.059  19.887  0.00  0.00    +0.000 N 
ATOM     30  C   UNL     1      49.785   8.037  19.026  0.00  0.00    +0.000 A 
ATOM     31  O   UNL     1      49.342   6.972  19.441  0.00  0.00    +0.000 OA
ATOM     32  C   UNL     1      49.997   8.340  17.624  0.00  0.00    +0.000 A 
ATOM     33  H   UNL     1      49.971   8.876  20.869  0.00  0.00    +0.000 HD
ENDBRANCH  20  23
ENDBRANCH  18  19
ENDBRANCH   4  18
TORSDOF 6
ENDMDL
