MODEL 1
REMARK VINA RESULT:    -8.121      0.000      0.000
REMARK INTER + INTRA:         -11.575
REMARK INTER:                 -10.970
REMARK INTRA:                  -0.606
REMARK UNBOUND:                -0.606
REMARK  Name = 
REMARK  7 active torsions:
REMARK  status: ('A' for Active; 'I' for Inactive)
REMARK    1  A    between atoms: C_1  and  C_2
REMARK    2  A    between atoms: C_2  and  N_3
REMARK    3  A    between atoms: C_2  and  C_17
REMARK    4  A    between atoms: C_4  and  C_6
REMARK    5  A    between atoms: C_20  and  O_21
REMARK    6  A    between atoms: O_21  and  C_22
REMARK    7  A    between atoms: C_22  and  C_23
REMARK                            x       y       z     vdW  Elec       q    Type
REMARK                         _______ _______ _______ _____ _____    ______ ____
ROOT
ATOM      1  N   UNL     1      47.875   7.296  14.666  0.00  0.00    +0.000 N 
ATOM      2  C   UNL     1      48.735   8.023  15.455  0.00  0.00    +0.000 C 
ATOM      3  O   UNL     1      49.588   8.772  14.999  0.00  0.00    +0.000 OA
ATOM      4  H   UNL     1      47.311   6.570  15.082  0.00  0.00    +0.000 HD
ENDROOT
BRANCH   2   5
ATOM      5  C   UNL     1      48.511   7.873  16.893  0.00  0.00    +0.000 A 
ATOM      6  C   UNL     1      48.379   8.949  17.755  0.00  0.00    +0.000 A 
ATOM      7  S   UNL     1      48.253   8.484  19.396  0.00  0.00    +0.000 S 
ATOM      8  C   UNL     1      48.405   6.834  18.995  0.00  0.00    +0.000 A 
ATOM      9  N   UNL     1      48.440   5.878  19.962  0.00  0.00    +0.000 NA
ATOM     10  C   UNL     1      48.609   4.666  19.528  0.00  0.00    +0.000 A 
ATOM     11  N   UNL     1      48.709   3.633  20.399  0.00  0.00    +0.000 N 
ATOM     12  N   UNL     1      48.689   4.348  18.197  0.00  0.00    +0.000 N 
ATOM     13  C   UNL     1      48.557   5.266  17.177  0.00  0.00    +0.000 A 
ATOM     14  O   UNL     1      48.444   4.899  16.012  0.00  0.00    +0.000 OA
ATOM     15  C   UNL     1      48.488   6.639  17.633  0.00  0.00    +0.000 A 
ATOM     16  H   UNL     1      48.416   3.867  21.344  0.00  0.00    +0.000 HD
ATOM     17  H   UNL     1      48.447   2.706  20.098  0.00  0.00    +0.000 HD
ATOM     18  H   UNL     1      48.777   3.390  17.904  0.00  0.00    +0.000 HD
ENDBRANCH   2   5
BRANCH   1  20
ATOM     19  C   UNL     1      49.356   7.006  12.732  0.00  0.00    +0.000 C 
ATOM     20  C   UNL     1      47.947   7.361  13.220  0.00  0.00    +0.000 C 
BRANCH  20  21
ATOM     21  C   UNL     1      46.876   6.481  12.603  0.00  0.00    +0.000 A 
ATOM     22  C   UNL     1      46.314   6.808  11.359  0.00  0.00    +0.000 A 
ATOM     23  C   UNL     1      45.464   5.910  10.705  0.00  0.00    +0.000 A 
ATOM     24  C   UNL     1      45.159   4.684  11.295  0.00  0.00    +0.000 A 
ATOM     25  C   UNL     1      45.598   4.419  12.588  0.00  0.00    +0.000 A 
ATOM     26  C   UNL     1      46.453   5.305  13.237  0.00  0.00    +0.000 A 
BRANCH  24  27
ATOM     27  O   UNL     1      44.455   3.787  10.537  0.00  0.00    +0.000 OA
BRANCH  27  28
ATOM     28  C   UNL     1      44.459   4.095   9.135  0.00  0.00    +0.000 C 
BRANCH  28  29
ATOM     29  C   UNL     1      45.446   3.224   8.417  0.00  0.00    +0.000 A 
ATOM     30  C   UNL     1      45.559   1.879   8.752  0.00  0.00    +0.000 A 
ATOM     31  N   UNL     1      46.401   1.034   8.116  0.00  0.00    +0.000 NA
ATOM     32  C   UNL     1      47.135   1.595   7.127  0.00  0.00    +0.000 A 
ATOM     33  C   UNL     1      47.019   2.928   6.779  0.00  0.00    +0.000 A 
ATOM     34  N   UNL     1      46.171   3.771   7.405  0.00  0.00    +0.000 NA
ENDBRANCH  28  29
ENDBRANCH  27  28
ENDBRANCH  24  27
ENDBRANCH  20  21
ENDBRANCH   1  20
TORSDOF 6
ENDMDL
MODEL 2
REMARK VINA RESULT:    -8.077      2.034      2.464
REMARK INTER + INTRA:         -11.516
REMARK INTER:                 -10.371
REMARK INTRA:                  -1.145
REMARK UNBOUND:                -0.606
REMARK  Name = 
REMARK  7 active torsions:
REMARK  status: ('A' for Active; 'I' for Inactive)
REMARK    1  A    between atoms: C_1  and  C_2
REMARK    2  A    between atoms: C_2  and  N_3
REMARK    3  A    between atoms: C_2  and  C_17
REMARK    4  A    between atoms: C_4  and  C_6
REMARK    5  A    between atoms: C_20  and  O_21
REMARK    6  A    between atoms: O_21  and  C_22
REMARK    7  A    between atoms: C_22  and  C_23
REMARK                            x       y       z     vdW  Elec       q    Type
REMARK                         _______ _______ _______ _____ _____    ______ ____
ROOT
ATOM      1  N   UNL     1      48.959   6.970  14.776  0.00  0.00    +0.000 N 
ATOM      2  C   UNL     1      49.125   7.126  16.133  0.00  0.00    +0.000 C 
ATOM      3  O   UNL     1      48.390   7.820  16.821  0.00  0.00    +0.000 OA
ATOM      4  H   UNL     1      49.686   6.531  14.232  0.00  0.00    +0.000 HD
ENDROOT
BRANCH   2   5
ATOM      5  C   UNL     1      50.224   6.345  16.702  0.00  0.00    +0.000 A 
ATOM      6  C   UNL     1      51.490   6.864  16.917  0.00  0.00    +0.000 A 
ATOM      7  S   UNL     1      52.609   5.695  17.471  0.00  0.00    +0.000 S 
ATOM      8  C   UNL     1      51.435   4.462  17.405  0.00  0.00    +0.000 A 
ATOM      9  N   UNL     1      51.755   3.172  17.698  0.00  0.00    +0.000 NA
ATOM     10  C   UNL     1      50.784   2.321  17.560  0.00  0.00    +0.000 A 
ATOM     11  N   UNL     1      50.993   1.001  17.776  0.00  0.00    +0.000 N 
ATOM     12  N   UNL     1      49.511   2.685  17.206  0.00  0.00    +0.000 N 
ATOM     13  C   UNL     1      49.111   3.988  16.998  0.00  0.00    +0.000 A 
ATOM     14  O   UNL     1      47.925   4.269  16.874  0.00  0.00    +0.000 OA
ATOM     15  C   UNL     1      50.201   4.943  17.027  0.00  0.00    +0.000 A 
ATOM     16  H   UNL     1      51.867   0.799  18.256  0.00  0.00    +0.000 HD
ATOM     17  H   UNL     1      50.219   0.417  18.056  0.00  0.00    +0.000 HD
ATOM     18  H   UNL     1      48.779   1.997  17.153  0.00  0.00    +0.000 HD
ENDBRANCH   2   5
BRANCH   1  20
ATOM     19  C   UNL     1      48.448   8.831  13.261  0.00  0.00    +0.000 C 
ATOM     20  C   UNL     1      47.894   7.652  14.069  0.00  0.00    +0.000 C 
BRANCH  20  21
ATOM     21  C   UNL     1      47.122   6.667  13.210  0.00  0.00    +0.000 A 
ATOM     22  C   UNL     1      46.937   5.342  13.636  0.00  0.00    +0.000 A 
ATOM     23  C   UNL     1      46.077   4.486  12.940  0.00  0.00    +0.000 A 
ATOM     24  C   UNL     1      45.406   4.943  11.806  0.00  0.00    +0.000 A 
ATOM     25  C   UNL     1      45.699   6.206  11.301  0.00  0.00    +0.000 A 
ATOM     26  C   UNL     1      46.544   7.064  11.997  0.00  0.00    +0.000 A 
BRANCH  24  27
ATOM     27  O   UNL     1      44.462   4.112  11.266  0.00  0.00    +0.000 OA
BRANCH  27  28
ATOM     28  C   UNL     1      44.189   4.379   9.882  0.00  0.00    +0.000 C 
BRANCH  28  29
ATOM     29  C   UNL     1      45.117   3.588   9.009  0.00  0.00    +0.000 A 
ATOM     30  C   UNL     1      45.231   2.213   9.182  0.00  0.00    +0.000 A 
ATOM     31  N   UNL     1      46.020   1.440   8.402  0.00  0.00    +0.000 NA
ATOM     32  C   UNL     1      46.699   2.104   7.439  0.00  0.00    +0.000 A 
ATOM     33  C   UNL     1      46.581   3.469   7.251  0.00  0.00    +0.000 A 
ATOM     34  N   UNL     1      45.785   4.242   8.022  0.00  0.00    +0.000 NA
ENDBRANCH  28  29
ENDBRANCH  27  28
ENDBRANCH  24  27
ENDBRANCH  20  21
ENDBRANCH   1  20
TORSDOF 6
ENDMDL
MODEL 3
REMARK VINA RESULT:    -8.033      1.315      1.639
REMARK INTER + INTRA:         -11.456
REMARK INTER:                 -11.787
REMARK INTRA:                   0.331
REMARK UNBOUND:                -0.606
REMARK  Name = 
REMARK  7 active torsions:
REMARK  status: ('A' for Active; 'I' for Inactive)
REMARK    1  A    between atoms: C_1  and  C_2
REMARK    2  A    between atoms: C_2  and  N_3
REMARK    3  A    between atoms: C_2  and  C_17
REMARK    4  A    between atoms: C_4  and  C_6
REMARK    5  A    between atoms: C_20  and  O_21
REMARK    6  A    between atoms: O_21  and  C_22
REMARK    7  A    between atoms: C_22  and  C_23
REMARK                            x       y       z     vdW  Elec       q    Type
REMARK                         _______ _______ _______ _____ _____    ______ ____
ROOT
ATOM      1  N   UNL     1      47.166   7.474  14.046  0.00  0.00    +0.000 N 
ATOM      2  C   UNL     1      48.305   6.766  14.351  0.00  0.00    +0.000 C 
ATOM      3  O   UNL     1      49.039   6.283  13.501  0.00  0.00    +0.000 OA
ATOM      4  H   UNL     1      46.509   7.702  14.777  0.00  0.00    +0.000 HD
ENDROOT
BRANCH   2   5
ATOM      5  C   UNL     1      48.602   6.686  15.782  0.00  0.00    +0.000 A 
ATOM      6  C   UNL     1      49.274   7.680  16.473  0.00  0.00    +0.000 A 
ATOM      7  S   UNL     1      49.596   7.265  18.100  0.00  0.00    +0.000 S 
ATOM      8  C   UNL     1      48.873   5.734  17.909  0.00  0.00    +0.000 A 
ATOM      9  N   UNL     1      48.864   4.831  18.927  0.00  0.00    +0.000 NA
ATOM     10  C   UNL     1      48.327   3.684  18.638  0.00  0.00    +0.000 A 
ATOM     11  N   UNL     1      48.303   2.687  19.554  0.00  0.00    +0.000 N 
ATOM     12  N   UNL     1      47.754   3.408  17.424  0.00  0.00    +0.000 N 
ATOM     13  C   UNL     1      47.646   4.321  16.397  0.00  0.00    +0.000 A 
ATOM     14  O   UNL     1      46.957   4.081  15.412  0.00  0.00    +0.000 OA
ATOM     15  C   UNL     1      48.343   5.567  16.649  0.00  0.00    +0.000 A 
ATOM     16  H   UNL     1      48.519   2.996  20.499  0.00  0.00    +0.000 HD
ATOM     17  H   UNL     1      47.582   1.983  19.500  0.00  0.00    +0.000 HD
ATOM     18  H   UNL     1      47.311   2.521  17.258  0.00  0.00    +0.000 HD
ENDBRANCH   2   5
BRANCH   1  20
ATOM     19  C   UNL     1      47.946   8.078  11.799  0.00  0.00    +0.000 C 
ATOM     20  C   UNL     1      46.752   7.672  12.671  0.00  0.00    +0.000 C 
BRANCH  20  21
ATOM     21  C   UNL     1      46.046   6.432  12.154  0.00  0.00    +0.000 A 
ATOM     22  C   UNL     1      45.703   6.320  10.798  0.00  0.00    +0.000 A 
ATOM     23  C   UNL     1      45.220   5.112  10.284  0.00  0.00    +0.000 A 
ATOM     24  C   UNL     1      45.064   4.010  11.125  0.00  0.00    +0.000 A 
ATOM     25  C   UNL     1      45.266   4.160  12.494  0.00  0.00    +0.000 A 
ATOM     26  C   UNL     1      45.758   5.357  13.006  0.00  0.00    +0.000 A 
BRANCH  24  27
ATOM     27  O   UNL     1      44.741   2.818  10.534  0.00  0.00    +0.000 OA
BRANCH  27  28
ATOM     28  C   UNL     1      44.451   2.934   9.133  0.00  0.00    +0.000 C 
BRANCH  28  29
ATOM     29  C   UNL     1      45.590   2.393   8.323  0.00  0.00    +0.000 A 
ATOM     30  C   UNL     1      46.352   3.250   7.535  0.00  0.00    +0.000 A 
ATOM     31  N   UNL     1      47.414   2.831   6.813  0.00  0.00    +0.000 NA
ATOM     32  C   UNL     1      47.684   1.508   6.906  0.00  0.00    +0.000 A 
ATOM     33  C   UNL     1      46.940   0.651   7.697  0.00  0.00    +0.000 A 
ATOM     34  N   UNL     1      45.885   1.070   8.428  0.00  0.00    +0.000 NA
ENDBRANCH  28  29
ENDBRANCH  27  28
ENDBRANCH  24  27
ENDBRANCH  20  21
ENDBRANCH   1  20
TORSDOF 6
ENDMDL
MODEL 4
REMARK VINA RESULT:    -7.960      4.808      8.623
REMARK INTER + INTRA:         -11.357
REMARK INTER:                 -10.564
REMARK INTRA:                  -0.794
REMARK UNBOUND:                -0.606
REMARK  Name = 
REMARK  7 active torsions:
REMARK  status: ('A' for Active; 'I' for Inactive)
REMARK    1  A    between atoms: C_1  and  C_2
REMARK    2  A    between atoms: C_2  and  N_3
REMARK    3  A    between atoms: C_2  and  C_17
REMARK    4  A    between atoms: C_4  and  C_6
REMARK    5  A    between atoms: C_20  and  O_21
REMARK    6  A    between atoms: O_21  and  C_22
REMARK    7  A    between atoms: C_22  and  C_23
REMARK                            x       y       z     vdW  Elec       q    Type
REMARK                         _______ _______ _______ _____ _____    ______ ____
ROOT
ATOM      1  N   UNL     1      47.688   5.717  16.235  0.00  0.00    +0.000 N 
ATOM      2  C   UNL     1      48.393   6.168  15.143  0.00  0.00    +0.000 C 
ATOM      3  O   UNL     1      49.572   6.489  15.195  0.00  0.00    +0.000 OA
ATOM      4  H   UNL     1      46.685   5.630  16.180  0.00  0.00    +0.000 HD
ENDROOT
BRANCH   2   5
ATOM      5  C   UNL     1      47.631   6.178  13.894  0.00  0.00    +0.000 A 
ATOM      6  C   UNL     1      47.434   7.321  13.137  0.00  0.00    +0.000 A 
ATOM      7  S   UNL     1      46.401   7.068  11.797  0.00  0.00    +0.000 S 
ATOM      8  C   UNL     1      46.169   5.433  12.217  0.00  0.00    +0.000 A 
ATOM      9  N   UNL     1      45.326   4.638  11.503  0.00  0.00    +0.000 NA
ATOM     10  C   UNL     1      45.199   3.428  11.955  0.00  0.00    +0.000 A 
ATOM     11  N   UNL     1      44.351   2.558  11.357  0.00  0.00    +0.000 N 
ATOM     12  N   UNL     1      45.898   2.951  13.033  0.00  0.00    +0.000 N 
ATOM     13  C   UNL     1      46.838   3.683  13.727  0.00  0.00    +0.000 A 
ATOM     14  O   UNL     1      47.566   3.147  14.555  0.00  0.00    +0.000 OA
ATOM     15  C   UNL     1      46.911   5.072  13.320  0.00  0.00    +0.000 A 
ATOM     16  H   UNL     1      44.034   2.862  10.440  0.00  0.00    +0.000 HD
ATOM     17  H   UNL     1      44.527   1.566  11.429  0.00  0.00    +0.000 HD
ATOM     18  H   UNL     1      45.800   1.993  13.323  0.00  0.00    +0.000 HD
ENDBRANCH   2   5
BRANCH   1  20
ATOM     19  C   UNL     1      47.251   5.594  18.647  0.00  0.00    +0.000 C 
ATOM     20  C   UNL     1      48.311   5.617  17.540  0.00  0.00    +0.000 C 
BRANCH  20  21
ATOM     21  C   UNL     1      49.232   4.412  17.588  0.00  0.00    +0.000 A 
ATOM     22  C   UNL     1      48.731   3.121  17.358  0.00  0.00    +0.000 A 
ATOM     23  C   UNL     1      49.602   2.035  17.221  0.00  0.00    +0.000 A 
ATOM     24  C   UNL     1      50.979   2.228  17.327  0.00  0.00    +0.000 A 
ATOM     25  C   UNL     1      51.468   3.477  17.698  0.00  0.00    +0.000 A 
ATOM     26  C   UNL     1      50.606   4.562  17.823  0.00  0.00    +0.000 A 
BRANCH  24  27
ATOM     27  O   UNL     1      51.781   1.160  17.027  0.00  0.00    +0.000 OA
BRANCH  27  28
ATOM     28  C   UNL     1      53.092   1.249  17.604  0.00  0.00    +0.000 C 
BRANCH  28  29
ATOM     29  C   UNL     1      53.778  -0.083  17.537  0.00  0.00    +0.000 A 
ATOM     30  C   UNL     1      54.435  -0.469  16.373  0.00  0.00    +0.000 A 
ATOM     31  N   UNL     1      55.104  -1.638  16.263  0.00  0.00    +0.000 NA
ATOM     32  C   UNL     1      55.086  -2.414  17.371  0.00  0.00    +0.000 A 
ATOM     33  C   UNL     1      54.447  -2.032  18.537  0.00  0.00    +0.000 A 
ATOM     34  N   UNL     1      53.788  -0.860  18.652  0.00  0.00    +0.000 NA
ENDBRANCH  28  29
ENDBRANCH  27  28
ENDBRANCH  24  27
ENDBRANCH  20  21
ENDBRANCH   1  20
TORSDOF 6
ENDMDL
MODEL 5
REMARK VINA RESULT:    -7.310      3.980      4.921
REMARK INTER + INTRA:         -10.480
REMARK INTER:                  -9.259
REMARK INTRA:                  -1.221
REMARK UNBOUND:                -0.606
REMARK  Name = 
REMARK  7 active torsions:
REMARK  status: ('A' for Active; 'I' for Inactive)
REMARK    1  A    between atoms: C_1  and  C_2
REMARK    2  A    between atoms: C_2  and  N_3
REMARK    3  A    between atoms: C_2  and  C_17
REMARK    4  A    between atoms: C_4  and  C_6
REMARK    5  A    between atoms: C_20  and  O_21
REMARK    6  A    between atoms: O_21  and  C_22
REMARK    7  A    between atoms: C_22  and  C_23
REMARK                            x       y       z     vdW  Elec       q    Type
REMARK                         _______ _______ _______ _____ _____    ______ ____
ROOT
ATOM      1  N   UNL     1      47.160   9.085  12.763  0.00  0.00    +0.000 N 
ATOM      2  C   UNL     1      48.009   9.237  13.834  0.00  0.00    +0.000 C 
ATOM      3  O   UNL     1      47.681   8.996  14.987  0.00  0.00    +0.000 OA
ATOM      4  H   UNL     1      47.420   9.457  11.863  0.00  0.00    +0.000 HD
ENDROOT
BRANCH   2   5
ATOM      5  C   UNL     1      49.364   9.659  13.476  0.00  0.00    +0.000 A 
ATOM      6  C   UNL     1      49.904  10.876  13.857  0.00  0.00    +0.000 A 
ATOM      7  S   UNL     1      51.454  11.160  13.193  0.00  0.00    +0.000 S 
ATOM      8  C   UNL     1      51.426   9.676  12.356  0.00  0.00    +0.000 A 
ATOM      9  N   UNL     1      52.445   9.318  11.528  0.00  0.00    +0.000 NA
ATOM     10  C   UNL     1      52.279   8.187  10.911  0.00  0.00    +0.000 A 
ATOM     11  N   UNL     1      53.203   7.748  10.023  0.00  0.00    +0.000 N 
ATOM     12  N   UNL     1      51.194   7.375  11.111  0.00  0.00    +0.000 N 
ATOM     13  C   UNL     1      50.186   7.642  12.012  0.00  0.00    +0.000 A 
ATOM     14  O   UNL     1      49.346   6.793  12.287  0.00  0.00    +0.000 OA
ATOM     15  C   UNL     1      50.285   8.952  12.625  0.00  0.00    +0.000 A 
ATOM     16  H   UNL     1      54.087   8.248  10.075  0.00  0.00    +0.000 HD
ATOM     17  H   UNL     1      53.293   6.757   9.853  0.00  0.00    +0.000 HD
ATOM     18  H   UNL     1      51.127   6.487  10.643  0.00  0.00    +0.000 HD
ENDBRANCH   2   5
BRANCH   1  20
ATOM     19  C   UNL     1      44.807   9.674  12.391  0.00  0.00    +0.000 C 
ATOM     20  C   UNL     1      45.792   8.641  12.949  0.00  0.00    +0.000 C 
BRANCH  20  21
ATOM     21  C   UNL     1      45.602   7.264  12.340  0.00  0.00    +0.000 A 
ATOM     22  C   UNL     1      44.777   6.316  12.964  0.00  0.00    +0.000 A 
ATOM     23  C   UNL     1      44.455   5.118  12.317  0.00  0.00    +0.000 A 
ATOM     24  C   UNL     1      44.966   4.853  11.047  0.00  0.00    +0.000 A 
ATOM     25  C   UNL     1      45.897   5.724  10.489  0.00  0.00    +0.000 A 
ATOM     26  C   UNL     1      46.210   6.921  11.124  0.00  0.00    +0.000 A 
BRANCH  24  27
ATOM     27  O   UNL     1      44.489   3.743  10.404  0.00  0.00    +0.000 OA
BRANCH  27  28
ATOM     28  C   UNL     1      44.461   3.876   8.975  0.00  0.00    +0.000 C 
BRANCH  28  29
ATOM     29  C   UNL     1      45.464   2.954   8.350  0.00  0.00    +0.000 A 
ATOM     30  C   UNL     1      45.456   1.600   8.666  0.00  0.00    +0.000 A 
ATOM     31  N   UNL     1      46.308   0.712   8.107  0.00  0.00    +0.000 NA
ATOM     32  C   UNL     1      47.179   1.238   7.215  0.00  0.00    +0.000 A 
ATOM     33  C   UNL     1      47.185   2.581   6.885  0.00  0.00    +0.000 A 
ATOM     34  N   UNL     1      46.328   3.467   7.434  0.00  0.00    +0.000 NA
ENDBRANCH  28  29
ENDBRANCH  27  28
ENDBRANCH  24  27
ENDBRANCH  20  21
ENDBRANCH   1  20
TORSDOF 6
ENDMDL
MODEL 6
REMARK VINA RESULT:    -6.876      1.671      2.657
REMARK INTER + INTRA:          -9.894
REMARK INTER:                  -9.738
REMARK INTRA:                  -0.156
REMARK UNBOUND:                -0.606
REMARK  Name = 
REMARK  7 active torsions:
REMARK  status: ('A' for Active; 'I' for Inactive)
REMARK    1  A    between atoms: C_1  and  C_2
REMARK    2  A    between atoms: C_2  and  N_3
REMARK    3  A    between atoms: C_2  and  C_17
REMARK    4  A    between atoms: C_4  and  C_6
REMARK    5  A    between atoms: C_20  and  O_21
REMARK    6  A    between atoms: O_21  and  C_22
REMARK    7  A    between atoms: C_22  and  C_23
REMARK                            x       y       z     vdW  Elec       q    Type
REMARK                         _______ _______ _______ _____ _____    ______ ____
ROOT
ATOM      1  N   UNL     1      46.942   7.177  14.181  0.00  0.00    +0.000 N 
ATOM      2  C   UNL     1      47.982   6.285  14.296  0.00  0.00    +0.000 C 
ATOM      3  O   UNL     1      48.635   5.893  13.340  0.00  0.00    +0.000 OA
ATOM      4  H   UNL     1      46.331   7.335  14.968  0.00  0.00    +0.000 HD
ENDROOT
BRANCH   2   5
ATOM      5  C   UNL     1      48.285   5.883  15.670  0.00  0.00    +0.000 A 
ATOM      6  C   UNL     1      47.967   4.636  16.183  0.00  0.00    +0.000 A 
ATOM      7  S   UNL     1      48.321   4.485  17.849  0.00  0.00    +0.000 S 
ATOM      8  C   UNL     1      48.879   6.093  17.931  0.00  0.00    +0.000 A 
ATOM      9  N   UNL     1      49.281   6.637  19.112  0.00  0.00    +0.000 NA
ATOM     10  C   UNL     1      49.635   7.884  19.048  0.00  0.00    +0.000 A 
ATOM     11  N   UNL     1      50.008   8.549  20.168  0.00  0.00    +0.000 N 
ATOM     12  N   UNL     1      49.665   8.599  17.879  0.00  0.00    +0.000 N 
ATOM     13  C   UNL     1      49.366   8.067  16.643  0.00  0.00    +0.000 A 
ATOM     14  O   UNL     1      49.595   8.695  15.616  0.00  0.00    +0.000 OA
ATOM     15  C   UNL     1      48.852   6.713  16.700  0.00  0.00    +0.000 A 
ATOM     16  H   UNL     1      50.197   7.940  20.960  0.00  0.00    +0.000 HD
ATOM     17  H   UNL     1      50.634   9.338  20.090  0.00  0.00    +0.000 HD
ATOM     18  H   UNL     1      49.988   9.551  17.870  0.00  0.00    +0.000 HD
ENDBRANCH   2   5
BRANCH   1  20
ATOM     19  C   UNL     1      47.685   8.478  12.238  0.00  0.00    +0.000 C 
ATOM     20  C   UNL     1      46.539   7.696  12.890  0.00  0.00    +0.000 C 
BRANCH  20  21
ATOM     21  C   UNL     1      46.026   6.571  12.010  0.00  0.00    +0.000 A 
ATOM     22  C   UNL     1      45.099   5.642  12.509  0.00  0.00    +0.000 A 
ATOM     23  C   UNL     1      44.488   4.719  11.654  0.00  0.00    +0.000 A 
ATOM     24  C   UNL     1      44.809   4.707  10.297  0.00  0.00    +0.000 A 
ATOM     25  C   UNL     1      45.831   5.528   9.829  0.00  0.00    +0.000 A 
ATOM     26  C   UNL     1      46.432   6.455  10.674  0.00  0.00    +0.000 A 
BRANCH  24  27
ATOM     27  O   UNL     1      44.064   3.891   9.489  0.00  0.00    +0.000 OA
BRANCH  27  28
ATOM     28  C   UNL     1      44.507   2.526   9.489  0.00  0.00    +0.000 C 
BRANCH  28  29
ATOM     29  C   UNL     1      45.468   2.294   8.361  0.00  0.00    +0.000 A 
ATOM     30  C   UNL     1      45.612   3.252   7.363  0.00  0.00    +0.000 A 
ATOM     31  N   UNL     1      46.488   3.119   6.342  0.00  0.00    +0.000 NA
ATOM     32  C   UNL     1      47.217   1.980   6.358  0.00  0.00    +0.000 A 
ATOM     33  C   UNL     1      47.090   1.028   7.354  0.00  0.00    +0.000 A 
ATOM     34  N   UNL     1      46.223   1.164   8.380  0.00  0.00    +0.000 NA
ENDBRANCH  28  29
ENDBRANCH  27  28
ENDBRANCH  24  27
ENDBRANCH  20  21
ENDBRANCH   1  20
TORSDOF 6
ENDMDL
MODEL 7
REMARK VINA RESULT:    -6.842      3.588      7.622
REMARK INTER + INTRA:          -9.848
REMARK INTER:                  -8.547
REMARK INTRA:                  -1.301
REMARK UNBOUND:                -0.606
REMARK  Name = 
REMARK  7 active torsions:
REMARK  status: ('A' for Active; 'I' for Inactive)
REMARK    1  A    between atoms: C_1  and  C_2
REMARK    2  A    between atoms: C_2  and  N_3
REMARK    3  A    between atoms: C_2  and  C_17
REMARK    4  A    between atoms: C_4  and  C_6
REMARK    5  A    between atoms: C_20  and  O_21
REMARK    6  A    between atoms: O_21  and  C_22
REMARK    7  A    between atoms: C_22  and  C_23
REMARK                            x       y       z     vdW  Elec       q    Type
REMARK                         _______ _______ _______ _____ _____    ______ ____
ROOT
ATOM      1  N   UNL     1      47.921   9.078  14.799  0.00  0.00    +0.000 N 
ATOM      2  C   UNL     1      48.149   8.267  13.713  0.00  0.00    +0.000 C 
ATOM      3  O   UNL     1      49.264   7.887  13.385  0.00  0.00    +0.000 OA
ATOM      4  H   UNL     1      47.013   9.499  14.926  0.00  0.00    +0.000 HD
ENDROOT
BRANCH   2   5
ATOM      5  C   UNL     1      46.938   7.843  13.009  0.00  0.00    +0.000 A 
ATOM      6  C   UNL     1      46.186   8.693  12.215  0.00  0.00    +0.000 A 
ATOM      7  S   UNL     1      44.757   7.968  11.620  0.00  0.00    +0.000 S 
ATOM      8  C   UNL     1      45.094   6.510  12.437  0.00  0.00    +0.000 A 
ATOM      9  N   UNL     1      44.220   5.467  12.399  0.00  0.00    +0.000 NA
ATOM     10  C   UNL     1      44.570   4.434  13.103  0.00  0.00    +0.000 A 
ATOM     11  N   UNL     1      43.759   3.352  13.184  0.00  0.00    +0.000 N 
ATOM     12  N   UNL     1      45.753   4.358  13.790  0.00  0.00    +0.000 N 
ATOM     13  C   UNL     1      46.717   5.344  13.777  0.00  0.00    +0.000 A 
ATOM     14  O   UNL     1      47.830   5.142  14.248  0.00  0.00    +0.000 OA
ATOM     15  C   UNL     1      46.301   6.556  13.099  0.00  0.00    +0.000 A 
ATOM     16  H   UNL     1      43.016   3.347  12.489  0.00  0.00    +0.000 HD
ATOM     17  H   UNL     1      44.160   2.445  13.371  0.00  0.00    +0.000 HD
ATOM     18  H   UNL     1      46.003   3.520  14.287  0.00  0.00    +0.000 HD
ENDBRANCH   2   5
BRANCH   1  20
ATOM     19  C   UNL     1      48.871  11.058  15.895  0.00  0.00    +0.000 C 
ATOM     20  C   UNL     1      49.015   9.557  15.620  0.00  0.00    +0.000 C 
BRANCH  20  21
ATOM     21  C   UNL     1      49.112   8.737  16.894  0.00  0.00    +0.000 A 
ATOM     22  C   UNL     1      47.985   8.552  17.710  0.00  0.00    +0.000 A 
ATOM     23  C   UNL     1      48.023   7.652  18.780  0.00  0.00    +0.000 A 
ATOM     24  C   UNL     1      49.191   6.940  19.051  0.00  0.00    +0.000 A 
ATOM     25  C   UNL     1      50.349   7.228  18.335  0.00  0.00    +0.000 A 
ATOM     26  C   UNL     1      50.312   8.113  17.262  0.00  0.00    +0.000 A 
BRANCH  24  27
ATOM     27  O   UNL     1      49.116   5.963  20.007  0.00  0.00    +0.000 OA
BRANCH  27  28
ATOM     28  C   UNL     1      49.922   4.812  19.714  0.00  0.00    +0.000 C 
BRANCH  28  29
ATOM     29  C   UNL     1      49.322   4.036  18.580  0.00  0.00    +0.000 A 
ATOM     30  C   UNL     1      50.147   3.370  17.679  0.00  0.00    +0.000 A 
ATOM     31  N   UNL     1      49.666   2.622  16.661  0.00  0.00    +0.000 NA
ATOM     32  C   UNL     1      48.317   2.570  16.576  0.00  0.00    +0.000 A 
ATOM     33  C   UNL     1      47.489   3.218  17.475  0.00  0.00    +0.000 A 
ATOM     34  N   UNL     1      47.967   3.957  18.499  0.00  0.00    +0.000 NA
ENDBRANCH  28  29
ENDBRANCH  27  28
ENDBRANCH  24  27
ENDBRANCH  20  21
ENDBRANCH   1  20
TORSDOF 6
ENDMDL
MODEL 8
REMARK VINA RESULT:    -6.808      2.141      2.642
REMARK INTER + INTRA:          -9.802
REMARK INTER:                  -9.195
REMARK INTRA:                  -0.606
REMARK UNBOUND:                -0.606
REMARK  Name = 
REMARK  7 active torsions:
REMARK  status: ('A' for Active; 'I' for Inactive)
REMARK    1  A    between atoms: C_1  and  C_2
REMARK    2  A    between atoms: C_2  and  N_3
REMARK    3  A    between atoms: C_2  and  C_17
REMARK    4  A    between atoms: C_4  and  C_6
REMARK    5  A    between atoms: C_20  and  O_21
REMARK    6  A    between atoms: O_21  and  C_22
REMARK    7  A    between atoms: C_22  and  C_23
REMARK                            x       y       z     vdW  Elec       q    Type
REMARK                         _______ _______ _______ _____ _____    ______ ____
ROOT
ATOM      1  N   UNL     1      48.318   6.401  15.001  0.00  0.00    +0.000 N 
ATOM      2  C   UNL     1      48.691   6.988  16.187  0.00  0.00    +0.000 C 
ATOM      3  O   UNL     1      48.689   8.199  16.363  0.00  0.00    +0.000 OA
ATOM      4  H   UNL     1      48.499   5.420  14.851  0.00  0.00    +0.000 HD
ENDROOT
BRANCH   2   5
ATOM      5  C   UNL     1      49.039   6.042  17.248  0.00  0.00    +0.000 A 
ATOM      6  C   UNL     1      48.096   5.442  18.066  0.00  0.00    +0.000 A 
ATOM      7  S   UNL     1      48.791   4.482  19.299  0.00  0.00    +0.000 S 
ATOM      8  C   UNL     1      50.369   4.873  18.787  0.00  0.00    +0.000 A 
ATOM      9  N   UNL     1      51.459   4.421  19.466  0.00  0.00    +0.000 NA
ATOM     10  C   UNL     1      52.601   4.831  19.004  0.00  0.00    +0.000 A 
ATOM     11  N   UNL     1      53.755   4.487  19.624  0.00  0.00    +0.000 N 
ATOM     12  N   UNL     1      52.722   5.612  17.884  0.00  0.00    +0.000 N 
ATOM     13  C   UNL     1      51.658   6.011  17.104  0.00  0.00    +0.000 A 
ATOM     14  O   UNL     1      51.842   6.542  16.015  0.00  0.00    +0.000 OA
ATOM     15  C   UNL     1      50.365   5.670  17.663  0.00  0.00    +0.000 A 
ATOM     16  H   UNL     1      53.647   3.731  20.296  0.00  0.00    +0.000 HD
ATOM     17  H   UNL     1      54.611   4.452  19.091  0.00  0.00    +0.000 HD
ATOM     18  H   UNL     1      53.630   5.870  17.537  0.00  0.00    +0.000 HD
ENDBRANCH   2   5
BRANCH   1  20
ATOM     19  C   UNL     1      49.138   7.676  13.071  0.00  0.00    +0.000 C 
ATOM     20  C   UNL     1      47.914   7.202  13.863  0.00  0.00    +0.000 C 
BRANCH  20  21
ATOM     21  C   UNL     1      46.926   6.432  13.006  0.00  0.00    +0.000 A 
ATOM     22  C   UNL     1      46.626   5.092  13.293  0.00  0.00    +0.000 A 
ATOM     23  C   UNL     1      45.587   4.436  12.623  0.00  0.00    +0.000 A 
ATOM     24  C   UNL     1      44.849   5.113  11.652  0.00  0.00    +0.000 A 
ATOM     25  C   UNL     1      45.237   6.391  11.265  0.00  0.00    +0.000 A 
ATOM     26  C   UNL     1      46.262   7.050  11.937  0.00  0.00    +0.000 A 
BRANCH  24  27
ATOM     27  O   UNL     1      43.749   4.471  11.149  0.00  0.00    +0.000 OA
BRANCH  27  28
ATOM     28  C   UNL     1      43.989   3.095  10.821  0.00  0.00    +0.000 C 
BRANCH  28  29
ATOM     29  C   UNL     1      44.736   2.994   9.525  0.00  0.00    +0.000 A 
ATOM     30  C   UNL     1      44.708   4.052   8.623  0.00  0.00    +0.000 A 
ATOM     31  N   UNL     1      45.391   4.039   7.456  0.00  0.00    +0.000 NA
ATOM     32  C   UNL     1      46.105   2.913   7.225  0.00  0.00    +0.000 A 
ATOM     33  C   UNL     1      46.149   1.861   8.122  0.00  0.00    +0.000 A 
ATOM     34  N   UNL     1      45.476   1.878   9.293  0.00  0.00    +0.000 NA
ENDBRANCH  28  29
ENDBRANCH  27  28
ENDBRANCH  24  27
ENDBRANCH  20  21
ENDBRANCH   1  20
TORSDOF 6
ENDMDL
MODEL 9
REMARK VINA RESULT:    -6.652      2.779      3.675
REMARK INTER + INTRA:          -9.591
REMARK INTER:                  -8.404
REMARK INTRA:                  -1.187
REMARK UNBOUND:                -0.606
REMARK  Name = 
REMARK  7 active torsions:
REMARK  status: ('A' for Active; 'I' for Inactive)
REMARK    1  A    between atoms: C_1  and  C_2
REMARK    2  A    between atoms: C_2  and  N_3
REMARK    3  A    between atoms: C_2  and  C_17
REMARK    4  A    between atoms: C_4  and  C_6
REMARK    5  A    between atoms: C_20  and  O_21
REMARK    6  A    between atoms: O_21  and  C_22
REMARK    7  A    between atoms: C_22  and  C_23
REMARK                            x       y       z     vdW  Elec       q    Type
REMARK                         _______ _______ _______ _____ _____    ______ ____
ROOT
ATOM      1  N   UNL     1      50.987   7.694  14.143  0.00  0.00    +0.000 N 
ATOM      2  C   UNL     1      51.092   8.025  15.474  0.00  0.00    +0.000 C 
ATOM      3  O   UNL     1      50.879   9.151  15.901  0.00  0.00    +0.000 OA
ATOM      4  H   UNL     1      51.337   6.804  13.822  0.00  0.00    +0.000 HD
ENDROOT
BRANCH   2   5
ATOM      5  C   UNL     1      51.425   6.904  16.353  0.00  0.00    +0.000 A 
ATOM      6  C   UNL     1      52.706   6.391  16.475  0.00  0.00    +0.000 A 
ATOM      7  S   UNL     1      52.781   5.004  17.471  0.00  0.00    +0.000 S 
ATOM      8  C   UNL     1      51.098   5.037  17.736  0.00  0.00    +0.000 A 
ATOM      9  N   UNL     1      50.484   4.068  18.469  0.00  0.00    +0.000 NA
ATOM     10  C   UNL     1      49.193   4.181  18.554  0.00  0.00    +0.000 A 
ATOM     11  N   UNL     1      48.466   3.249  19.216  0.00  0.00    +0.000 N 
ATOM     12  N   UNL     1      48.492   5.221  18.004  0.00  0.00    +0.000 N 
ATOM     13  C   UNL     1      49.076   6.280  17.341  0.00  0.00    +0.000 A 
ATOM     14  O   UNL     1      48.422   7.272  17.041  0.00  0.00    +0.000 OA
ATOM     15  C   UNL     1      50.500   6.119  17.127  0.00  0.00    +0.000 A 
ATOM     16  H   UNL     1      49.026   2.633  19.799  0.00  0.00    +0.000 HD
ATOM     17  H   UNL     1      47.578   3.510  19.618  0.00  0.00    +0.000 HD
ATOM     18  H   UNL     1      47.497   5.291  18.131  0.00  0.00    +0.000 HD
ENDBRANCH   2   5
BRANCH   1  20
ATOM     19  C   UNL     1      51.641   8.684  11.995  0.00  0.00    +0.000 C 
ATOM     20  C   UNL     1      50.632   8.687  13.149  0.00  0.00    +0.000 C 
BRANCH  20  21
ATOM     21  C   UNL     1      49.206   8.470  12.679  0.00  0.00    +0.000 A 
ATOM     22  C   UNL     1      48.869   7.338  11.920  0.00  0.00    +0.000 A 
ATOM     23  C   UNL     1      47.531   7.041  11.642  0.00  0.00    +0.000 A 
ATOM     24  C   UNL     1      46.519   7.881  12.109  0.00  0.00    +0.000 A 
ATOM     25  C   UNL     1      46.857   9.076  12.736  0.00  0.00    +0.000 A 
ATOM     26  C   UNL     1      48.187   9.369  13.024  0.00  0.00    +0.000 A 
BRANCH  24  27
ATOM     27  O   UNL     1      45.230   7.453  11.941  0.00  0.00    +0.000 OA
BRANCH  27  28
ATOM     28  C   UNL     1      44.816   6.485  12.917  0.00  0.00    +0.000 C 
BRANCH  28  29
ATOM     29  C   UNL     1      44.448   5.197  12.244  0.00  0.00    +0.000 A 
ATOM     30  C   UNL     1      44.096   4.089  13.008  0.00  0.00    +0.000 A 
ATOM     31  N   UNL     1      43.717   2.913  12.461  0.00  0.00    +0.000 NA
ATOM     32  C   UNL     1      43.709   2.887  11.109  0.00  0.00    +0.000 A 
ATOM     33  C   UNL     1      44.045   3.987  10.341  0.00  0.00    +0.000 A 
ATOM     34  N   UNL     1      44.413   5.167  10.886  0.00  0.00    +0.000 NA
ENDBRANCH  28  29
ENDBRANCH  27  28
ENDBRANCH  24  27
ENDBRANCH  20  21
ENDBRANCH   1  20
TORSDOF 6
ENDMDL
