MODEL 1
REMARK VINA RESULT:    -8.610      0.000      0.000
REMARK INTER + INTRA:         -11.990
REMARK INTER:                 -11.126
REMARK INTRA:                  -0.864
REMARK UNBOUND:                -0.864
REMARK  Name = 
REMARK  5 active torsions:
REMARK  status: ('A' for Active; 'I' for Inactive)
REMARK    1  A    between atoms: C_2  and  C_18
REMARK    2  A    between atoms: N_3  and  C_4
REMARK    3  A    between atoms: C_4  and  C_5
REMARK    4  A    between atoms: C_8  and  C_9
REMARK    5  A    between atoms: C_9  and  C_10
REMARK                            x       y       z     vdW  Elec       q    Type
REMARK                         _______ _______ _______ _____ _____    ______ ____
ROOT
ATOM      1  O   UNL     1      48.372   7.193  12.654  0.00  0.00    +0.000 OA
ATOM      2  C   UNL     1      47.693   6.878  13.629  0.00  0.00    +0.000 C 
ATOM      3  N   UNL     1      46.325   6.875  13.606  0.00  0.00    +0.000 N 
ATOM      4  H   UNL     1      45.808   6.776  14.474  0.00  0.00    +0.000 HD
ENDROOT
BRANCH   2   5
ATOM      5  C   UNL     1      48.325   6.427  14.879  0.00  0.00    +0.000 A 
ATOM      6  C   UNL     1      49.342   7.180  15.445  0.00  0.00    +0.000 A 
ATOM      7  S   UNL     1      49.964   6.517  16.885  0.00  0.00    +0.000 S 
ATOM      8  C   UNL     1      48.868   5.218  16.824  0.00  0.00    +0.000 A 
ATOM      9  N   UNL     1      48.840   4.278  17.810  0.00  0.00    +0.000 NA
ATOM     10  C   UNL     1      47.931   3.378  17.659  0.00  0.00    +0.000 A 
ATOM     11  N   UNL     1      47.057   3.314  16.605  0.00  0.00    +0.000 N 
ATOM     12  C   UNL     1      47.104   4.189  15.547  0.00  0.00    +0.000 A 
ATOM     13  O   UNL     1      46.409   4.018  14.550  0.00  0.00    +0.000 OA
ATOM     14  C   UNL     1      48.065   5.265  15.700  0.00  0.00    +0.000 A 
ATOM     15  H   UNL     1      46.396   2.558  16.527  0.00  0.00    +0.000 HD
ENDBRANCH   2   5
BRANCH   3  16
ATOM     16  C   UNL     1      45.568   7.293  12.456  0.00  0.00    +0.000 C 
BRANCH  16  17
ATOM     17  C   UNL     1      45.339   6.157  11.493  0.00  0.00    +0.000 A 
ATOM     18  C   UNL     1      44.443   5.131  11.817  0.00  0.00    +0.000 A 
ATOM     19  C   UNL     1      44.185   4.100  10.912  0.00  0.00    +0.000 A 
ATOM     20  C   UNL     1      44.829   4.065   9.668  0.00  0.00    +0.000 A 
ATOM     21  C   UNL     1      45.754   5.072   9.359  0.00  0.00    +0.000 A 
ATOM     22  C   UNL     1      46.013   6.103  10.266  0.00  0.00    +0.000 A 
BRANCH  20  23
ATOM     23  C   UNL     1      44.504   2.980   8.666  0.00  0.00    +0.000 C 
BRANCH  23  24
ATOM     24  C   UNL     1      45.697   2.542   7.850  0.00  0.00    +0.000 A 
ATOM     25  C   UNL     1      46.144   3.304   6.766  0.00  0.00    +0.000 A 
ATOM     26  C   UNL     1      47.221   2.843   6.024  0.00  0.00    +0.000 A 
ATOM     27  N   UNL     1      47.877   1.693   6.285  0.00  0.00    +0.000 NA
ATOM     28  C   UNL     1      47.432   0.969   7.333  0.00  0.00    +0.000 A 
ATOM     29  C   UNL     1      46.363   1.345   8.134  0.00  0.00    +0.000 A 
ENDBRANCH  23  24
ENDBRANCH  20  23
ENDBRANCH  16  17
ENDBRANCH   3  16
TORSDOF 5
ENDMDL
MODEL 2
REMARK VINA RESULT:    -8.542      1.780      3.159
REMARK INTER + INTRA:         -11.903
REMARK INTER:                 -10.970
REMARK INTRA:                  -0.933
REMARK UNBOUND:                -0.864
REMARK  Name = 
REMARK  5 active torsions:
REMARK  status: ('A' for Active; 'I' for Inactive)
REMARK    1  A    between atoms: C_2  and  C_18
REMARK    2  A    between atoms: N_3  and  C_4
REMARK    3  A    between atoms: C_4  and  C_5
REMARK    4  A    between atoms: C_8  and  C_9
REMARK    5  A    between atoms: C_9  and  C_10
REMARK                            x       y       z     vdW  Elec       q    Type
REMARK                         _______ _______ _______ _____ _____    ______ ____
ROOT
ATOM      1  O   UNL     1      47.181   4.248  14.343  0.00  0.00    +0.000 OA
ATOM      2  C   UNL     1      47.175   5.455  14.114  0.00  0.00    +0.000 C 
ATOM      3  N   UNL     1      46.077   6.107  13.620  0.00  0.00    +0.000 N 
ATOM      4  H   UNL     1      46.168   7.061  13.286  0.00  0.00    +0.000 HD
ENDROOT
BRANCH   2   5
ATOM      5  C   UNL     1      48.348   6.291  14.415  0.00  0.00    +0.000 A 
ATOM      6  C   UNL     1      48.861   6.315  15.702  0.00  0.00    +0.000 A 
ATOM      7  S   UNL     1      50.215   7.333  15.880  0.00  0.00    +0.000 S 
ATOM      8  C   UNL     1      50.187   7.748  14.232  0.00  0.00    +0.000 A 
ATOM      9  N   UNL     1      51.130   8.578  13.702  0.00  0.00    +0.000 NA
ATOM     10  C   UNL     1      51.014   8.771  12.434  0.00  0.00    +0.000 A 
ATOM     11  N   UNL     1      50.033   8.230  11.644  0.00  0.00    +0.000 N 
ATOM     12  C   UNL     1      49.015   7.458  12.148  0.00  0.00    +0.000 A 
ATOM     13  O   UNL     1      48.071   7.112  11.444  0.00  0.00    +0.000 OA
ATOM     14  C   UNL     1      49.135   7.153  13.562  0.00  0.00    +0.000 A 
ATOM     15  H   UNL     1      49.976   8.455  10.664  0.00  0.00    +0.000 HD
ENDBRANCH   2   5
BRANCH   3  16
ATOM     16  C   UNL     1      44.859   5.423  13.276  0.00  0.00    +0.000 C 
BRANCH  16  17
ATOM     17  C   UNL     1      44.873   4.939  11.849  0.00  0.00    +0.000 A 
ATOM     18  C   UNL     1      44.172   3.779  11.495  0.00  0.00    +0.000 A 
ATOM     19  C   UNL     1      44.136   3.349  10.167  0.00  0.00    +0.000 A 
ATOM     20  C   UNL     1      44.812   4.060   9.168  0.00  0.00    +0.000 A 
ATOM     21  C   UNL     1      45.543   5.201   9.529  0.00  0.00    +0.000 A 
ATOM     22  C   UNL     1      45.581   5.630  10.858  0.00  0.00    +0.000 A 
BRANCH  20  23
ATOM     23  C   UNL     1      44.723   3.626   7.723  0.00  0.00    +0.000 C 
BRANCH  23  24
ATOM     24  C   UNL     1      45.942   2.869   7.248  0.00  0.00    +0.000 A 
ATOM     25  C   UNL     1      46.648   3.283   6.115  0.00  0.00    +0.000 A 
ATOM     26  C   UNL     1      47.738   2.536   5.697  0.00  0.00    +0.000 A 
ATOM     27  N   UNL     1      48.171   1.422   6.323  0.00  0.00    +0.000 NA
ATOM     28  C   UNL     1      47.477   1.035   7.414  0.00  0.00    +0.000 A 
ATOM     29  C   UNL     1      46.373   1.714   7.909  0.00  0.00    +0.000 A 
ENDBRANCH  23  24
ENDBRANCH  20  23
ENDBRANCH  16  17
ENDBRANCH   3  16
TORSDOF 5
ENDMDL
MODEL 3
REMARK VINA RESULT:    -8.379      1.608      2.388
REMARK INTER + INTRA:         -11.691
REMARK INTER:                 -10.926
REMARK INTRA:                  -0.765
REMARK UNBOUND:                -0.864
REMARK  Name = 
REMARK  5 active torsions:
REMARK  status: ('A' for Active; 'I' for Inactive)
REMARK    1  A    between atoms: C_2  and  C_18
REMARK    2  A    between atoms: N_3  and  C_4
REMARK    3  A    between atoms: C_4  and  C_5
REMARK    4  A    between atoms: C_8  and  C_9
REMARK    5  A    between atoms: C_9  and  C_10
REMARK                            x       y       z     vdW  Elec       q    Type
REMARK                         _______ _______ _______ _____ _____    ______ ____
ROOT
ATOM      1  O   UNL     1      47.226   3.662  14.589  0.00  0.00    +0.000 OA
ATOM      2  C   UNL     1      47.074   4.869  14.411  0.00  0.00    +0.000 C 
ATOM      3  N   UNL     1      45.912   5.403  13.924  0.00  0.00    +0.000 N 
ATOM      4  H   UNL     1      45.889   6.375  13.632  0.00  0.00    +0.000 HD
ENDROOT
BRANCH   2   5
ATOM      5  C   UNL     1      48.132   5.827  14.768  0.00  0.00    +0.000 A 
ATOM      6  C   UNL     1      48.703   6.617  13.782  0.00  0.00    +0.000 A 
ATOM      7  S   UNL     1      49.911   7.669  14.363  0.00  0.00    +0.000 S 
ATOM      8  C   UNL     1      49.685   7.133  15.960  0.00  0.00    +0.000 A 
ATOM      9  N   UNL     1      50.398   7.675  16.988  0.00  0.00    +0.000 NA
ATOM     10  C   UNL     1      50.093   7.206  18.149  0.00  0.00    +0.000 A 
ATOM     11  N   UNL     1      49.157   6.233  18.382  0.00  0.00    +0.000 N 
ATOM     12  C   UNL     1      48.477   5.600  17.371  0.00  0.00    +0.000 A 
ATOM     13  O   UNL     1      47.756   4.633  17.598  0.00  0.00    +0.000 OA
ATOM     14  C   UNL     1      48.732   6.136  16.046  0.00  0.00    +0.000 A 
ATOM     15  H   UNL     1      48.996   5.882  19.312  0.00  0.00    +0.000 HD
ENDBRANCH   2   5
BRANCH   3  16
ATOM     16  C   UNL     1      44.791   4.591  13.529  0.00  0.00    +0.000 C 
BRANCH  16  17
ATOM     17  C   UNL     1      44.741   4.395  12.036  0.00  0.00    +0.000 A 
ATOM     18  C   UNL     1      45.371   5.312  11.186  0.00  0.00    +0.000 A 
ATOM     19  C   UNL     1      45.375   5.113   9.804  0.00  0.00    +0.000 A 
ATOM     20  C   UNL     1      44.735   4.001   9.241  0.00  0.00    +0.000 A 
ATOM     21  C   UNL     1      44.074   3.103  10.090  0.00  0.00    +0.000 A 
ATOM     22  C   UNL     1      44.069   3.303  11.473  0.00  0.00    +0.000 A 
BRANCH  20  23
ATOM     23  C   UNL     1      44.791   3.757   7.750  0.00  0.00    +0.000 C 
BRANCH  23  24
ATOM     24  C   UNL     1      45.957   2.895   7.327  0.00  0.00    +0.000 A 
ATOM     25  C   UNL     1      46.781   3.275   6.263  0.00  0.00    +0.000 A 
ATOM     26  C   UNL     1      47.818   2.434   5.888  0.00  0.00    +0.000 A 
ATOM     27  N   UNL     1      48.090   1.259   6.493  0.00  0.00    +0.000 NA
ATOM     28  C   UNL     1      47.284   0.906   7.517  0.00  0.00    +0.000 A 
ATOM     29  C   UNL     1      46.222   1.679   7.965  0.00  0.00    +0.000 A 
ENDBRANCH  23  24
ENDBRANCH  20  23
ENDBRANCH  16  17
ENDBRANCH   3  16
TORSDOF 5
ENDMDL
MODEL 4
REMARK VINA RESULT:    -8.294      1.708      2.387
REMARK INTER + INTRA:         -11.582
REMARK INTER:                 -10.812
REMARK INTRA:                  -0.770
REMARK UNBOUND:                -0.864
REMARK  Name = 
REMARK  5 active torsions:
REMARK  status: ('A' for Active; 'I' for Inactive)
REMARK    1  A    between atoms: C_2  and  C_18
REMARK    2  A    between atoms: N_3  and  C_4
REMARK    3  A    between atoms: C_4  and  C_5
REMARK    4  A    between atoms: C_8  and  C_9
REMARK    5  A    between atoms: C_9  and  C_10
REMARK                            x       y       z     vdW  Elec       q    Type
REMARK                         _______ _______ _______ _____ _____    ______ ____
ROOT
ATOM      1  O   UNL     1      48.714   6.338  14.383  0.00  0.00    +0.000 OA
ATOM      2  C   UNL     1      47.744   5.718  14.813  0.00  0.00    +0.000 C 
ATOM      3  N   UNL     1      46.536   5.699  14.171  0.00  0.00    +0.000 N 
ATOM      4  H   UNL     1      45.721   5.320  14.644  0.00  0.00    +0.000 HD
ENDROOT
BRANCH   2   5
ATOM      5  C   UNL     1      47.846   4.902  16.034  0.00  0.00    +0.000 A 
ATOM      6  C   UNL     1      47.524   3.554  15.986  0.00  0.00    +0.000 A 
ATOM      7  S   UNL     1      47.693   2.757  17.482  0.00  0.00    +0.000 S 
ATOM      8  C   UNL     1      48.240   4.179  18.238  0.00  0.00    +0.000 A 
ATOM      9  N   UNL     1      48.608   4.177  19.551  0.00  0.00    +0.000 NA
ATOM     10  C   UNL     1      49.044   5.310  19.981  0.00  0.00    +0.000 A 
ATOM     11  N   UNL     1      49.131   6.454  19.230  0.00  0.00    +0.000 N 
ATOM     12  C   UNL     1      48.693   6.524  17.930  0.00  0.00    +0.000 A 
ATOM     13  O   UNL     1      48.645   7.594  17.332  0.00  0.00    +0.000 OA
ATOM     14  C   UNL     1      48.255   5.257  17.374  0.00  0.00    +0.000 A 
ATOM     15  H   UNL     1      49.443   7.319  19.640  0.00  0.00    +0.000 HD
ENDBRANCH   2   5
BRANCH   3  16
ATOM     16  C   UNL     1      46.284   6.449  12.969  0.00  0.00    +0.000 C 
BRANCH  16  17
ATOM     17  C   UNL     1      45.798   5.566  11.850  0.00  0.00    +0.000 A 
ATOM     18  C   UNL     1      45.875   6.008  10.523  0.00  0.00    +0.000 A 
ATOM     19  C   UNL     1      45.475   5.178   9.474  0.00  0.00    +0.000 A 
ATOM     20  C   UNL     1      44.976   3.894   9.729  0.00  0.00    +0.000 A 
ATOM     21  C   UNL     1      44.866   3.466  11.060  0.00  0.00    +0.000 A 
ATOM     22  C   UNL     1      45.264   4.297  12.110  0.00  0.00    +0.000 A 
BRANCH  20  23
ATOM     23  C   UNL     1      44.599   2.976   8.589  0.00  0.00    +0.000 C 
BRANCH  23  24
ATOM     24  C   UNL     1      45.784   2.517   7.773  0.00  0.00    +0.000 A 
ATOM     25  C   UNL     1      46.233   3.262   6.678  0.00  0.00    +0.000 A 
ATOM     26  C   UNL     1      47.302   2.782   5.937  0.00  0.00    +0.000 A 
ATOM     27  N   UNL     1      47.948   1.629   6.209  0.00  0.00    +0.000 NA
ATOM     28  C   UNL     1      47.500   0.921   7.267  0.00  0.00    +0.000 A 
ATOM     29  C   UNL     1      46.439   1.317   8.068  0.00  0.00    +0.000 A 
ENDBRANCH  23  24
ENDBRANCH  20  23
ENDBRANCH  16  17
ENDBRANCH   3  16
TORSDOF 5
ENDMDL
MODEL 5
REMARK VINA RESULT:    -8.175      1.846      2.480
REMARK INTER + INTRA:         -11.428
REMARK INTER:                 -10.414
REMARK INTRA:                  -1.014
REMARK UNBOUND:                -0.864
REMARK  Name = 
REMARK  5 active torsions:
REMARK  status: ('A' for Active; 'I' for Inactive)
REMARK    1  A    between atoms: C_2  and  C_18
REMARK    2  A    between atoms: N_3  and  C_4
REMARK    3  A    between atoms: C_4  and  C_5
REMARK    4  A    between atoms: C_8  and  C_9
REMARK    5  A    between atoms: C_9  and  C_10
REMARK                            x       y       z     vdW  Elec       q    Type
REMARK                         _______ _______ _______ _____ _____    ______ ____
ROOT
ATOM      1  O   UNL     1      46.741   8.435  13.603  0.00  0.00    +0.000 OA
ATOM      2  C   UNL     1      47.474   7.466  13.786  0.00  0.00    +0.000 C 
ATOM      3  N   UNL     1      47.029   6.176  13.690  0.00  0.00    +0.000 N 
ATOM      4  H   UNL     1      47.619   5.416  14.015  0.00  0.00    +0.000 HD
ENDROOT
BRANCH   2   5
ATOM      5  C   UNL     1      48.908   7.641  14.068  0.00  0.00    +0.000 A 
ATOM      6  C   UNL     1      49.670   8.470  13.259  0.00  0.00    +0.000 A 
ATOM      7  S   UNL     1      51.307   8.560  13.721  0.00  0.00    +0.000 S 
ATOM      8  C   UNL     1      51.046   7.523  15.044  0.00  0.00    +0.000 A 
ATOM      9  N   UNL     1      52.060   7.213  15.900  0.00  0.00    +0.000 NA
ATOM     10  C   UNL     1      51.711   6.455  16.882  0.00  0.00    +0.000 A 
ATOM     11  N   UNL     1      50.448   5.959  17.081  0.00  0.00    +0.000 N 
ATOM     12  C   UNL     1      49.418   6.176  16.199  0.00  0.00    +0.000 A 
ATOM     13  O   UNL     1      48.342   5.600  16.324  0.00  0.00    +0.000 OA
ATOM     14  C   UNL     1      49.739   7.081  15.110  0.00  0.00    +0.000 A 
ATOM     15  H   UNL     1      50.252   5.338  17.848  0.00  0.00    +0.000 HD
ENDBRANCH   2   5
BRANCH   3  16
ATOM     16  C   UNL     1      45.654   5.847  13.423  0.00  0.00    +0.000 C 
BRANCH  16  17
ATOM     17  C   UNL     1      45.473   5.281  12.038  0.00  0.00    +0.000 A 
ATOM     18  C   UNL     1      44.853   4.038  11.863  0.00  0.00    +0.000 A 
ATOM     19  C   UNL     1      44.635   3.527  10.583  0.00  0.00    +0.000 A 
ATOM     20  C   UNL     1      45.045   4.241   9.449  0.00  0.00    +0.000 A 
ATOM     21  C   UNL     1      45.697   5.469   9.626  0.00  0.00    +0.000 A 
ATOM     22  C   UNL     1      45.918   5.979  10.908  0.00  0.00    +0.000 A 
BRANCH  20  23
ATOM     23  C   UNL     1      44.754   3.713   8.063  0.00  0.00    +0.000 C 
BRANCH  23  24
ATOM     24  C   UNL     1      45.865   2.856   7.503  0.00  0.00    +0.000 A 
ATOM     25  C   UNL     1      46.169   1.615   8.071  0.00  0.00    +0.000 A 
ATOM     26  C   UNL     1      47.221   0.880   7.545  0.00  0.00    +0.000 A 
ATOM     27  N   UNL     1      47.979   1.289   6.506  0.00  0.00    +0.000 NA
ATOM     28  C   UNL     1      47.674   2.490   5.972  0.00  0.00    +0.000 A 
ATOM     29  C   UNL     1      46.642   3.298   6.427  0.00  0.00    +0.000 A 
ENDBRANCH  23  24
ENDBRANCH  20  23
ENDBRANCH  16  17
ENDBRANCH   3  16
TORSDOF 5
ENDMDL
MODEL 6
REMARK VINA RESULT:    -8.091      2.474      3.325
REMARK INTER + INTRA:         -11.320
REMARK INTER:                 -10.232
REMARK INTRA:                  -1.088
REMARK UNBOUND:                -0.864
REMARK  Name = 
REMARK  5 active torsions:
REMARK  status: ('A' for Active; 'I' for Inactive)
REMARK    1  A    between atoms: C_2  and  C_18
REMARK    2  A    between atoms: N_3  and  C_4
REMARK    3  A    between atoms: C_4  and  C_5
REMARK    4  A    between atoms: C_8  and  C_9
REMARK    5  A    between atoms: C_9  and  C_10
REMARK                            x       y       z     vdW  Elec       q    Type
REMARK                         _______ _______ _______ _____ _____    ______ ____
ROOT
ATOM      1  O   UNL     1      46.102   8.681  13.306  0.00  0.00    +0.000 OA
ATOM      2  C   UNL     1      47.091   7.963  13.185  0.00  0.00    +0.000 C 
ATOM      3  N   UNL     1      47.006   6.603  13.060  0.00  0.00    +0.000 N 
ATOM      4  H   UNL     1      47.845   6.038  13.135  0.00  0.00    +0.000 HD
ENDROOT
BRANCH   2   5
ATOM      5  C   UNL     1      48.443   8.540  13.112  0.00  0.00    +0.000 A 
ATOM      6  C   UNL     1      48.688   9.609  12.265  0.00  0.00    +0.000 A 
ATOM      7  S   UNL     1      50.302  10.153  12.299  0.00  0.00    +0.000 S 
ATOM      8  C   UNL     1      50.722   9.003  13.478  0.00  0.00    +0.000 A 
ATOM      9  N   UNL     1      51.983   8.954  13.991  0.00  0.00    +0.000 NA
ATOM     10  C   UNL     1      52.149   8.064  14.908  0.00  0.00    +0.000 A 
ATOM     11  N   UNL     1      51.179   7.202  15.350  0.00  0.00    +0.000 N 
ATOM     12  C   UNL     1      49.920   7.159  14.803  0.00  0.00    +0.000 A 
ATOM     13  O   UNL     1      49.122   6.280  15.115  0.00  0.00    +0.000 OA
ATOM     14  C   UNL     1      49.658   8.187  13.813  0.00  0.00    +0.000 A 
ATOM     15  H   UNL     1      51.387   6.502  16.042  0.00  0.00    +0.000 HD
ENDBRANCH   2   5
BRANCH   3  16
ATOM     16  C   UNL     1      45.753   5.897  13.114  0.00  0.00    +0.000 C 
BRANCH  16  17
ATOM     17  C   UNL     1      45.410   5.263  11.791  0.00  0.00    +0.000 A 
ATOM     18  C   UNL     1      45.892   5.820  10.600  0.00  0.00    +0.000 A 
ATOM     19  C   UNL     1      45.623   5.212   9.372  0.00  0.00    +0.000 A 
ATOM     20  C   UNL     1      44.853   4.044   9.307  0.00  0.00    +0.000 A 
ATOM     21  C   UNL     1      44.340   3.508  10.496  0.00  0.00    +0.000 A 
ATOM     22  C   UNL     1      44.608   4.117  11.725  0.00  0.00    +0.000 A 
BRANCH  20  23
ATOM     23  C   UNL     1      44.612   3.356   7.983  0.00  0.00    +0.000 C 
BRANCH  23  24
ATOM     24  C   UNL     1      45.852   2.713   7.408  0.00  0.00    +0.000 A 
ATOM     25  C   UNL     1      46.485   3.253   6.284  0.00  0.00    +0.000 A 
ATOM     26  C   UNL     1      47.599   2.607   5.770  0.00  0.00    +0.000 A 
ATOM     27  N   UNL     1      48.122   1.478   6.292  0.00  0.00    +0.000 NA
ATOM     28  C   UNL     1      47.498   0.969   7.375  0.00  0.00    +0.000 A 
ATOM     29  C   UNL     1      46.377   1.541   7.961  0.00  0.00    +0.000 A 
ENDBRANCH  23  24
ENDBRANCH  20  23
ENDBRANCH  16  17
ENDBRANCH   3  16
TORSDOF 5
ENDMDL
MODEL 7
REMARK VINA RESULT:    -7.816      1.033      1.310
REMARK INTER + INTRA:         -10.965
REMARK INTER:                 -10.088
REMARK INTRA:                  -0.877
REMARK UNBOUND:                -0.864
REMARK  Name = 
REMARK  5 active torsions:
REMARK  status: ('A' for Active; 'I' for Inactive)
REMARK    1  A    between atoms: C_2  and  C_18
REMARK    2  A    between atoms: N_3  and  C_4
REMARK    3  A    between atoms: C_4  and  C_5
REMARK    4  A    between atoms: C_8  and  C_9
REMARK    5  A    between atoms: C_9  and  C_10
REMARK                            x       y       z     vdW  Elec       q    Type
REMARK                         _______ _______ _______ _____ _____    ______ ____
ROOT
ATOM      1  O   UNL     1      49.521   7.337  13.872  0.00  0.00    +0.000 OA
ATOM      2  C   UNL     1      48.668   6.977  14.680  0.00  0.00    +0.000 C 
ATOM      3  N   UNL     1      47.329   7.169  14.474  0.00  0.00    +0.000 N 
ATOM      4  H   UNL     1      46.677   7.014  15.236  0.00  0.00    +0.000 HD
ENDROOT
BRANCH   2   5
ATOM      5  C   UNL     1      49.042   6.258  15.908  0.00  0.00    +0.000 A 
ATOM      6  C   UNL     1      50.088   6.727  16.687  0.00  0.00    +0.000 A 
ATOM      7  S   UNL     1      50.391   5.779  18.069  0.00  0.00    +0.000 S 
ATOM      8  C   UNL     1      49.108   4.728  17.695  0.00  0.00    +0.000 A 
ATOM      9  N   UNL     1      48.790   3.691  18.520  0.00  0.00    +0.000 NA
ATOM     10  C   UNL     1      47.769   3.004  18.138  0.00  0.00    +0.000 A 
ATOM     11  N   UNL     1      47.045   3.241  16.999  0.00  0.00    +0.000 N 
ATOM     12  C   UNL     1      47.380   4.221  16.097  0.00  0.00    +0.000 A 
ATOM     13  O   UNL     1      46.805   4.314  15.016  0.00  0.00    +0.000 OA
ATOM     14  C   UNL     1      48.482   5.069  16.512  0.00  0.00    +0.000 A 
ATOM     15  H   UNL     1      46.281   2.640  16.737  0.00  0.00    +0.000 HD
ENDBRANCH   2   5
BRANCH   3  16
ATOM     16  C   UNL     1      46.813   7.858  13.321  0.00  0.00    +0.000 C 
BRANCH  16  17
ATOM     17  C   UNL     1      46.157   6.911  12.350  0.00  0.00    +0.000 A 
ATOM     18  C   UNL     1      44.962   6.267  12.696  0.00  0.00    +0.000 A 
ATOM     19  C   UNL     1      44.319   5.426  11.785  0.00  0.00    +0.000 A 
ATOM     20  C   UNL     1      44.864   5.200  10.515  0.00  0.00    +0.000 A 
ATOM     21  C   UNL     1      46.079   5.816  10.183  0.00  0.00    +0.000 A 
ATOM     22  C   UNL     1      46.723   6.656  11.095  0.00  0.00    +0.000 A 
BRANCH  20  23
ATOM     23  C   UNL     1      44.136   4.337   9.510  0.00  0.00    +0.000 C 
BRANCH  23  24
ATOM     24  C   UNL     1      45.053   3.432   8.721  0.00  0.00    +0.000 A 
ATOM     25  C   UNL     1      45.746   3.910   7.604  0.00  0.00    +0.000 A 
ATOM     26  C   UNL     1      46.548   3.033   6.891  0.00  0.00    +0.000 A 
ATOM     27  N   UNL     1      46.709   1.731   7.209  0.00  0.00    +0.000 NA
ATOM     28  C   UNL     1      46.032   1.286   8.288  0.00  0.00    +0.000 A 
ATOM     29  C   UNL     1      45.205   2.085   9.065  0.00  0.00    +0.000 A 
ENDBRANCH  23  24
ENDBRANCH  20  23
ENDBRANCH  16  17
ENDBRANCH   3  16
TORSDOF 5
ENDMDL
MODEL 8
REMARK VINA RESULT:    -7.119      2.270      3.258
REMARK INTER + INTRA:         -10.064
REMARK INTER:                  -9.096
REMARK INTRA:                  -0.969
REMARK UNBOUND:                -0.864
REMARK  Name = 
REMARK  5 active torsions:
REMARK  status: ('A' for Active; 'I' for Inactive)
REMARK    1  A    between atoms: C_2  and  C_18
REMARK    2  A    between atoms: N_3  and  C_4
REMARK    3  A    between atoms: C_4  and  C_5
REMARK    4  A    between atoms: C_8  and  C_9
REMARK    5  A    between atoms: C_9  and  C_10
REMARK                            x       y       z     vdW  Elec       q    Type
REMARK                         _______ _______ _______ _____ _____    ______ ____
ROOT
ATOM      1  O   UNL     1      49.460   8.816  16.072  0.00  0.00    +0.000 OA
ATOM      2  C   UNL     1      48.857   7.788  16.371  0.00  0.00    +0.000 C 
ATOM      3  N   UNL     1      48.463   6.866  15.439  0.00  0.00    +0.000 N 
ATOM      4  H   UNL     1      47.824   6.124  15.706  0.00  0.00    +0.000 HD
ENDROOT
BRANCH   2   5
ATOM      5  C   UNL     1      48.569   7.458  17.775  0.00  0.00    +0.000 A 
ATOM      6  C   UNL     1      48.017   8.419  18.607  0.00  0.00    +0.000 A 
ATOM      7  S   UNL     1      47.749   7.876  20.199  0.00  0.00    +0.000 S 
ATOM      8  C   UNL     1      48.327   6.322  19.822  0.00  0.00    +0.000 A 
ATOM      9  N   UNL     1      48.331   5.331  20.758  0.00  0.00    +0.000 NA
ATOM     10  C   UNL     1      48.753   4.194  20.324  0.00  0.00    +0.000 A 
ATOM     11  N   UNL     1      49.191   3.954  19.047  0.00  0.00    +0.000 N 
ATOM     12  C   UNL     1      49.285   4.942  18.097  0.00  0.00    +0.000 A 
ATOM     13  O   UNL     1      49.818   4.731  17.012  0.00  0.00    +0.000 OA
ATOM     14  C   UNL     1      48.757   6.228  18.513  0.00  0.00    +0.000 A 
ATOM     15  H   UNL     1      49.548   3.050  18.784  0.00  0.00    +0.000 HD
ENDBRANCH   2   5
BRANCH   3  16
ATOM     16  C   UNL     1      48.673   7.051  14.028  0.00  0.00    +0.000 C 
BRANCH  16  17
ATOM     17  C   UNL     1      47.530   6.501  13.215  0.00  0.00    +0.000 A 
ATOM     18  C   UNL     1      47.044   7.215  12.113  0.00  0.00    +0.000 A 
ATOM     19  C   UNL     1      46.020   6.692  11.322  0.00  0.00    +0.000 A 
ATOM     20  C   UNL     1      45.448   5.449  11.626  0.00  0.00    +0.000 A 
ATOM     21  C   UNL     1      45.910   4.751  12.750  0.00  0.00    +0.000 A 
ATOM     22  C   UNL     1      46.934   5.276  13.542  0.00  0.00    +0.000 A 
BRANCH  20  23
ATOM     23  C   UNL     1      44.380   4.857  10.735  0.00  0.00    +0.000 C 
BRANCH  23  24
ATOM     24  C   UNL     1      44.932   3.963   9.650  0.00  0.00    +0.000 A 
ATOM     25  C   UNL     1      44.837   2.571   9.750  0.00  0.00    +0.000 A 
ATOM     26  C   UNL     1      45.390   1.790   8.747  0.00  0.00    +0.000 A 
ATOM     27  N   UNL     1      46.021   2.292   7.665  0.00  0.00    +0.000 NA
ATOM     28  C   UNL     1      46.107   3.636   7.585  0.00  0.00    +0.000 A 
ATOM     29  C   UNL     1      45.586   4.501   8.537  0.00  0.00    +0.000 A 
ENDBRANCH  23  24
ENDBRANCH  20  23
ENDBRANCH  16  17
ENDBRANCH   3  16
TORSDOF 5
ENDMDL
MODEL 9
REMARK VINA RESULT:    -6.779      4.558      7.047
REMARK INTER + INTRA:          -9.625
REMARK INTER:                  -8.655
REMARK INTRA:                  -0.970
REMARK UNBOUND:                -0.864
REMARK  Name = 
REMARK  5 active torsions:
REMARK  status: ('A' for Active; 'I' for Inactive)
REMARK    1  A    between atoms: C_2  and  C_18
REMARK    2  A    between atoms: N_3  and  C_4
REMARK    3  A    between atoms: C_4  and  C_5
REMARK    4  A    between atoms: C_8  and  C_9
REMARK    5  A    between atoms: C_9  and  C_10
REMARK                            x       y       z     vdW  Elec       q    Type
REMARK                         _______ _______ _______ _____ _____    ______ ____
ROOT
ATOM      1  O   UNL     1      44.470   7.762  11.020  0.00  0.00    +0.000 OA
ATOM      2  C   UNL     1      45.105   6.863  11.568  0.00  0.00    +0.000 C 
ATOM      3  N   UNL     1      46.223   7.102  12.320  0.00  0.00    +0.000 N 
ATOM      4  H   UNL     1      46.809   6.325  12.608  0.00  0.00    +0.000 HD
ENDROOT
BRANCH   2   5
ATOM      5  C   UNL     1      44.658   5.464  11.491  0.00  0.00    +0.000 A 
ATOM      6  C   UNL     1      43.976   4.901  12.559  0.00  0.00    +0.000 A 
ATOM      7  S   UNL     1      43.533   3.276  12.310  0.00  0.00    +0.000 S 
ATOM      8  C   UNL     1      44.203   3.277  10.747  0.00  0.00    +0.000 A 
ATOM      9  N   UNL     1      44.125   2.175   9.950  0.00  0.00    +0.000 NA
ATOM     10  C   UNL     1      44.634   2.331   8.777  0.00  0.00    +0.000 A 
ATOM     11  N   UNL     1      45.232   3.479   8.327  0.00  0.00    +0.000 N 
ATOM     12  C   UNL     1      45.409   4.585   9.123  0.00  0.00    +0.000 A 
ATOM     13  O   UNL     1      46.078   5.541   8.743  0.00  0.00    +0.000 OA
ATOM     14  C   UNL     1      44.793   4.487  10.433  0.00  0.00    +0.000 A 
ATOM     15  H   UNL     1      45.647   3.521   7.411  0.00  0.00    +0.000 HD
ENDBRANCH   2   5
BRANCH   3  16
ATOM     16  C   UNL     1      46.781   8.418  12.485  0.00  0.00    +0.000 C 
BRANCH  16  17
ATOM     17  C   UNL     1      48.219   8.476  12.039  0.00  0.00    +0.000 A 
ATOM     18  C   UNL     1      48.776   9.691  11.622  0.00  0.00    +0.000 A 
ATOM     19  C   UNL     1      50.121   9.767  11.255  0.00  0.00    +0.000 A 
ATOM     20  C   UNL     1      50.934   8.626  11.282  0.00  0.00    +0.000 A 
ATOM     21  C   UNL     1      50.366   7.403  11.665  0.00  0.00    +0.000 A 
ATOM     22  C   UNL     1      49.020   7.327  12.030  0.00  0.00    +0.000 A 
BRANCH  20  23
ATOM     23  C   UNL     1      52.404   8.723  10.941  0.00  0.00    +0.000 C 
BRANCH  23  24
ATOM     24  C   UNL     1      52.884   7.609  10.041  0.00  0.00    +0.000 A 
ATOM     25  C   UNL     1      52.442   7.513   8.718  0.00  0.00    +0.000 A 
ATOM     26  C   UNL     1      52.883   6.453   7.942  0.00  0.00    +0.000 A 
ATOM     27  N   UNL     1      53.724   5.495   8.384  0.00  0.00    +0.000 NA
ATOM     28  C   UNL     1      54.139   5.600   9.664  0.00  0.00    +0.000 A 
ATOM     29  C   UNL     1      53.754   6.623  10.519  0.00  0.00    +0.000 A 
ENDBRANCH  23  24
ENDBRANCH  20  23
ENDBRANCH  16  17
ENDBRANCH   3  16
TORSDOF 5
ENDMDL
