MODEL 1
REMARK VINA RESULT:    -8.307      0.000      0.000
REMARK INTER + INTRA:         -13.718
REMARK INTER:                 -12.678
REMARK INTRA:                  -1.040
REMARK UNBOUND:                -1.040
REMARK  Name = 
REMARK  10 active torsions:
REMARK  status: ('A' for Active; 'I' for Inactive)
REMARK    1  A    between atoms: N_1  and  C_2
REMARK    2  A    between atoms: C_2  and  C_3
REMARK    3  A    between atoms: C_3  and  N_4
REMARK    4  A    between atoms: C_3  and  C_22
REMARK    5  A    between atoms: N_4  and  C_5
REMARK    6  A    between atoms: C_5  and  C_6
REMARK    7  A    between atoms: C_9  and  C_10
REMARK    8  A    between atoms: C_10  and  O_11
REMARK    9  A    between atoms: C_10  and  C_12
REMARK   10  A    between atoms: C_12  and  N_13
REMARK                            x       y       z     vdW  Elec       q    Type
REMARK                         _______ _______ _______ _____ _____    ______ ____
ROOT
ATOM      1  C   UNL     1      48.427   6.218  14.859  0.00  0.00    +0.000 C 
ENDROOT
BRANCH   1   2
ATOM      2  C   UNL     1      47.275   5.907  13.938  0.00  0.00    +0.000 A 
ATOM      3  C   UNL     1      46.528   4.732  14.089  0.00  0.00    +0.000 A 
ATOM      4  C   UNL     1      45.407   4.489  13.288  0.00  0.00    +0.000 A 
ATOM      5  C   UNL     1      45.000   5.419  12.318  0.00  0.00    +0.000 A 
ATOM      6  C   UNL     1      45.750   6.598  12.182  0.00  0.00    +0.000 A 
ATOM      7  C   UNL     1      46.871   6.840  12.979  0.00  0.00    +0.000 A 
BRANCH   5   8
ATOM      8  C   UNL     1      43.776   5.109  11.461  0.00  0.00    +0.000 C 
BRANCH   8   9
ATOM      9  O   UNL     1      43.431   6.269  10.690  0.00  0.00    +0.000 OA
ATOM     10  H   UNL     1      42.704   6.015  10.097  0.00  0.00    +0.000 HD
ENDBRANCH   8   9
BRANCH   8  11
ATOM     11  C   UNL     1      43.968   3.914  10.504  0.00  0.00    +0.000 C 
BRANCH  11  12
ATOM     12  N   UNL     1      44.142   4.327   9.114  0.00  0.00    +0.000 N 
ATOM     13  C   UNL     1      45.112   3.561   8.471  0.00  0.00    +0.000 A 
ATOM     14  N   UNL     1      45.256   2.267   8.806  0.00  0.00    +0.000 NA
ATOM     15  C   UNL     1      46.211   1.564   8.178  0.00  0.00    +0.000 A 
ATOM     16  C   UNL     1      47.031   2.106   7.222  0.00  0.00    +0.000 A 
ATOM     17  C   UNL     1      46.803   3.436   6.952  0.00  0.00    +0.000 A 
ATOM     18  N   UNL     1      45.864   4.177   7.565  0.00  0.00    +0.000 NA
ATOM     19  H   UNL     1      44.410   5.304   9.006  0.00  0.00    +0.000 HD
ENDBRANCH  11  12
ENDBRANCH   8  11
ENDBRANCH   5   8
ENDBRANCH   1   2
BRANCH   1  20
ATOM     20  N   UNL     1      48.581   5.237  15.942  0.00  0.00    +0.000 NA
ATOM     21  H   UNL     1      49.372   4.636  15.710  0.00  0.00    +0.000 HD
BRANCH  20  22
ATOM     22  C   UNL     1      48.866   5.907  17.223  0.00  0.00    +0.000 C 
BRANCH  22  23
ATOM     23  C   UNL     1      49.969   5.163  17.960  0.00  0.00    +0.000 A 
ATOM     24  C   UNL     1      50.953   5.774  18.723  0.00  0.00    +0.000 A 
ATOM     25  S   UNL     1      52.356   4.803  18.870  0.00  0.00    +0.000 S 
ATOM     26  C   UNL     1      51.613   3.506  18.052  0.00  0.00    +0.000 A 
ATOM     27  N   UNL     1      52.302   2.383  17.714  0.00  0.00    +0.000 NA
ATOM     28  C   UNL     1      51.577   1.459  17.174  0.00  0.00    +0.000 A 
ATOM     29  N   UNL     1      50.221   1.543  16.976  0.00  0.00    +0.000 N 
ATOM     30  C   UNL     1      49.487   2.671  17.273  0.00  0.00    +0.000 A 
ATOM     31  O   UNL     1      48.271   2.711  17.122  0.00  0.00    +0.000 OA
ATOM     32  C   UNL     1      50.282   3.765  17.796  0.00  0.00    +0.000 A 
ATOM     33  H   UNL     1      49.702   0.750  16.629  0.00  0.00    +0.000 HD
ENDBRANCH  22  23
BRANCH  22  34
ATOM     34  C   UNL     1      47.606   5.969  18.174  0.00  0.00    +0.000 C 
BRANCH  34  35
ATOM     35  N   UNL     1      46.678   4.833  18.068  0.00  0.00    +0.000 NA
ATOM     36  H   UNL     1      46.870   4.330  17.199  0.00  0.00    +0.000 HD
ATOM     37  H   UNL     1      46.862   4.173  18.822  0.00  0.00    +0.000 HD
ENDBRANCH  34  35
ENDBRANCH  22  34
ENDBRANCH  20  22
ENDBRANCH   1  20
TORSDOF 10
ENDMDL
MODEL 2
REMARK VINA RESULT:    -8.136      1.312      1.417
REMARK INTER + INTRA:         -13.457
REMARK INTER:                 -12.510
REMARK INTRA:                  -0.946
REMARK UNBOUND:                -1.040
REMARK  Name = 
REMARK  10 active torsions:
REMARK  status: ('A' for Active; 'I' for Inactive)
REMARK    1  A    between atoms: N_1  and  C_2
REMARK    2  A    between atoms: C_2  and  C_3
REMARK    3  A    between atoms: C_3  and  N_4
REMARK    4  A    between atoms: C_3  and  C_22
REMARK    5  A    between atoms: N_4  and  C_5
REMARK    6  A    between atoms: C_5  and  C_6
REMARK    7  A    between atoms: C_9  and  C_10
REMARK    8  A    between atoms: C_10  and  O_11
REMARK    9  A    between atoms: C_10  and  C_12
REMARK   10  A    between atoms: C_12  and  N_13
REMARK                            x       y       z     vdW  Elec       q    Type
REMARK                         _______ _______ _______ _____ _____    ______ ____
ROOT
ATOM      1  C   UNL     1      48.325   6.626  14.047  0.00  0.00    +0.000 C 
ENDROOT
BRANCH   1   2
ATOM      2  C   UNL     1      47.214   6.026  13.223  0.00  0.00    +0.000 A 
ATOM      3  C   UNL     1      46.451   4.958  13.711  0.00  0.00    +0.000 A 
ATOM      4  C   UNL     1      45.367   4.460  12.980  0.00  0.00    +0.000 A 
ATOM      5  C   UNL     1      45.014   5.023  11.743  0.00  0.00    +0.000 A 
ATOM      6  C   UNL     1      45.780   6.101  11.268  0.00  0.00    +0.000 A 
ATOM      7  C   UNL     1      46.864   6.595  11.996  0.00  0.00    +0.000 A 
BRANCH   5   8
ATOM      8  C   UNL     1      43.829   4.444  10.976  0.00  0.00    +0.000 C 
BRANCH   8   9
ATOM      9  O   UNL     1      43.215   5.482  10.197  0.00  0.00    +0.000 OA
ATOM     10  H   UNL     1      43.891   6.162  10.038  0.00  0.00    +0.000 HD
ENDBRANCH   8   9
BRANCH   8  11
ATOM     11  C   UNL     1      44.200   3.273  10.042  0.00  0.00    +0.000 C 
BRANCH  11  12
ATOM     12  N   UNL     1      44.340   3.686   8.648  0.00  0.00    +0.000 N 
ATOM     13  C   UNL     1      45.415   3.048   8.032  0.00  0.00    +0.000 A 
ATOM     14  N   UNL     1      45.727   1.792   8.390  0.00  0.00    +0.000 NA
ATOM     15  C   UNL     1      46.779   1.216   7.789  0.00  0.00    +0.000 A 
ATOM     16  C   UNL     1      47.534   1.849   6.836  0.00  0.00    +0.000 A 
ATOM     17  C   UNL     1      47.133   3.132   6.541  0.00  0.00    +0.000 A 
ATOM     18  N   UNL     1      46.092   3.748   7.127  0.00  0.00    +0.000 NA
ATOM     19  H   UNL     1      44.475   4.688   8.528  0.00  0.00    +0.000 HD
ENDBRANCH  11  12
ENDBRANCH   8  11
ENDBRANCH   5   8
ENDBRANCH   1   2
BRANCH   1  20
ATOM     20  N   UNL     1      48.071   6.561  15.493  0.00  0.00    +0.000 NA
ATOM     21  H   UNL     1      48.116   5.581  15.774  0.00  0.00    +0.000 HD
BRANCH  20  22
ATOM     22  C   UNL     1      49.096   7.307  16.242  0.00  0.00    +0.000 C 
BRANCH  22  23
ATOM     23  C   UNL     1      50.024   6.334  16.955  0.00  0.00    +0.000 A 
ATOM     24  C   UNL     1      51.363   6.580  17.223  0.00  0.00    +0.000 A 
ATOM     25  S   UNL     1      52.260   5.134  17.420  0.00  0.00    +0.000 S 
ATOM     26  C   UNL     1      50.854   4.178  17.303  0.00  0.00    +0.000 A 
ATOM     27  N   UNL     1      50.913   2.820  17.263  0.00  0.00    +0.000 NA
ATOM     28  C   UNL     1      49.758   2.241  17.258  0.00  0.00    +0.000 A 
ATOM     29  N   UNL     1      48.552   2.895  17.327  0.00  0.00    +0.000 N 
ATOM     30  C   UNL     1      48.443   4.268  17.338  0.00  0.00    +0.000 A 
ATOM     31  O   UNL     1      47.358   4.831  17.437  0.00  0.00    +0.000 OA
ATOM     32  C   UNL     1      49.715   4.957  17.251  0.00  0.00    +0.000 A 
ATOM     33  H   UNL     1      47.690   2.377  17.408  0.00  0.00    +0.000 HD
ENDBRANCH  22  23
BRANCH  22  34
ATOM     34  C   UNL     1      48.479   8.271  17.330  0.00  0.00    +0.000 C 
BRANCH  34  35
ATOM     35  N   UNL     1      47.485   7.659  18.225  0.00  0.00    +0.000 NA
ATOM     36  H   UNL     1      47.746   6.685  18.391  0.00  0.00    +0.000 HD
ATOM     37  H   UNL     1      47.518   8.119  19.134  0.00  0.00    +0.000 HD
ENDBRANCH  34  35
ENDBRANCH  22  34
ENDBRANCH  20  22
ENDBRANCH   1  20
TORSDOF 10
ENDMDL
MODEL 3
REMARK VINA RESULT:    -8.018      1.840      2.754
REMARK INTER + INTRA:         -13.276
REMARK INTER:                 -12.228
REMARK INTRA:                  -1.048
REMARK UNBOUND:                -1.040
REMARK  Name = 
REMARK  10 active torsions:
REMARK  status: ('A' for Active; 'I' for Inactive)
REMARK    1  A    between atoms: N_1  and  C_2
REMARK    2  A    between atoms: C_2  and  C_3
REMARK    3  A    between atoms: C_3  and  N_4
REMARK    4  A    between atoms: C_3  and  C_22
REMARK    5  A    between atoms: N_4  and  C_5
REMARK    6  A    between atoms: C_5  and  C_6
REMARK    7  A    between atoms: C_9  and  C_10
REMARK    8  A    between atoms: C_10  and  O_11
REMARK    9  A    between atoms: C_10  and  C_12
REMARK   10  A    between atoms: C_12  and  N_13
REMARK                            x       y       z     vdW  Elec       q    Type
REMARK                         _______ _______ _______ _____ _____    ______ ____
ROOT
ATOM      1  C   UNL     1      47.535   5.730  14.884  0.00  0.00    +0.000 C 
ENDROOT
BRANCH   1   2
ATOM      2  C   UNL     1      46.607   5.324  13.767  0.00  0.00    +0.000 A 
ATOM      3  C   UNL     1      46.382   3.973  13.473  0.00  0.00    +0.000 A 
ATOM      4  C   UNL     1      45.456   3.598  12.494  0.00  0.00    +0.000 A 
ATOM      5  C   UNL     1      44.725   4.567  11.788  0.00  0.00    +0.000 A 
ATOM      6  C   UNL     1      44.951   5.918  12.097  0.00  0.00    +0.000 A 
ATOM      7  C   UNL     1      45.878   6.292  13.072  0.00  0.00    +0.000 A 
BRANCH   5   8
ATOM      8  C   UNL     1      43.731   4.114  10.723  0.00  0.00    +0.000 C 
BRANCH   8   9
ATOM      9  O   UNL     1      43.352   5.240   9.918  0.00  0.00    +0.000 OA
ATOM     10  H   UNL     1      42.599   4.963   9.368  0.00  0.00    +0.000 HD
ENDBRANCH   8   9
BRANCH   8  11
ATOM     11  C   UNL     1      44.267   3.000   9.798  0.00  0.00    +0.000 C 
BRANCH  11  12
ATOM     12  N   UNL     1      44.398   3.433   8.411  0.00  0.00    +0.000 N 
ATOM     13  C   UNL     1      45.529   2.886   7.809  0.00  0.00    +0.000 A 
ATOM     14  N   UNL     1      45.931   1.654   8.165  0.00  0.00    +0.000 NA
ATOM     15  C   UNL     1      47.035   1.166   7.578  0.00  0.00    +0.000 A 
ATOM     16  C   UNL     1      47.755   1.863   6.643  0.00  0.00    +0.000 A 
ATOM     17  C   UNL     1      47.260   3.114   6.348  0.00  0.00    +0.000 A 
ATOM     18  N   UNL     1      46.166   3.643   6.920  0.00  0.00    +0.000 NA
ATOM     19  H   UNL     1      44.456   4.444   8.299  0.00  0.00    +0.000 HD
ENDBRANCH  11  12
ENDBRANCH   8  11
ENDBRANCH   5   8
ENDBRANCH   1   2
BRANCH   1  20
ATOM     20  N   UNL     1      48.265   4.597  15.470  0.00  0.00    +0.000 NA
ATOM     21  H   UNL     1      49.207   4.916  15.697  0.00  0.00    +0.000 HD
BRANCH  20  22
ATOM     22  C   UNL     1      47.617   4.139  16.711  0.00  0.00    +0.000 C 
BRANCH  22  23
ATOM     23  C   UNL     1      48.003   5.055  17.862  0.00  0.00    +0.000 A 
ATOM     24  C   UNL     1      47.101   5.617  18.755  0.00  0.00    +0.000 A 
ATOM     25  S   UNL     1      47.710   7.043  19.481  0.00  0.00    +0.000 S 
ATOM     26  C   UNL     1      49.228   6.843  18.735  0.00  0.00    +0.000 A 
ATOM     27  N   UNL     1      50.201   7.788  18.826  0.00  0.00    +0.000 NA
ATOM     28  C   UNL     1      51.321   7.450  18.277  0.00  0.00    +0.000 A 
ATOM     29  N   UNL     1      51.567   6.238  17.678  0.00  0.00    +0.000 N 
ATOM     30  C   UNL     1      50.604   5.264  17.535  0.00  0.00    +0.000 A 
ATOM     31  O   UNL     1      50.854   4.175  17.030  0.00  0.00    +0.000 OA
ATOM     32  C   UNL     1      49.305   5.642  18.057  0.00  0.00    +0.000 A 
ATOM     33  H   UNL     1      52.491   6.006  17.347  0.00  0.00    +0.000 HD
ENDBRANCH  22  23
BRANCH  22  34
ATOM     34  C   UNL     1      48.028   2.666  17.108  0.00  0.00    +0.000 C 
BRANCH  34  35
ATOM     35  N   UNL     1      48.997   2.017  16.211  0.00  0.00    +0.000 NA
ATOM     36  H   UNL     1      49.829   2.606  16.144  0.00  0.00    +0.000 HD
ATOM     37  H   UNL     1      49.305   1.138  16.624  0.00  0.00    +0.000 HD
ENDBRANCH  34  35
ENDBRANCH  22  34
ENDBRANCH  20  22
ENDBRANCH   1  20
TORSDOF 10
ENDMDL
MODEL 4
REMARK VINA RESULT:    -7.869      2.176      2.863
REMARK INTER + INTRA:         -13.049
REMARK INTER:                 -11.926
REMARK INTRA:                  -1.124
REMARK UNBOUND:                -1.040
REMARK  Name = 
REMARK  10 active torsions:
REMARK  status: ('A' for Active; 'I' for Inactive)
REMARK    1  A    between atoms: N_1  and  C_2
REMARK    2  A    between atoms: C_2  and  C_3
REMARK    3  A    between atoms: C_3  and  N_4
REMARK    4  A    between atoms: C_3  and  C_22
REMARK    5  A    between atoms: N_4  and  C_5
REMARK    6  A    between atoms: C_5  and  C_6
REMARK    7  A    between atoms: C_9  and  C_10
REMARK    8  A    between atoms: C_10  and  O_11
REMARK    9  A    between atoms: C_10  and  C_12
REMARK   10  A    between atoms: C_12  and  N_13
REMARK                            x       y       z     vdW  Elec       q    Type
REMARK                         _______ _______ _______ _____ _____    ______ ____
ROOT
ATOM      1  C   UNL     1      48.394   6.772  13.687  0.00  0.00    +0.000 C 
ENDROOT
BRANCH   1   2
ATOM      2  C   UNL     1      47.179   6.189  13.009  0.00  0.00    +0.000 A 
ATOM      3  C   UNL     1      46.802   6.604  11.726  0.00  0.00    +0.000 A 
ATOM      4  C   UNL     1      45.726   6.000  11.066  0.00  0.00    +0.000 A 
ATOM      5  C   UNL     1      45.003   4.961  11.672  0.00  0.00    +0.000 A 
ATOM      6  C   UNL     1      45.396   4.546  12.955  0.00  0.00    +0.000 A 
ATOM      7  C   UNL     1      46.468   5.151  13.615  0.00  0.00    +0.000 A 
BRANCH   5   8
ATOM      8  C   UNL     1      43.832   4.336  10.920  0.00  0.00    +0.000 C 
BRANCH   8   9
ATOM      9  O   UNL     1      43.163   5.351  10.156  0.00  0.00    +0.000 OA
ATOM     10  H   UNL     1      42.219   5.122  10.136  0.00  0.00    +0.000 HD
ENDBRANCH   8   9
BRANCH   8  11
ATOM     11  C   UNL     1      44.236   3.186   9.974  0.00  0.00    +0.000 C 
BRANCH  11  12
ATOM     12  N   UNL     1      44.380   3.620   8.588  0.00  0.00    +0.000 N 
ATOM     13  C   UNL     1      45.463   3.000   7.968  0.00  0.00    +0.000 A 
ATOM     14  N   UNL     1      45.782   1.741   8.308  0.00  0.00    +0.000 NA
ATOM     15  C   UNL     1      46.842   1.181   7.704  0.00  0.00    +0.000 A 
ATOM     16  C   UNL     1      47.597   1.835   6.765  0.00  0.00    +0.000 A 
ATOM     17  C   UNL     1      47.187   3.119   6.486  0.00  0.00    +0.000 A 
ATOM     18  N   UNL     1      46.140   3.718   7.076  0.00  0.00    +0.000 NA
ATOM     19  H   UNL     1      44.508   4.625   8.482  0.00  0.00    +0.000 HD
ENDBRANCH  11  12
ENDBRANCH   8  11
ENDBRANCH   5   8
ENDBRANCH   1   2
BRANCH   1  20
ATOM     20  N   UNL     1      48.146   7.161  15.082  0.00  0.00    +0.000 NA
ATOM     21  H   UNL     1      47.445   6.525  15.464  0.00  0.00    +0.000 HD
BRANCH  20  22
ATOM     22  C   UNL     1      49.373   7.038  15.889  0.00  0.00    +0.000 C 
BRANCH  22  23
ATOM     23  C   UNL     1      49.046   7.252  17.359  0.00  0.00    +0.000 A 
ATOM     24  C   UNL     1      49.296   8.425  18.056  0.00  0.00    +0.000 A 
ATOM     25  S   UNL     1      49.432   8.160  19.743  0.00  0.00    +0.000 S 
ATOM     26  C   UNL     1      49.011   6.518  19.577  0.00  0.00    +0.000 A 
ATOM     27  N   UNL     1      49.058   5.657  20.628  0.00  0.00    +0.000 NA
ATOM     28  C   UNL     1      48.629   4.468  20.358  0.00  0.00    +0.000 A 
ATOM     29  N   UNL     1      48.124   4.073  19.143  0.00  0.00    +0.000 N 
ATOM     30  C   UNL     1      48.086   4.901  18.043  0.00  0.00    +0.000 A 
ATOM     31  O   UNL     1      47.597   4.540  16.977  0.00  0.00    +0.000 OA
ATOM     32  C   UNL     1      48.644   6.218  18.280  0.00  0.00    +0.000 A 
ATOM     33  H   UNL     1      47.725   3.154  19.026  0.00  0.00    +0.000 HD
ENDBRANCH  22  23
BRANCH  22  34
ATOM     34  C   UNL     1      50.479   8.089  15.482  0.00  0.00    +0.000 C 
BRANCH  34  35
ATOM     35  N   UNL     1      51.728   7.519  14.952  0.00  0.00    +0.000 NA
ATOM     36  H   UNL     1      52.479   8.200  15.074  0.00  0.00    +0.000 HD
ATOM     37  H   UNL     1      51.991   6.705  15.506  0.00  0.00    +0.000 HD
ENDBRANCH  34  35
ENDBRANCH  22  34
ENDBRANCH  20  22
ENDBRANCH   1  20
TORSDOF 10
ENDMDL
MODEL 5
REMARK VINA RESULT:    -7.098      1.571      2.213
REMARK INTER + INTRA:         -11.872
REMARK INTER:                 -10.937
REMARK INTRA:                  -0.935
REMARK UNBOUND:                -1.040
REMARK  Name = 
REMARK  10 active torsions:
REMARK  status: ('A' for Active; 'I' for Inactive)
REMARK    1  A    between atoms: N_1  and  C_2
REMARK    2  A    between atoms: C_2  and  C_3
REMARK    3  A    between atoms: C_3  and  N_4
REMARK    4  A    between atoms: C_3  and  C_22
REMARK    5  A    between atoms: N_4  and  C_5
REMARK    6  A    between atoms: C_5  and  C_6
REMARK    7  A    between atoms: C_9  and  C_10
REMARK    8  A    between atoms: C_10  and  O_11
REMARK    9  A    between atoms: C_10  and  C_12
REMARK   10  A    between atoms: C_12  and  N_13
REMARK                            x       y       z     vdW  Elec       q    Type
REMARK                         _______ _______ _______ _____ _____    ______ ____
ROOT
ATOM      1  C   UNL     1      47.603   4.287  15.558  0.00  0.00    +0.000 C 
ENDROOT
BRANCH   1   2
ATOM      2  C   UNL     1      46.754   4.523  14.334  0.00  0.00    +0.000 A 
ATOM      3  C   UNL     1      46.515   5.820  13.862  0.00  0.00    +0.000 A 
ATOM      4  C   UNL     1      45.799   6.030  12.679  0.00  0.00    +0.000 A 
ATOM      5  C   UNL     1      45.309   4.946  11.933  0.00  0.00    +0.000 A 
ATOM      6  C   UNL     1      45.563   3.650  12.410  0.00  0.00    +0.000 A 
ATOM      7  C   UNL     1      46.275   3.440  13.592  0.00  0.00    +0.000 A 
BRANCH   5   8
ATOM      8  C   UNL     1      44.526   5.221  10.652  0.00  0.00    +0.000 C 
BRANCH   8   9
ATOM      9  O   UNL     1      45.293   6.091   9.805  0.00  0.00    +0.000 OA
ATOM     10  H   UNL     1      45.279   5.709   8.912  0.00  0.00    +0.000 HD
ENDBRANCH   8   9
BRANCH   8  11
ATOM     11  C   UNL     1      44.158   3.951   9.857  0.00  0.00    +0.000 C 
BRANCH  11  12
ATOM     12  N   UNL     1      44.339   4.114   8.418  0.00  0.00    +0.000 N 
ATOM     13  C   UNL     1      45.339   3.275   7.931  0.00  0.00    +0.000 A 
ATOM     14  N   UNL     1      45.516   2.068   8.493  0.00  0.00    +0.000 NA
ATOM     15  C   UNL     1      46.500   1.294   8.009  0.00  0.00    +0.000 A 
ATOM     16  C   UNL     1      47.317   1.681   6.978  0.00  0.00    +0.000 A 
ATOM     17  C   UNL     1      47.053   2.934   6.472  0.00  0.00    +0.000 A 
ATOM     18  N   UNL     1      46.085   3.743   6.934  0.00  0.00    +0.000 NA
ATOM     19  H   UNL     1      44.579   5.063   8.138  0.00  0.00    +0.000 HD
ENDBRANCH  11  12
ENDBRANCH   8  11
ENDBRANCH   5   8
ENDBRANCH   1   2
BRANCH   1  20
ATOM     20  N   UNL     1      47.729   5.477  16.411  0.00  0.00    +0.000 NA
ATOM     21  H   UNL     1      47.294   5.265  17.309  0.00  0.00    +0.000 HD
BRANCH  20  22
ATOM     22  C   UNL     1      49.145   5.808  16.647  0.00  0.00    +0.000 C 
BRANCH  22  23
ATOM     23  C   UNL     1      49.483   5.607  18.117  0.00  0.00    +0.000 A 
ATOM     24  C   UNL     1      48.991   6.392  19.150  0.00  0.00    +0.000 A 
ATOM     25  S   UNL     1      50.004   6.354  20.531  0.00  0.00    +0.000 S 
ATOM     26  C   UNL     1      51.017   5.180  19.826  0.00  0.00    +0.000 A 
ATOM     27  N   UNL     1      52.172   4.779  20.422  0.00  0.00    +0.000 NA
ATOM     28  C   UNL     1      52.784   3.824  19.803  0.00  0.00    +0.000 A 
ATOM     29  N   UNL     1      52.327   3.209  18.663  0.00  0.00    +0.000 N 
ATOM     30  C   UNL     1      51.181   3.601  18.008  0.00  0.00    +0.000 A 
ATOM     31  O   UNL     1      50.771   3.014  17.012  0.00  0.00    +0.000 OA
ATOM     32  C   UNL     1      50.513   4.733  18.621  0.00  0.00    +0.000 A 
ATOM     33  H   UNL     1      52.810   2.410  18.281  0.00  0.00    +0.000 HD
ENDBRANCH  22  23
BRANCH  22  34
ATOM     34  C   UNL     1      49.496   7.301  16.271  0.00  0.00    +0.000 C 
BRANCH  34  35
ATOM     35  N   UNL     1      50.890   7.703  16.513  0.00  0.00    +0.000 NA
ATOM     36  H   UNL     1      51.038   8.633  16.116  0.00  0.00    +0.000 HD
ATOM     37  H   UNL     1      51.046   7.797  17.516  0.00  0.00    +0.000 HD
ENDBRANCH  34  35
ENDBRANCH  22  34
ENDBRANCH  20  22
ENDBRANCH   1  20
TORSDOF 10
ENDMDL
MODEL 6
REMARK VINA RESULT:    -6.901      3.296      4.190
REMARK INTER + INTRA:         -11.572
REMARK INTER:                 -10.418
REMARK INTRA:                  -1.154
REMARK UNBOUND:                -1.040
REMARK  Name = 
REMARK  10 active torsions:
REMARK  status: ('A' for Active; 'I' for Inactive)
REMARK    1  A    between atoms: N_1  and  C_2
REMARK    2  A    between atoms: C_2  and  C_3
REMARK    3  A    between atoms: C_3  and  N_4
REMARK    4  A    between atoms: C_3  and  C_22
REMARK    5  A    between atoms: N_4  and  C_5
REMARK    6  A    between atoms: C_5  and  C_6
REMARK    7  A    between atoms: C_9  and  C_10
REMARK    8  A    between atoms: C_10  and  O_11
REMARK    9  A    between atoms: C_10  and  C_12
REMARK   10  A    between atoms: C_12  and  N_13
REMARK                            x       y       z     vdW  Elec       q    Type
REMARK                         _______ _______ _______ _____ _____    ______ ____
ROOT
ATOM      1  C   UNL     1      47.935   5.902  14.603  0.00  0.00    +0.000 C 
ENDROOT
BRANCH   1   2
ATOM      2  C   UNL     1      46.914   5.444  13.591  0.00  0.00    +0.000 A 
ATOM      3  C   UNL     1      46.167   4.277  13.799  0.00  0.00    +0.000 A 
ATOM      4  C   UNL     1      45.162   3.902  12.902  0.00  0.00    +0.000 A 
ATOM      5  C   UNL     1      44.874   4.688  11.775  0.00  0.00    +0.000 A 
ATOM      6  C   UNL     1      45.622   5.861  11.581  0.00  0.00    +0.000 A 
ATOM      7  C   UNL     1      46.628   6.234  12.476  0.00  0.00    +0.000 A 
BRANCH   5   8
ATOM      8  C   UNL     1      43.775   4.237  10.817  0.00  0.00    +0.000 C 
BRANCH   8   9
ATOM      9  O   UNL     1      43.339   5.358  10.034  0.00  0.00    +0.000 OA
ATOM     10  H   UNL     1      42.410   5.527  10.264  0.00  0.00    +0.000 HD
ENDBRANCH   8   9
BRANCH   8  11
ATOM     11  C   UNL     1      44.201   3.100   9.865  0.00  0.00    +0.000 C 
BRANCH  11  12
ATOM     12  N   UNL     1      44.392   3.556   8.492  0.00  0.00    +0.000 N 
ATOM     13  C   UNL     1      45.508   2.961   7.907  0.00  0.00    +0.000 A 
ATOM     14  N   UNL     1      45.834   1.702   8.243  0.00  0.00    +0.000 NA
ATOM     15  C   UNL     1      46.925   1.168   7.673  0.00  0.00    +0.000 A 
ATOM     16  C   UNL     1      47.706   1.846   6.773  0.00  0.00    +0.000 A 
ATOM     17  C   UNL     1      47.287   3.127   6.496  0.00  0.00    +0.000 A 
ATOM     18  N   UNL     1      46.208   3.702   7.052  0.00  0.00    +0.000 NA
ATOM     19  H   UNL     1      44.508   4.564   8.405  0.00  0.00    +0.000 HD
ENDBRANCH  11  12
ENDBRANCH   8  11
ENDBRANCH   5   8
ENDBRANCH   1   2
BRANCH   1  20
ATOM     20  N   UNL     1      47.874   7.345  14.871  0.00  0.00    +0.000 NA
ATOM     21  H   UNL     1      47.424   7.477  15.777  0.00  0.00    +0.000 HD
BRANCH  20  22
ATOM     22  C   UNL     1      49.227   7.926  14.935  0.00  0.00    +0.000 C 
BRANCH  22  23
ATOM     23  C   UNL     1      49.225   9.138  15.854  0.00  0.00    +0.000 A 
ATOM     24  C   UNL     1      49.378  10.448  15.426  0.00  0.00    +0.000 A 
ATOM     25  S   UNL     1      49.967  11.471  16.666  0.00  0.00    +0.000 S 
ATOM     26  C   UNL     1      49.879  10.220  17.819  0.00  0.00    +0.000 A 
ATOM     27  N   UNL     1      50.359  10.374  19.082  0.00  0.00    +0.000 NA
ATOM     28  C   UNL     1      50.141   9.364  19.858  0.00  0.00    +0.000 A 
ATOM     29  N   UNL     1      49.456   8.230  19.496  0.00  0.00    +0.000 N 
ATOM     30  C   UNL     1      48.980   8.017  18.220  0.00  0.00    +0.000 A 
ATOM     31  O   UNL     1      48.338   7.013  17.928  0.00  0.00    +0.000 OA
ATOM     32  C   UNL     1      49.285   9.089  17.294  0.00  0.00    +0.000 A 
ATOM     33  H   UNL     1      49.246   7.516  20.177  0.00  0.00    +0.000 HD
ENDBRANCH  22  23
BRANCH  22  34
ATOM     34  C   UNL     1      49.761   8.391  13.524  0.00  0.00    +0.000 C 
BRANCH  34  35
ATOM     35  N   UNL     1      51.051   7.813  13.115  0.00  0.00    +0.000 NA
ATOM     36  H   UNL     1      51.555   7.509  13.950  0.00  0.00    +0.000 HD
ATOM     37  H   UNL     1      50.887   6.973  12.563  0.00  0.00    +0.000 HD
ENDBRANCH  34  35
ENDBRANCH  22  34
ENDBRANCH  20  22
ENDBRANCH   1  20
TORSDOF 10
ENDMDL
MODEL 7
REMARK VINA RESULT:    -6.899      2.028      3.068
REMARK INTER + INTRA:         -11.569
REMARK INTER:                 -11.163
REMARK INTRA:                  -0.407
REMARK UNBOUND:                -1.040
REMARK  Name = 
REMARK  10 active torsions:
REMARK  status: ('A' for Active; 'I' for Inactive)
REMARK    1  A    between atoms: N_1  and  C_2
REMARK    2  A    between atoms: C_2  and  C_3
REMARK    3  A    between atoms: C_3  and  N_4
REMARK    4  A    between atoms: C_3  and  C_22
REMARK    5  A    between atoms: N_4  and  C_5
REMARK    6  A    between atoms: C_5  and  C_6
REMARK    7  A    between atoms: C_9  and  C_10
REMARK    8  A    between atoms: C_10  and  O_11
REMARK    9  A    between atoms: C_10  and  C_12
REMARK   10  A    between atoms: C_12  and  N_13
REMARK                            x       y       z     vdW  Elec       q    Type
REMARK                         _______ _______ _______ _____ _____    ______ ____
ROOT
ATOM      1  C   UNL     1      47.909   5.670  14.772  0.00  0.00    +0.000 C 
ENDROOT
BRANCH   1   2
ATOM      2  C   UNL     1      46.985   5.491  13.594  0.00  0.00    +0.000 A 
ATOM      3  C   UNL     1      47.130   6.272  12.440  0.00  0.00    +0.000 A 
ATOM      4  C   UNL     1      46.326   6.045  11.318  0.00  0.00    +0.000 A 
ATOM      5  C   UNL     1      45.360   5.026  11.319  0.00  0.00    +0.000 A 
ATOM      6  C   UNL     1      45.231   4.243  12.477  0.00  0.00    +0.000 A 
ATOM      7  C   UNL     1      46.030   4.471  13.599  0.00  0.00    +0.000 A 
BRANCH   5   8
ATOM      8  C   UNL     1      44.500   4.819  10.076  0.00  0.00    +0.000 C 
BRANCH   8   9
ATOM      9  O   UNL     1      45.160   5.400   8.940  0.00  0.00    +0.000 OA
ATOM     10  H   UNL     1      45.275   4.695   8.281  0.00  0.00    +0.000 HD
ENDBRANCH   8   9
BRANCH   8  11
ATOM     11  C   UNL     1      44.191   3.339   9.767  0.00  0.00    +0.000 C 
BRANCH  11  12
ATOM     12  N   UNL     1      45.373   2.487   9.847  0.00  0.00    +0.000 N 
ATOM     13  C   UNL     1      45.931   2.268   8.590  0.00  0.00    +0.000 A 
ATOM     14  N   UNL     1      45.873   3.243   7.667  0.00  0.00    +0.000 NA
ATOM     15  C   UNL     1      46.406   2.992   6.461  0.00  0.00    +0.000 A 
ATOM     16  C   UNL     1      47.000   1.798   6.141  0.00  0.00    +0.000 A 
ATOM     17  C   UNL     1      47.008   0.867   7.155  0.00  0.00    +0.000 A 
ATOM     18  N   UNL     1      46.477   1.076   8.371  0.00  0.00    +0.000 NA
ATOM     19  H   UNL     1      45.193   1.573  10.260  0.00  0.00    +0.000 HD
ENDBRANCH  11  12
ENDBRANCH   8  11
ENDBRANCH   5   8
ENDBRANCH   1   2
BRANCH   1  20
ATOM     20  N   UNL     1      47.868   4.543  15.715  0.00  0.00    +0.000 NA
ATOM     21  H   UNL     1      48.645   3.921  15.493  0.00  0.00    +0.000 HD
BRANCH  20  22
ATOM     22  C   UNL     1      48.028   5.011  17.103  0.00  0.00    +0.000 C 
BRANCH  22  23
ATOM     23  C   UNL     1      49.503   5.233  17.404  0.00  0.00    +0.000 A 
ATOM     24  C   UNL     1      50.455   4.224  17.450  0.00  0.00    +0.000 A 
ATOM     25  S   UNL     1      51.807   4.653  18.408  0.00  0.00    +0.000 S 
ATOM     26  C   UNL     1      51.212   6.231  18.644  0.00  0.00    +0.000 A 
ATOM     27  N   UNL     1      51.822   7.108  19.486  0.00  0.00    +0.000 NA
ATOM     28  C   UNL     1      51.297   8.290  19.490  0.00  0.00    +0.000 A 
ATOM     29  N   UNL     1      50.243   8.682  18.703  0.00  0.00    +0.000 N 
ATOM     30  C   UNL     1      49.575   7.821  17.860  0.00  0.00    +0.000 A 
ATOM     31  O   UNL     1      48.660   8.202  17.138  0.00  0.00    +0.000 OA
ATOM     32  C   UNL     1      50.076   6.461  17.895  0.00  0.00    +0.000 A 
ATOM     33  H   UNL     1      49.939   9.644  18.692  0.00  0.00    +0.000 HD
ENDBRANCH  22  23
BRANCH  22  34
ATOM     34  C   UNL     1      47.467   3.985  18.163  0.00  0.00    +0.000 C 
BRANCH  34  35
ATOM     35  N   UNL     1      46.625   2.909  17.617  0.00  0.00    +0.000 NA
ATOM     36  H   UNL     1      45.932   3.320  16.989  0.00  0.00    +0.000 HD
ATOM     37  H   UNL     1      47.195   2.291  17.043  0.00  0.00    +0.000 HD
ENDBRANCH  34  35
ENDBRANCH  22  34
ENDBRANCH  20  22
ENDBRANCH   1  20
TORSDOF 10
ENDMDL
MODEL 8
REMARK VINA RESULT:    -6.847      1.906      2.431
REMARK INTER + INTRA:         -11.490
REMARK INTER:                 -10.406
REMARK INTRA:                  -1.084
REMARK UNBOUND:                -1.040
REMARK  Name = 
REMARK  10 active torsions:
REMARK  status: ('A' for Active; 'I' for Inactive)
REMARK    1  A    between atoms: N_1  and  C_2
REMARK    2  A    between atoms: C_2  and  C_3
REMARK    3  A    between atoms: C_3  and  N_4
REMARK    4  A    between atoms: C_3  and  C_22
REMARK    5  A    between atoms: N_4  and  C_5
REMARK    6  A    between atoms: C_5  and  C_6
REMARK    7  A    between atoms: C_9  and  C_10
REMARK    8  A    between atoms: C_10  and  O_11
REMARK    9  A    between atoms: C_10  and  C_12
REMARK   10  A    between atoms: C_12  and  N_13
REMARK                            x       y       z     vdW  Elec       q    Type
REMARK                         _______ _______ _______ _____ _____    ______ ____
ROOT
ATOM      1  C   UNL     1      49.892   8.175  14.350  0.00  0.00    +0.000 C 
ENDROOT
BRANCH   1   2
ATOM      2  C   UNL     1      48.597   7.814  13.668  0.00  0.00    +0.000 A 
ATOM      3  C   UNL     1      48.463   6.607  12.970  0.00  0.00    +0.000 A 
ATOM      4  C   UNL     1      47.235   6.237  12.412  0.00  0.00    +0.000 A 
ATOM      5  C   UNL     1      46.106   7.062  12.543  0.00  0.00    +0.000 A 
ATOM      6  C   UNL     1      46.250   8.265  13.254  0.00  0.00    +0.000 A 
ATOM      7  C   UNL     1      47.476   8.636  13.809  0.00  0.00    +0.000 A 
BRANCH   5   8
ATOM      8  C   UNL     1      44.789   6.622  11.912  0.00  0.00    +0.000 C 
BRANCH   8   9
ATOM      9  O   UNL     1      44.322   7.649  11.024  0.00  0.00    +0.000 OA
ATOM     10  H   UNL     1      44.204   7.242  10.149  0.00  0.00    +0.000 HD
ENDBRANCH   8   9
BRANCH   8  11
ATOM     11  C   UNL     1      44.880   5.294  11.132  0.00  0.00    +0.000 C 
BRANCH  11  12
ATOM     12  N   UNL     1      44.946   5.491   9.687  0.00  0.00    +0.000 N 
ATOM     13  C   UNL     1      45.377   4.338   9.034  0.00  0.00    +0.000 A 
ATOM     14  N   UNL     1      45.036   3.136   9.528  0.00  0.00    +0.000 NA
ATOM     15  C   UNL     1      45.483   2.048   8.882  0.00  0.00    +0.000 A 
ATOM     16  C   UNL     1      46.259   2.115   7.754  0.00  0.00    +0.000 A 
ATOM     17  C   UNL     1      46.552   3.391   7.329  0.00  0.00    +0.000 A 
ATOM     18  N   UNL     1      46.133   4.505   7.952  0.00  0.00    +0.000 NA
ATOM     19  H   UNL     1      45.566   6.248   9.403  0.00  0.00    +0.000 HD
ENDBRANCH  11  12
ENDBRANCH   8  11
ENDBRANCH   5   8
ENDBRANCH   1   2
BRANCH   1  20
ATOM     20  N   UNL     1      50.607   7.009  14.888  0.00  0.00    +0.000 NA
ATOM     21  H   UNL     1      51.332   6.751  14.218  0.00  0.00    +0.000 HD
BRANCH  20  22
ATOM     22  C   UNL     1      51.252   7.332  16.172  0.00  0.00    +0.000 C 
BRANCH  22  23
ATOM     23  C   UNL     1      51.330   6.084  17.038  0.00  0.00    +0.000 A 
ATOM     24  C   UNL     1      52.484   5.632  17.662  0.00  0.00    +0.000 A 
ATOM     25  S   UNL     1      52.427   3.953  17.993  0.00  0.00    +0.000 S 
ATOM     26  C   UNL     1      50.815   3.843  17.453  0.00  0.00    +0.000 A 
ATOM     27  N   UNL     1      50.176   2.647  17.342  0.00  0.00    +0.000 NA
ATOM     28  C   UNL     1      48.934   2.741  16.999  0.00  0.00    +0.000 A 
ATOM     29  N   UNL     1      48.264   3.922  16.792  0.00  0.00    +0.000 N 
ATOM     30  C   UNL     1      48.877   5.154  16.862  0.00  0.00    +0.000 A 
ATOM     31  O   UNL     1      48.251   6.198  16.710  0.00  0.00    +0.000 OA
ATOM     32  C   UNL     1      50.295   5.087  17.155  0.00  0.00    +0.000 A 
ATOM     33  H   UNL     1      47.271   3.925  16.611  0.00  0.00    +0.000 HD
ENDBRANCH  22  23
BRANCH  22  34
ATOM     34  C   UNL     1      50.473   8.438  16.987  0.00  0.00    +0.000 C 
BRANCH  34  35
ATOM     35  N   UNL     1      51.272   9.170  17.982  0.00  0.00    +0.000 NA
ATOM     36  H   UNL     1      52.219   8.787  17.990  0.00  0.00    +0.000 HD
ATOM     37  H   UNL     1      51.364  10.143  17.693  0.00  0.00    +0.000 HD
ENDBRANCH  34  35
ENDBRANCH  22  34
ENDBRANCH  20  22
ENDBRANCH   1  20
TORSDOF 10
ENDMDL
MODEL 9
REMARK VINA RESULT:    -6.689      3.131      8.568
REMARK INTER + INTRA:         -11.249
REMARK INTER:                  -9.852
REMARK INTRA:                  -1.396
REMARK UNBOUND:                -1.040
REMARK  Name = 
REMARK  10 active torsions:
REMARK  status: ('A' for Active; 'I' for Inactive)
REMARK    1  A    between atoms: N_1  and  C_2
REMARK    2  A    between atoms: C_2  and  C_3
REMARK    3  A    between atoms: C_3  and  N_4
REMARK    4  A    between atoms: C_3  and  C_22
REMARK    5  A    between atoms: N_4  and  C_5
REMARK    6  A    between atoms: C_5  and  C_6
REMARK    7  A    between atoms: C_9  and  C_10
REMARK    8  A    between atoms: C_10  and  O_11
REMARK    9  A    between atoms: C_10  and  C_12
REMARK   10  A    between atoms: C_12  and  N_13
REMARK                            x       y       z     vdW  Elec       q    Type
REMARK                         _______ _______ _______ _____ _____    ______ ____
ROOT
ATOM      1  C   UNL     1      46.923   7.734  12.074  0.00  0.00    +0.000 C 
ENDROOT
BRANCH   1   2
ATOM      2  C   UNL     1      47.932   7.936  13.176  0.00  0.00    +0.000 A 
ATOM      3  C   UNL     1      47.558   8.504  14.400  0.00  0.00    +0.000 A 
ATOM      4  C   UNL     1      48.477   8.610  15.449  0.00  0.00    +0.000 A 
ATOM      5  C   UNL     1      49.793   8.145  15.303  0.00  0.00    +0.000 A 
ATOM      6  C   UNL     1      50.155   7.568  14.075  0.00  0.00    +0.000 A 
ATOM      7  C   UNL     1      49.239   7.464  13.026  0.00  0.00    +0.000 A 
BRANCH   5   8
ATOM      8  C   UNL     1      50.765   8.288  16.471  0.00  0.00    +0.000 C 
BRANCH   8   9
ATOM      9  O   UNL     1      50.523   9.536  17.139  0.00  0.00    +0.000 OA
ATOM     10  H   UNL     1      49.843  10.009  16.630  0.00  0.00    +0.000 HD
ENDBRANCH   8   9
BRANCH   8  11
ATOM     11  C   UNL     1      50.675   7.146  17.505  0.00  0.00    +0.000 C 
BRANCH  11  12
ATOM     12  N   UNL     1      50.939   5.835  16.921  0.00  0.00    +0.000 N 
ATOM     13  C   UNL     1      49.888   4.950  17.154  0.00  0.00    +0.000 A 
ATOM     14  N   UNL     1      48.630   5.421  17.196  0.00  0.00    +0.000 NA
ATOM     15  C   UNL     1      47.645   4.543  17.440  0.00  0.00    +0.000 A 
ATOM     16  C   UNL     1      47.869   3.206  17.643  0.00  0.00    +0.000 A 
ATOM     17  C   UNL     1      49.190   2.826  17.580  0.00  0.00    +0.000 A 
ATOM     18  N   UNL     1      50.206   3.674  17.348  0.00  0.00    +0.000 NA
ATOM     19  H   UNL     1      51.788   5.393  17.270  0.00  0.00    +0.000 HD
ENDBRANCH  11  12
ENDBRANCH   8  11
ENDBRANCH   5   8
ENDBRANCH   1   2
BRANCH   1  20
ATOM     20  N   UNL     1      45.790   6.888  12.476  0.00  0.00    +0.000 NA
ATOM     21  H   UNL     1      45.035   7.038  11.807  0.00  0.00    +0.000 HD
BRANCH  20  22
ATOM     22  C   UNL     1      46.161   5.463  12.447  0.00  0.00    +0.000 C 
BRANCH  22  23
ATOM     23  C   UNL     1      45.027   4.647  11.845  0.00  0.00    +0.000 A 
ATOM     24  C   UNL     1      44.046   4.002  12.585  0.00  0.00    +0.000 A 
ATOM     25  S   UNL     1      43.341   2.697  11.728  0.00  0.00    +0.000 S 
ATOM     26  C   UNL     1      44.221   3.073  10.319  0.00  0.00    +0.000 A 
ATOM     27  N   UNL     1      44.192   2.270   9.221  0.00  0.00    +0.000 NA
ATOM     28  C   UNL     1      44.845   2.737   8.207  0.00  0.00    +0.000 A 
ATOM     29  N   UNL     1      45.491   3.948   8.180  0.00  0.00    +0.000 N 
ATOM     30  C   UNL     1      45.573   4.778   9.277  0.00  0.00    +0.000 A 
ATOM     31  O   UNL     1      46.124   5.873   9.220  0.00  0.00    +0.000 OA
ATOM     32  C   UNL     1      44.931   4.248  10.463  0.00  0.00    +0.000 A 
ATOM     33  H   UNL     1      45.907   4.290   7.327  0.00  0.00    +0.000 HD
ENDBRANCH  22  23
BRANCH  22  34
ATOM     34  C   UNL     1      46.467   4.880  13.882  0.00  0.00    +0.000 C 
BRANCH  34  35
ATOM     35  N   UNL     1      47.231   3.623  13.904  0.00  0.00    +0.000 NA
ATOM     36  H   UNL     1      47.644   3.472  12.982  0.00  0.00    +0.000 HD
ATOM     37  H   UNL     1      48.012   3.712  14.553  0.00  0.00    +0.000 HD
ENDBRANCH  34  35
ENDBRANCH  22  34
ENDBRANCH  20  22
ENDBRANCH   1  20
TORSDOF 10
ENDMDL
