MODEL 1
REMARK VINA RESULT:    -7.975      0.000      0.000
REMARK INTER + INTRA:         -10.963
REMARK INTER:                 -10.539
REMARK INTRA:                  -0.424
REMARK UNBOUND:                -0.424
REMARK  Name = 
REMARK  6 active torsions:
REMARK  status: ('A' for Active; 'I' for Inactive)
REMARK    1  A    between atoms: N_1  and  C_2
REMARK    2  A    between atoms: C_2  and  C_3
REMARK    3  A    between atoms: C_6  and  C_7
REMARK    4  A    between atoms: C_7  and  O_8
REMARK    5  A    between atoms: O_8  and  C_9
REMARK    6  A    between atoms: C_14  and  C_15
REMARK                            x       y       z     vdW  Elec       q    Type
REMARK                         _______ _______ _______ _____ _____    ______ ____
ROOT
ATOM      1  O   UNL     1      44.031   4.154  11.250  0.00  0.00    +0.000 OA
ENDROOT
BRANCH   1   2
ATOM      2  C   UNL     1      45.054   4.839  11.852  0.00  0.00    +0.000 A 
ATOM      3  C   UNL     1      45.590   6.052  11.414  0.00  0.00    +0.000 A 
ATOM      4  C   UNL     1      46.645   6.645  12.111  0.00  0.00    +0.000 A 
ATOM      5  C   UNL     1      47.166   6.030  13.244  0.00  0.00    +0.000 A 
ATOM      6  F   UNL     1      48.182   6.639  13.877  0.00  0.00    +0.000 F 
ATOM      7  C   UNL     1      46.649   4.817  13.702  0.00  0.00    +0.000 A 
ATOM      8  C   UNL     1      45.588   4.226  12.994  0.00  0.00    +0.000 A 
BRANCH   7   9
ATOM      9  C   UNL     1      47.175   4.130  14.910  0.00  0.00    +0.000 C 
ATOM     10  N   UNL     1      47.139   4.799  16.101  0.00  0.00    +0.000 N 
ATOM     11  O   UNL     1      47.633   2.994  14.852  0.00  0.00    +0.000 OA
ATOM     12  H   UNL     1      46.772   5.737  16.198  0.00  0.00    +0.000 HD
ATOM     13  H   UNL     1      47.495   4.332  16.923  0.00  0.00    +0.000 HD
ENDBRANCH   7   9
ENDBRANCH   1   2
BRANCH   1  14
ATOM     14  C   UNL     1      43.811   4.413   9.861  0.00  0.00    +0.000 C 
BRANCH  14  18
ATOM     15  C   UNL     1      46.643   2.246   7.617  0.00  0.00    +0.000 A 
ATOM     16  C   UNL     1      46.443   3.607   7.410  0.00  0.00    +0.000 A 
ATOM     17  N   UNL     1      45.531   4.334   8.101  0.00  0.00    +0.000 NA
ATOM     18  C   UNL     1      44.808   3.651   9.027  0.00  0.00    +0.000 A 
ATOM     19  C   UNL     1      45.004   2.288   9.228  0.00  0.00    +0.000 A 
ATOM     20  N   UNL     1      45.924   1.561   8.546  0.00  0.00    +0.000 NA
BRANCH  15  21
ATOM     21  C   UNL     1      47.717   1.504   6.860  0.00  0.00    +0.000 C 
BRANCH  21  22
ATOM     22  N   UNL     1      48.671   2.416   6.224  0.00  0.00    +0.000 NA
ATOM     23  H   UNL     1      48.255   2.786   5.371  0.00  0.00    +0.000 HD
ATOM     24  H   UNL     1      49.473   1.859   5.924  0.00  0.00    +0.000 HD
ENDBRANCH  21  22
ENDBRANCH  15  21
ENDBRANCH  14  18
ENDBRANCH   1  14
TORSDOF 6
ENDMDL
MODEL 2
REMARK VINA RESULT:    -7.374      1.609      1.993
REMARK INTER + INTRA:         -10.169
REMARK INTER:                  -9.678
REMARK INTRA:                  -0.491
REMARK UNBOUND:                -0.424
REMARK  Name = 
REMARK  6 active torsions:
REMARK  status: ('A' for Active; 'I' for Inactive)
REMARK    1  A    between atoms: N_1  and  C_2
REMARK    2  A    between atoms: C_2  and  C_3
REMARK    3  A    between atoms: C_6  and  C_7
REMARK    4  A    between atoms: C_7  and  O_8
REMARK    5  A    between atoms: O_8  and  C_9
REMARK    6  A    between atoms: C_14  and  C_15
REMARK                            x       y       z     vdW  Elec       q    Type
REMARK                         _______ _______ _______ _____ _____    ______ ____
ROOT
ATOM      1  O   UNL     1      44.867   3.200  11.571  0.00  0.00    +0.000 OA
ENDROOT
BRANCH   1   2
ATOM      2  C   UNL     1      45.072   4.513  11.905  0.00  0.00    +0.000 A 
ATOM      3  C   UNL     1      44.223   5.576  11.587  0.00  0.00    +0.000 A 
ATOM      4  C   UNL     1      44.552   6.877  11.975  0.00  0.00    +0.000 A 
ATOM      5  C   UNL     1      45.725   7.118  12.681  0.00  0.00    +0.000 A 
ATOM      6  F   UNL     1      45.997   8.386  13.029  0.00  0.00    +0.000 F 
ATOM      7  C   UNL     1      46.591   6.074  13.010  0.00  0.00    +0.000 A 
ATOM      8  C   UNL     1      46.254   4.768  12.615  0.00  0.00    +0.000 A 
BRANCH   7   9
ATOM      9  C   UNL     1      47.852   6.290  13.766  0.00  0.00    +0.000 C 
ATOM     10  N   UNL     1      47.778   6.408  15.125  0.00  0.00    +0.000 N 
ATOM     11  O   UNL     1      48.935   6.364  13.196  0.00  0.00    +0.000 OA
ATOM     12  H   UNL     1      46.908   6.355  15.639  0.00  0.00    +0.000 HD
ATOM     13  H   UNL     1      48.636   6.553  15.639  0.00  0.00    +0.000 HD
ENDBRANCH   7   9
ENDBRANCH   1   2
BRANCH   1  14
ATOM     14  C   UNL     1      44.093   2.947  10.396  0.00  0.00    +0.000 C 
BRANCH  14  18
ATOM     15  C   UNL     1      46.531   2.761   6.964  0.00  0.00    +0.000 A 
ATOM     16  C   UNL     1      46.402   1.673   7.819  0.00  0.00    +0.000 A 
ATOM     17  N   UNL     1      45.640   1.700   8.941  0.00  0.00    +0.000 NA
ATOM     18  C   UNL     1      44.993   2.869   9.189  0.00  0.00    +0.000 A 
ATOM     19  C   UNL     1      45.129   3.960   8.336  0.00  0.00    +0.000 A 
ATOM     20  N   UNL     1      45.882   3.931   7.208  0.00  0.00    +0.000 NA
BRANCH  15  21
ATOM     21  C   UNL     1      47.344   2.650   5.698  0.00  0.00    +0.000 C 
BRANCH  21  22
ATOM     22  N   UNL     1      48.512   1.783   5.869  0.00  0.00    +0.000 NA
ATOM     23  H   UNL     1      49.005   2.055   6.718  0.00  0.00    +0.000 HD
ATOM     24  H   UNL     1      49.155   1.979   5.099  0.00  0.00    +0.000 HD
ENDBRANCH  21  22
ENDBRANCH  15  21
ENDBRANCH  14  18
ENDBRANCH   1  14
TORSDOF 6
ENDMDL
MODEL 3
REMARK VINA RESULT:    -7.362      1.774      2.365
REMARK INTER + INTRA:         -10.153
REMARK INTER:                  -9.647
REMARK INTRA:                  -0.506
REMARK UNBOUND:                -0.424
REMARK  Name = 
REMARK  6 active torsions:
REMARK  status: ('A' for Active; 'I' for Inactive)
REMARK    1  A    between atoms: N_1  and  C_2
REMARK    2  A    between atoms: C_2  and  C_3
REMARK    3  A    between atoms: C_6  and  C_7
REMARK    4  A    between atoms: C_7  and  O_8
REMARK    5  A    between atoms: O_8  and  C_9
REMARK    6  A    between atoms: C_14  and  C_15
REMARK                            x       y       z     vdW  Elec       q    Type
REMARK                         _______ _______ _______ _____ _____    ______ ____
ROOT
ATOM      1  O   UNL     1      43.957   3.840  11.253  0.00  0.00    +0.000 OA
ENDROOT
BRANCH   1   2
ATOM      2  C   UNL     1      44.950   4.372  12.035  0.00  0.00    +0.000 A 
ATOM      3  C   UNL     1      45.770   3.653  12.907  0.00  0.00    +0.000 A 
ATOM      4  C   UNL     1      46.741   4.315  13.663  0.00  0.00    +0.000 A 
ATOM      5  C   UNL     1      46.895   5.692  13.547  0.00  0.00    +0.000 A 
ATOM      6  F   UNL     1      47.840   6.281  14.297  0.00  0.00    +0.000 F 
ATOM      7  C   UNL     1      46.087   6.433  12.684  0.00  0.00    +0.000 A 
ATOM      8  C   UNL     1      45.111   5.760  11.928  0.00  0.00    +0.000 A 
BRANCH   7   9
ATOM      9  C   UNL     1      46.222   7.905  12.530  0.00  0.00    +0.000 C 
ATOM     10  N   UNL     1      45.184   8.695  12.937  0.00  0.00    +0.000 N 
ATOM     11  O   UNL     1      47.231   8.409  12.049  0.00  0.00    +0.000 OA
ATOM     12  H   UNL     1      44.331   8.325  13.338  0.00  0.00    +0.000 HD
ATOM     13  H   UNL     1      45.275   9.695  12.834  0.00  0.00    +0.000 HD
ENDBRANCH   7   9
ENDBRANCH   1   2
BRANCH   1  14
ATOM     14  C   UNL     1      43.863   4.324   9.911  0.00  0.00    +0.000 C 
BRANCH  14  18
ATOM     15  C   UNL     1      46.666   2.262   7.533  0.00  0.00    +0.000 A 
ATOM     16  C   UNL     1      46.440   3.625   7.370  0.00  0.00    +0.000 A 
ATOM     17  N   UNL     1      45.537   4.318   8.104  0.00  0.00    +0.000 NA
ATOM     18  C   UNL     1      44.849   3.600   9.030  0.00  0.00    +0.000 A 
ATOM     19  C   UNL     1      45.070   2.235   9.188  0.00  0.00    +0.000 A 
ATOM     20  N   UNL     1      45.982   1.541   8.461  0.00  0.00    +0.000 NA
BRANCH  15  21
ATOM     21  C   UNL     1      47.729   1.558   6.728  0.00  0.00    +0.000 C 
BRANCH  21  22
ATOM     22  N   UNL     1      48.736   2.489   6.213  0.00  0.00    +0.000 NA
ATOM     23  H   UNL     1      49.545   2.475   6.831  0.00  0.00    +0.000 HD
ATOM     24  H   UNL     1      48.347   3.431   6.284  0.00  0.00    +0.000 HD
ENDBRANCH  21  22
ENDBRANCH  15  21
ENDBRANCH  14  18
ENDBRANCH   1  14
TORSDOF 6
ENDMDL
MODEL 4
REMARK VINA RESULT:    -7.328      3.014      6.646
REMARK INTER + INTRA:         -10.108
REMARK INTER:                  -9.565
REMARK INTRA:                  -0.543
REMARK UNBOUND:                -0.424
REMARK  Name = 
REMARK  6 active torsions:
REMARK  status: ('A' for Active; 'I' for Inactive)
REMARK    1  A    between atoms: N_1  and  C_2
REMARK    2  A    between atoms: C_2  and  C_3
REMARK    3  A    between atoms: C_6  and  C_7
REMARK    4  A    between atoms: C_7  and  O_8
REMARK    5  A    between atoms: O_8  and  C_9
REMARK    6  A    between atoms: C_14  and  C_15
REMARK                            x       y       z     vdW  Elec       q    Type
REMARK                         _______ _______ _______ _____ _____    ______ ____
ROOT
ATOM      1  O   UNL     1      44.242   4.659   9.054  0.00  0.00    +0.000 OA
ENDROOT
BRANCH   1   2
ATOM      2  C   UNL     1      44.860   3.494   8.683  0.00  0.00    +0.000 A 
ATOM      3  C   UNL     1      44.630   2.236   9.245  0.00  0.00    +0.000 A 
ATOM      4  C   UNL     1      45.337   1.122   8.787  0.00  0.00    +0.000 A 
ATOM      5  C   UNL     1      46.273   1.262   7.767  0.00  0.00    +0.000 A 
ATOM      6  F   UNL     1      46.928   0.161   7.364  0.00  0.00    +0.000 F 
ATOM      7  C   UNL     1      46.522   2.507   7.190  0.00  0.00    +0.000 A 
ATOM      8  C   UNL     1      45.808   3.623   7.658  0.00  0.00    +0.000 A 
BRANCH   7   9
ATOM      9  C   UNL     1      47.512   2.697   6.098  0.00  0.00    +0.000 C 
ATOM     10  N   UNL     1      48.839   2.575   6.400  0.00  0.00    +0.000 N 
ATOM     11  O   UNL     1      47.159   2.960   4.953  0.00  0.00    +0.000 OA
ATOM     12  H   UNL     1      49.178   2.361   7.329  0.00  0.00    +0.000 HD
ATOM     13  H   UNL     1      49.512   2.702   5.657  0.00  0.00    +0.000 HD
ENDBRANCH   7   9
ENDBRANCH   1   2
BRANCH   1  14
ATOM     14  C   UNL     1      43.792   4.749  10.408  0.00  0.00    +0.000 C 
BRANCH  14  18
ATOM     15  C   UNL     1      46.899   5.948  12.990  0.00  0.00    +0.000 A 
ATOM     16  C   UNL     1      46.670   6.597  11.782  0.00  0.00    +0.000 A 
ATOM     17  N   UNL     1      45.691   6.231  10.919  0.00  0.00    +0.000 NA
ATOM     18  C   UNL     1      44.927   5.175  11.303  0.00  0.00    +0.000 A 
ATOM     19  C   UNL     1      45.161   4.521  12.509  0.00  0.00    +0.000 A 
ATOM     20  N   UNL     1      46.133   4.893  13.379  0.00  0.00    +0.000 NA
BRANCH  15  21
ATOM     21  C   UNL     1      47.963   6.441  13.938  0.00  0.00    +0.000 C 
BRANCH  21  22
ATOM     22  N   UNL     1      47.974   5.687  15.194  0.00  0.00    +0.000 NA
ATOM     23  H   UNL     1      48.798   5.089  15.214  0.00  0.00    +0.000 HD
ATOM     24  H   UNL     1      47.171   5.056  15.179  0.00  0.00    +0.000 HD
ENDBRANCH  21  22
ENDBRANCH  15  21
ENDBRANCH  14  18
ENDBRANCH   1  14
TORSDOF 6
ENDMDL
MODEL 5
REMARK VINA RESULT:    -6.925      2.711      3.697
REMARK INTER + INTRA:          -9.576
REMARK INTER:                  -9.079
REMARK INTRA:                  -0.497
REMARK UNBOUND:                -0.424
REMARK  Name = 
REMARK  6 active torsions:
REMARK  status: ('A' for Active; 'I' for Inactive)
REMARK    1  A    between atoms: N_1  and  C_2
REMARK    2  A    between atoms: C_2  and  C_3
REMARK    3  A    between atoms: C_6  and  C_7
REMARK    4  A    between atoms: C_7  and  O_8
REMARK    5  A    between atoms: O_8  and  C_9
REMARK    6  A    between atoms: C_14  and  C_15
REMARK                            x       y       z     vdW  Elec       q    Type
REMARK                         _______ _______ _______ _____ _____    ______ ____
ROOT
ATOM      1  O   UNL     1      44.319   4.913  11.508  0.00  0.00    +0.000 OA
ENDROOT
BRANCH   1   2
ATOM      2  C   UNL     1      45.013   6.067  11.765  0.00  0.00    +0.000 A 
ATOM      3  C   UNL     1      46.283   6.140  12.341  0.00  0.00    +0.000 A 
ATOM      4  C   UNL     1      46.881   7.382  12.565  0.00  0.00    +0.000 A 
ATOM      5  C   UNL     1      46.214   8.551  12.213  0.00  0.00    +0.000 A 
ATOM      6  F   UNL     1      46.830   9.720  12.452  0.00  0.00    +0.000 F 
ATOM      7  C   UNL     1      44.944   8.505  11.638  0.00  0.00    +0.000 A 
ATOM      8  C   UNL     1      44.348   7.251  11.417  0.00  0.00    +0.000 A 
BRANCH   7   9
ATOM      9  C   UNL     1      44.199   9.730  11.246  0.00  0.00    +0.000 C 
ATOM     10  N   UNL     1      43.638  10.489  12.235  0.00  0.00    +0.000 N 
ATOM     11  O   UNL     1      44.082  10.060  10.071  0.00  0.00    +0.000 OA
ATOM     12  H   UNL     1      43.707  10.257  13.217  0.00  0.00    +0.000 HD
ATOM     13  H   UNL     1      43.134  11.322  11.969  0.00  0.00    +0.000 HD
ENDBRANCH   7   9
ENDBRANCH   1   2
BRANCH   1  14
ATOM     14  C   UNL     1      43.765   4.772  10.197  0.00  0.00    +0.000 C 
BRANCH  14  18
ATOM     15  C   UNL     1      46.164   2.098   7.994  0.00  0.00    +0.000 A 
ATOM     16  C   UNL     1      46.167   3.462   7.727  0.00  0.00    +0.000 A 
ATOM     17  N   UNL     1      45.398   4.351   8.403  0.00  0.00    +0.000 NA
ATOM     18  C   UNL     1      44.609   3.829   9.378  0.00  0.00    +0.000 A 
ATOM     19  C   UNL     1      44.601   2.462   9.640  0.00  0.00    +0.000 A 
ATOM     20  N   UNL     1      45.378   1.573   8.972  0.00  0.00    +0.000 NA
BRANCH  15  21
ATOM     21  C   UNL     1      47.088   1.167   7.249  0.00  0.00    +0.000 C 
BRANCH  21  22
ATOM     22  N   UNL     1      46.932  -0.224   7.680  0.00  0.00    +0.000 NA
ATOM     23  H   UNL     1      47.421  -0.830   7.024  0.00  0.00    +0.000 HD
ATOM     24  H   UNL     1      45.942  -0.462   7.596  0.00  0.00    +0.000 HD
ENDBRANCH  21  22
ENDBRANCH  15  21
ENDBRANCH  14  18
ENDBRANCH   1  14
TORSDOF 6
ENDMDL
MODEL 6
REMARK VINA RESULT:    -6.613      3.388      7.628
REMARK INTER + INTRA:          -9.163
REMARK INTER:                  -8.799
REMARK INTRA:                  -0.364
REMARK UNBOUND:                -0.424
REMARK  Name = 
REMARK  6 active torsions:
REMARK  status: ('A' for Active; 'I' for Inactive)
REMARK    1  A    between atoms: N_1  and  C_2
REMARK    2  A    between atoms: C_2  and  C_3
REMARK    3  A    between atoms: C_6  and  C_7
REMARK    4  A    between atoms: C_7  and  O_8
REMARK    5  A    between atoms: O_8  and  C_9
REMARK    6  A    between atoms: C_14  and  C_15
REMARK                            x       y       z     vdW  Elec       q    Type
REMARK                         _______ _______ _______ _____ _____    ______ ____
ROOT
ATOM      1  O   UNL     1      47.487   3.103  14.636  0.00  0.00    +0.000 OA
ENDROOT
BRANCH   1   2
ATOM      2  C   UNL     1      46.817   3.897  13.742  0.00  0.00    +0.000 A 
ATOM      3  C   UNL     1      46.954   5.281  13.622  0.00  0.00    +0.000 A 
ATOM      4  C   UNL     1      46.200   5.981  12.676  0.00  0.00    +0.000 A 
ATOM      5  C   UNL     1      45.312   5.301  11.851  0.00  0.00    +0.000 A 
ATOM      6  F   UNL     1      44.609   6.020  10.960  0.00  0.00    +0.000 F 
ATOM      7  C   UNL     1      45.155   3.918  11.952  0.00  0.00    +0.000 A 
ATOM      8  C   UNL     1      45.916   3.222  12.907  0.00  0.00    +0.000 A 
BRANCH   7   9
ATOM      9  C   UNL     1      44.219   3.154  11.087  0.00  0.00    +0.000 C 
ATOM     10  N   UNL     1      44.745   2.398  10.077  0.00  0.00    +0.000 N 
ATOM     11  O   UNL     1      43.007   3.195  11.263  0.00  0.00    +0.000 OA
ATOM     12  H   UNL     1      45.738   2.334   9.892  0.00  0.00    +0.000 HD
ATOM     13  H   UNL     1      44.109   1.878   9.489  0.00  0.00    +0.000 HD
ENDBRANCH   7   9
ENDBRANCH   1   2
BRANCH   1  14
ATOM     14  C   UNL     1      47.505   3.538  15.998  0.00  0.00    +0.000 C 
BRANCH  14  18
ATOM     15  C   UNL     1      51.291   2.787  17.692  0.00  0.00    +0.000 A 
ATOM     16  C   UNL     1      50.628   1.822  16.942  0.00  0.00    +0.000 A 
ATOM     17  N   UNL     1      49.404   2.020  16.395  0.00  0.00    +0.000 NA
ATOM     18  C   UNL     1      48.846   3.238  16.619  0.00  0.00    +0.000 A 
ATOM     19  C   UNL     1      49.506   4.202  17.376  0.00  0.00    +0.000 A 
ATOM     20  N   UNL     1      50.736   4.009  17.915  0.00  0.00    +0.000 NA
BRANCH  15  21
ATOM     21  C   UNL     1      52.678   2.530  18.223  0.00  0.00    +0.000 C 
BRANCH  21  22
ATOM     22  N   UNL     1      52.912   1.107  18.483  0.00  0.00    +0.000 NA
ATOM     23  H   UNL     1      53.860   0.870  18.197  0.00  0.00    +0.000 HD
ATOM     24  H   UNL     1      52.294   0.577  17.866  0.00  0.00    +0.000 HD
ENDBRANCH  21  22
ENDBRANCH  15  21
ENDBRANCH  14  18
ENDBRANCH   1  14
TORSDOF 6
ENDMDL
MODEL 7
REMARK VINA RESULT:    -6.349      1.513      2.124
REMARK INTER + INTRA:          -8.815
REMARK INTER:                  -8.475
REMARK INTRA:                  -0.340
REMARK UNBOUND:                -0.424
REMARK  Name = 
REMARK  6 active torsions:
REMARK  status: ('A' for Active; 'I' for Inactive)
REMARK    1  A    between atoms: N_1  and  C_2
REMARK    2  A    between atoms: C_2  and  C_3
REMARK    3  A    between atoms: C_6  and  C_7
REMARK    4  A    between atoms: C_7  and  O_8
REMARK    5  A    between atoms: O_8  and  C_9
REMARK    6  A    between atoms: C_14  and  C_15
REMARK                            x       y       z     vdW  Elec       q    Type
REMARK                         _______ _______ _______ _____ _____    ______ ____
ROOT
ATOM      1  O   UNL     1      44.978   6.696  11.849  0.00  0.00    +0.000 OA
ENDROOT
BRANCH   1   2
ATOM      2  C   UNL     1      46.043   6.662  12.710  0.00  0.00    +0.000 A 
ATOM      3  C   UNL     1      47.032   7.642  12.821  0.00  0.00    +0.000 A 
ATOM      4  C   UNL     1      48.079   7.483  13.731  0.00  0.00    +0.000 A 
ATOM      5  C   UNL     1      48.140   6.348  14.532  0.00  0.00    +0.000 A 
ATOM      6  F   UNL     1      49.168   6.241  15.390  0.00  0.00    +0.000 F 
ATOM      7  C   UNL     1      47.166   5.353  14.440  0.00  0.00    +0.000 A 
ATOM      8  C   UNL     1      46.116   5.520  13.520  0.00  0.00    +0.000 A 
BRANCH   7   9
ATOM      9  C   UNL     1      47.194   4.128  15.279  0.00  0.00    +0.000 C 
ATOM     10  N   UNL     1      46.788   4.227  16.581  0.00  0.00    +0.000 N 
ATOM     11  O   UNL     1      47.570   3.051  14.829  0.00  0.00    +0.000 OA
ATOM     12  H   UNL     1      46.470   5.093  16.997  0.00  0.00    +0.000 HD
ATOM     13  H   UNL     1      46.805   3.394  17.152  0.00  0.00    +0.000 HD
ENDBRANCH   7   9
ENDBRANCH   1   2
BRANCH   1  14
ATOM     14  C   UNL     1      44.273   5.469  11.644  0.00  0.00    +0.000 C 
BRANCH  14  18
ATOM     15  C   UNL     1      45.617   3.658   8.085  0.00  0.00    +0.000 A 
ATOM     16  C   UNL     1      44.751   2.999   8.950  0.00  0.00    +0.000 A 
ATOM     17  N   UNL     1      44.310   3.543  10.111  0.00  0.00    +0.000 NA
ATOM     18  C   UNL     1      44.764   4.792  10.391  0.00  0.00    +0.000 A 
ATOM     19  C   UNL     1      45.637   5.448   9.528  0.00  0.00    +0.000 A 
ATOM     20  N   UNL     1      46.071   4.910   8.360  0.00  0.00    +0.000 NA
BRANCH  15  21
ATOM     21  C   UNL     1      46.024   3.027   6.777  0.00  0.00    +0.000 C 
BRANCH  21  22
ATOM     22  N   UNL     1      46.870   3.915   5.976  0.00  0.00    +0.000 NA
ATOM     23  H   UNL     1      47.405   3.355   5.316  0.00  0.00    +0.000 HD
ATOM     24  H   UNL     1      47.556   4.335   6.606  0.00  0.00    +0.000 HD
ENDBRANCH  21  22
ENDBRANCH  15  21
ENDBRANCH  14  18
ENDBRANCH   1  14
TORSDOF 6
ENDMDL
MODEL 8
REMARK VINA RESULT:    -6.186      2.880      6.693
REMARK INTER + INTRA:          -8.599
REMARK INTER:                  -8.709
REMARK INTRA:                   0.110
REMARK UNBOUND:                -0.424
REMARK  Name = 
REMARK  6 active torsions:
REMARK  status: ('A' for Active; 'I' for Inactive)
REMARK    1  A    between atoms: N_1  and  C_2
REMARK    2  A    between atoms: C_2  and  C_3
REMARK    3  A    between atoms: C_6  and  C_7
REMARK    4  A    between atoms: C_7  and  O_8
REMARK    5  A    between atoms: O_8  and  C_9
REMARK    6  A    between atoms: C_14  and  C_15
REMARK                            x       y       z     vdW  Elec       q    Type
REMARK                         _______ _______ _______ _____ _____    ______ ____
ROOT
ATOM      1  O   UNL     1      46.137   6.733  12.491  0.00  0.00    +0.000 OA
ENDROOT
BRANCH   1   2
ATOM      2  C   UNL     1      45.221   5.734  12.287  0.00  0.00    +0.000 A 
ATOM      3  C   UNL     1      44.184   5.393  13.156  0.00  0.00    +0.000 A 
ATOM      4  C   UNL     1      43.320   4.341  12.841  0.00  0.00    +0.000 A 
ATOM      5  C   UNL     1      43.491   3.631  11.657  0.00  0.00    +0.000 A 
ATOM      6  F   UNL     1      42.637   2.627  11.400  0.00  0.00    +0.000 F 
ATOM      7  C   UNL     1      44.521   3.951  10.772  0.00  0.00    +0.000 A 
ATOM      8  C   UNL     1      45.386   5.010  11.098  0.00  0.00    +0.000 A 
BRANCH   7   9
ATOM      9  C   UNL     1      44.735   3.219   9.497  0.00  0.00    +0.000 C 
ATOM     10  N   UNL     1      44.306   3.802   8.337  0.00  0.00    +0.000 N 
ATOM     11  O   UNL     1      45.279   2.121   9.472  0.00  0.00    +0.000 OA
ATOM     12  H   UNL     1      43.852   4.706   8.307  0.00  0.00    +0.000 HD
ATOM     13  H   UNL     1      44.453   3.306   7.470  0.00  0.00    +0.000 HD
ENDBRANCH   7   9
ENDBRANCH   1   2
BRANCH   1  14
ATOM     14  C   UNL     1      47.499   6.334  12.665  0.00  0.00    +0.000 C 
BRANCH  14  18
ATOM     15  C   UNL     1      47.840   4.215  16.292  0.00  0.00    +0.000 A 
ATOM     16  C   UNL     1      48.293   5.525  16.173  0.00  0.00    +0.000 A 
ATOM     17  N   UNL     1      48.215   6.233  15.019  0.00  0.00    +0.000 NA
ATOM     18  C   UNL     1      47.657   5.585  13.963  0.00  0.00    +0.000 A 
ATOM     19  C   UNL     1      47.211   4.272  14.081  0.00  0.00    +0.000 A 
ATOM     20  N   UNL     1      47.278   3.566  15.238  0.00  0.00    +0.000 NA
BRANCH  15  21
ATOM     21  C   UNL     1      47.897   3.501  17.619  0.00  0.00    +0.000 C 
BRANCH  21  22
ATOM     22  N   UNL     1      46.708   2.677  17.852  0.00  0.00    +0.000 NA
ATOM     23  H   UNL     1      46.593   2.035  17.070  0.00  0.00    +0.000 HD
ATOM     24  H   UNL     1      45.896   3.297  17.826  0.00  0.00    +0.000 HD
ENDBRANCH  21  22
ENDBRANCH  15  21
ENDBRANCH  14  18
ENDBRANCH   1  14
TORSDOF 6
ENDMDL
MODEL 9
REMARK VINA RESULT:    -6.092      3.072      7.789
REMARK INTER + INTRA:          -8.475
REMARK INTER:                  -8.042
REMARK INTRA:                  -0.433
REMARK UNBOUND:                -0.424
REMARK  Name = 
REMARK  6 active torsions:
REMARK  status: ('A' for Active; 'I' for Inactive)
REMARK    1  A    between atoms: N_1  and  C_2
REMARK    2  A    between atoms: C_2  and  C_3
REMARK    3  A    between atoms: C_6  and  C_7
REMARK    4  A    between atoms: C_7  and  O_8
REMARK    5  A    between atoms: O_8  and  C_9
REMARK    6  A    between atoms: C_14  and  C_15
REMARK                            x       y       z     vdW  Elec       q    Type
REMARK                         _______ _______ _______ _____ _____    ______ ____
ROOT
ATOM      1  O   UNL     1      47.475   4.449  13.950  0.00  0.00    +0.000 OA
ENDROOT
BRANCH   1   2
ATOM      2  C   UNL     1      46.395   4.807  13.187  0.00  0.00    +0.000 A 
ATOM      3  C   UNL     1      45.929   6.110  12.998  0.00  0.00    +0.000 A 
ATOM      4  C   UNL     1      44.804   6.344  12.204  0.00  0.00    +0.000 A 
ATOM      5  C   UNL     1      44.144   5.280  11.598  0.00  0.00    +0.000 A 
ATOM      6  F   UNL     1      43.066   5.557  10.847  0.00  0.00    +0.000 F 
ATOM      7  C   UNL     1      44.589   3.969  11.772  0.00  0.00    +0.000 A 
ATOM      8  C   UNL     1      45.721   3.742  12.574  0.00  0.00    +0.000 A 
BRANCH   7   9
ATOM      9  C   UNL     1      43.915   2.806  11.140  0.00  0.00    +0.000 C 
ATOM     10  N   UNL     1      44.433   2.314   9.974  0.00  0.00    +0.000 N 
ATOM     11  O   UNL     1      42.919   2.293  11.639  0.00  0.00    +0.000 OA
ATOM     12  H   UNL     1      45.251   2.704   9.524  0.00  0.00    +0.000 HD
ATOM     13  H   UNL     1      43.975   1.522   9.545  0.00  0.00    +0.000 HD
ENDBRANCH   7   9
ENDBRANCH   1   2
BRANCH   1  14
ATOM     14  C   UNL     1      47.288   3.369  14.868  0.00  0.00    +0.000 C 
BRANCH  14  18
ATOM     15  C   UNL     1      48.659   4.401  18.717  0.00  0.00    +0.000 A 
ATOM     16  C   UNL     1      48.678   5.318  17.672  0.00  0.00    +0.000 A 
ATOM     17  N   UNL     1      48.260   5.018  16.417  0.00  0.00    +0.000 NA
ATOM     18  C   UNL     1      47.810   3.750  16.230  0.00  0.00    +0.000 A 
ATOM     19  C   UNL     1      47.799   2.831  17.275  0.00  0.00    +0.000 A 
ATOM     20  N   UNL     1      48.206   3.132  18.533  0.00  0.00    +0.000 NA
BRANCH  15  21
ATOM     21  C   UNL     1      49.079   4.811  20.106  0.00  0.00    +0.000 C 
BRANCH  21  22
ATOM     22  N   UNL     1      48.228   4.212  21.137  0.00  0.00    +0.000 NA
ATOM     23  H   UNL     1      48.737   4.197  22.019  0.00  0.00    +0.000 HD
ATOM     24  H   UNL     1      48.081   3.234  20.883  0.00  0.00    +0.000 HD
ENDBRANCH  21  22
ENDBRANCH  15  21
ENDBRANCH  14  18
ENDBRANCH   1  14
TORSDOF 6
ENDMDL
