MODEL 1
REMARK VINA RESULT:    -8.728      0.000      0.000
REMARK INTER + INTRA:         -12.254
REMARK INTER:                 -11.279
REMARK INTRA:                  -0.976
REMARK UNBOUND:                -0.976
REMARK  Name = 
REMARK  5 active torsions:
REMARK  status: ('A' for Active; 'I' for Inactive)
REMARK    1  A    between atoms: C_2  and  C_4
REMARK    2  A    between atoms: C_7  and  N_8
REMARK    3  A    between atoms: N_8  and  C_9
REMARK    4  A    between atoms: C_9  and  C_10
REMARK    5  A    between atoms: C_14  and  N_15
REMARK                            x       y       z     vdW  Elec       q    Type
REMARK                         _______ _______ _______ _____ _____    ______ ____
ROOT
ATOM      1  N   UNL     1      43.805   4.951   9.859  0.00  0.00    +0.000 N 
ATOM      2  H   UNL     1      43.061   5.390   9.323  0.00  0.00    +0.000 HD
ENDROOT
BRANCH   1   6
ATOM      3  C   UNL     1      46.258   2.159   7.857  0.00  0.00    +0.000 A 
ATOM      4  C   UNL     1      45.254   1.700   8.708  0.00  0.00    +0.000 A 
ATOM      5  C   UNL     1      44.402   2.613   9.344  0.00  0.00    +0.000 A 
ATOM      6  C   UNL     1      44.519   3.994   9.138  0.00  0.00    +0.000 A 
ATOM      7  C   UNL     1      45.528   4.434   8.267  0.00  0.00    +0.000 A 
ATOM      8  C   UNL     1      46.393   3.531   7.637  0.00  0.00    +0.000 A 
BRANCH   3  10
ATOM      9  N   UNL     1      48.341   1.780   6.644  0.00  0.00    +0.000 N 
ATOM     10  C   UNL     1      47.238   1.233   7.231  0.00  0.00    +0.000 C 
ATOM     11  O   UNL     1      47.076   0.019   7.257  0.00  0.00    +0.000 OA
ATOM     12  H   UNL     1      49.037   1.127   6.306  0.00  0.00    +0.000 HD
ATOM     13  H   UNL     1      48.635   2.731   6.821  0.00  0.00    +0.000 HD
ENDBRANCH   3  10
ENDBRANCH   1   6
BRANCH   1  14
ATOM     14  C   UNL     1      43.492   4.769  11.270  0.00  0.00    +0.000 C 
BRANCH  14  15
ATOM     15  C   UNL     1      44.720   4.814  12.141  0.00  0.00    +0.000 A 
ATOM     16  C   UNL     1      45.137   3.651  12.781  0.00  0.00    +0.000 A 
ATOM     17  N   UNL     1      46.268   3.546  13.503  0.00  0.00    +0.000 NA
ATOM     18  C   UNL     1      47.037   4.661  13.576  0.00  0.00    +0.000 A 
ATOM     19  C   UNL     1      46.763   5.889  12.965  0.00  0.00    +0.000 A 
ATOM     20  C   UNL     1      45.566   5.929  12.235  0.00  0.00    +0.000 A 
BRANCH  19  21
ATOM     21  N   UNL     1      47.606   6.979  13.052  0.00  0.00    +0.000 N 
ATOM     22  C   UNL     1      47.110   8.321  13.368  0.00  0.00    +0.000 C 
ATOM     23  C   UNL     1      47.412   9.272  12.213  0.00  0.00    +0.000 C 
ATOM     24  C   UNL     1      48.893   9.236  11.842  0.00  0.00    +0.000 C 
ATOM     25  C   UNL     1      49.361   7.807  11.573  0.00  0.00    +0.000 C 
ATOM     26  C   UNL     1      49.031   6.873  12.740  0.00  0.00    +0.000 C 
ENDBRANCH  19  21
ENDBRANCH  14  15
ENDBRANCH   1  14
TORSDOF 5
ENDMDL
MODEL 2
REMARK VINA RESULT:    -7.750      1.712      2.856
REMARK INTER + INTRA:         -10.991
REMARK INTER:                 -10.353
REMARK INTRA:                  -0.638
REMARK UNBOUND:                -0.976
REMARK  Name = 
REMARK  5 active torsions:
REMARK  status: ('A' for Active; 'I' for Inactive)
REMARK    1  A    between atoms: C_2  and  C_4
REMARK    2  A    between atoms: C_7  and  N_8
REMARK    3  A    between atoms: N_8  and  C_9
REMARK    4  A    between atoms: C_9  and  C_10
REMARK    5  A    between atoms: C_14  and  N_15
REMARK                            x       y       z     vdW  Elec       q    Type
REMARK                         _______ _______ _______ _____ _____    ______ ____
ROOT
ATOM      1  N   UNL     1      43.952   3.337  10.605  0.00  0.00    +0.000 N 
ATOM      2  H   UNL     1      44.271   2.875  11.452  0.00  0.00    +0.000 HD
ENDROOT
BRANCH   1   6
ATOM      3  C   UNL     1      46.513   2.547   7.343  0.00  0.00    +0.000 A 
ATOM      4  C   UNL     1      46.085   1.491   8.147  0.00  0.00    +0.000 A 
ATOM      5  C   UNL     1      45.198   1.732   9.205  0.00  0.00    +0.000 A 
ATOM      6  C   UNL     1      44.709   3.015   9.478  0.00  0.00    +0.000 A 
ATOM      7  C   UNL     1      45.143   4.062   8.650  0.00  0.00    +0.000 A 
ATOM      8  C   UNL     1      46.040   3.834   7.597  0.00  0.00    +0.000 A 
BRANCH   3  10
ATOM      9  N   UNL     1      47.476   3.201   5.199  0.00  0.00    +0.000 N 
ATOM     10  C   UNL     1      47.519   2.351   6.266  0.00  0.00    +0.000 C 
ATOM     11  O   UNL     1      48.371   1.475   6.339  0.00  0.00    +0.000 OA
ATOM     12  H   UNL     1      48.226   3.107   4.524  0.00  0.00    +0.000 HD
ATOM     13  H   UNL     1      46.969   4.075   5.221  0.00  0.00    +0.000 HD
ENDBRANCH   3  10
ENDBRANCH   1   6
BRANCH   1  14
ATOM     14  C   UNL     1      43.438   4.683  10.820  0.00  0.00    +0.000 C 
BRANCH  14  15
ATOM     15  C   UNL     1      44.434   5.577  11.511  0.00  0.00    +0.000 A 
ATOM     16  C   UNL     1      44.265   6.955  11.445  0.00  0.00    +0.000 A 
ATOM     17  N   UNL     1      45.032   7.846  12.099  0.00  0.00    +0.000 NA
ATOM     18  C   UNL     1      46.014   7.331  12.880  0.00  0.00    +0.000 A 
ATOM     19  C   UNL     1      46.286   5.972  13.067  0.00  0.00    +0.000 A 
ATOM     20  C   UNL     1      45.453   5.101  12.350  0.00  0.00    +0.000 A 
BRANCH  19  21
ATOM     21  N   UNL     1      47.283   5.510  13.904  0.00  0.00    +0.000 N 
ATOM     22  C   UNL     1      47.204   4.202  14.559  0.00  0.00    +0.000 C 
ATOM     23  C   UNL     1      47.208   4.380  16.075  0.00  0.00    +0.000 C 
ATOM     24  C   UNL     1      48.399   5.224  16.529  0.00  0.00    +0.000 C 
ATOM     25  C   UNL     1      48.454   6.551  15.775  0.00  0.00    +0.000 C 
ATOM     26  C   UNL     1      48.432   6.343  14.258  0.00  0.00    +0.000 C 
ENDBRANCH  19  21
ENDBRANCH  14  15
ENDBRANCH   1  14
TORSDOF 5
ENDMDL
MODEL 3
REMARK VINA RESULT:    -7.088      2.877      6.755
REMARK INTER + INTRA:         -10.135
REMARK INTER:                  -9.350
REMARK INTRA:                  -0.784
REMARK UNBOUND:                -0.976
REMARK  Name = 
REMARK  5 active torsions:
REMARK  status: ('A' for Active; 'I' for Inactive)
REMARK    1  A    between atoms: C_2  and  C_4
REMARK    2  A    between atoms: C_7  and  N_8
REMARK    3  A    between atoms: N_8  and  C_9
REMARK    4  A    between atoms: C_9  and  C_10
REMARK    5  A    between atoms: C_14  and  N_15
REMARK                            x       y       z     vdW  Elec       q    Type
REMARK                         _______ _______ _______ _____ _____    ______ ____
ROOT
ATOM      1  N   UNL     1      46.376   6.157  13.626  0.00  0.00    +0.000 N 
ATOM      2  H   UNL     1      46.287   6.131  14.638  0.00  0.00    +0.000 HD
ENDROOT
BRANCH   1   6
ATOM      3  C   UNL     1      49.957   7.988  12.343  0.00  0.00    +0.000 A 
ATOM      4  C   UNL     1      48.917   7.807  11.431  0.00  0.00    +0.000 A 
ATOM      5  C   UNL     1      47.706   7.242  11.853  0.00  0.00    +0.000 A 
ATOM      6  C   UNL     1      47.496   6.861  13.184  0.00  0.00    +0.000 A 
ATOM      7  C   UNL     1      48.551   7.064  14.088  0.00  0.00    +0.000 A 
ATOM      8  C   UNL     1      49.770   7.615  13.674  0.00  0.00    +0.000 A 
BRANCH   3  10
ATOM      9  N   UNL     1      52.392   7.864  12.402  0.00  0.00    +0.000 N 
ATOM     10  C   UNL     1      51.286   8.502  11.921  0.00  0.00    +0.000 C 
ATOM     11  O   UNL     1      51.390   9.449  11.152  0.00  0.00    +0.000 OA
ATOM     12  H   UNL     1      53.282   8.173  12.030  0.00  0.00    +0.000 HD
ATOM     13  H   UNL     1      52.351   6.945  12.820  0.00  0.00    +0.000 HD
ENDBRANCH   3  10
ENDBRANCH   1   6
BRANCH   1  14
ATOM     14  C   UNL     1      45.104   6.226  12.919  0.00  0.00    +0.000 C 
BRANCH  14  15
ATOM     15  C   UNL     1      44.710   4.903  12.314  0.00  0.00    +0.000 A 
ATOM     16  C   UNL     1      43.889   4.047  13.040  0.00  0.00    +0.000 A 
ATOM     17  N   UNL     1      43.395   2.888  12.567  0.00  0.00    +0.000 NA
ATOM     18  C   UNL     1      43.724   2.575  11.289  0.00  0.00    +0.000 A 
ATOM     19  C   UNL     1      44.513   3.347  10.431  0.00  0.00    +0.000 A 
ATOM     20  C   UNL     1      45.000   4.537  10.991  0.00  0.00    +0.000 A 
BRANCH  19  21
ATOM     21  N   UNL     1      44.785   2.985   9.126  0.00  0.00    +0.000 N 
ATOM     22  C   UNL     1      44.956   1.586   8.727  0.00  0.00    +0.000 C 
ATOM     23  C   UNL     1      46.359   1.373   8.166  0.00  0.00    +0.000 C 
ATOM     24  C   UNL     1      46.665   2.372   7.051  0.00  0.00    +0.000 C 
ATOM     25  C   UNL     1      46.420   3.808   7.513  0.00  0.00    +0.000 C 
ATOM     26  C   UNL     1      45.012   3.987   8.085  0.00  0.00    +0.000 C 
ENDBRANCH  19  21
ENDBRANCH  14  15
ENDBRANCH   1  14
TORSDOF 5
ENDMDL
MODEL 4
REMARK VINA RESULT:    -6.893      1.483      1.843
REMARK INTER + INTRA:          -9.883
REMARK INTER:                  -9.185
REMARK INTRA:                  -0.699
REMARK UNBOUND:                -0.976
REMARK  Name = 
REMARK  5 active torsions:
REMARK  status: ('A' for Active; 'I' for Inactive)
REMARK    1  A    between atoms: C_2  and  C_4
REMARK    2  A    between atoms: C_7  and  N_8
REMARK    3  A    between atoms: N_8  and  C_9
REMARK    4  A    between atoms: C_9  and  C_10
REMARK    5  A    between atoms: C_14  and  N_15
REMARK                            x       y       z     vdW  Elec       q    Type
REMARK                         _______ _______ _______ _____ _____    ______ ____
ROOT
ATOM      1  N   UNL     1      44.114   3.463  10.753  0.00  0.00    +0.000 N 
ATOM      2  H   UNL     1      44.386   2.939  11.580  0.00  0.00    +0.000 HD
ENDROOT
BRANCH   1   6
ATOM      3  C   UNL     1      46.519   2.516   7.415  0.00  0.00    +0.000 A 
ATOM      4  C   UNL     1      46.073   1.491   8.248  0.00  0.00    +0.000 A 
ATOM      5  C   UNL     1      45.236   1.785   9.334  0.00  0.00    +0.000 A 
ATOM      6  C   UNL     1      44.815   3.093   9.605  0.00  0.00    +0.000 A 
ATOM      7  C   UNL     1      45.266   4.108   8.746  0.00  0.00    +0.000 A 
ATOM      8  C   UNL     1      46.113   3.827   7.667  0.00  0.00    +0.000 A 
BRANCH   3  10
ATOM      9  N   UNL     1      47.942   3.340   5.612  0.00  0.00    +0.000 N 
ATOM     10  C   UNL     1      47.476   2.261   6.306  0.00  0.00    +0.000 C 
ATOM     11  O   UNL     1      47.853   1.128   6.035  0.00  0.00    +0.000 OA
ATOM     12  H   UNL     1      48.660   3.151   4.924  0.00  0.00    +0.000 HD
ATOM     13  H   UNL     1      47.859   4.285   5.959  0.00  0.00    +0.000 HD
ENDBRANCH   3  10
ENDBRANCH   1   6
BRANCH   1  14
ATOM     14  C   UNL     1      43.763   4.852  11.018  0.00  0.00    +0.000 C 
BRANCH  14  15
ATOM     15  C   UNL     1      44.774   5.544  11.895  0.00  0.00    +0.000 A 
ATOM     16  C   UNL     1      45.683   4.774  12.612  0.00  0.00    +0.000 A 
ATOM     17  N   UNL     1      46.689   5.279  13.350  0.00  0.00    +0.000 NA
ATOM     18  C   UNL     1      46.806   6.631  13.356  0.00  0.00    +0.000 A 
ATOM     19  C   UNL     1      45.988   7.529  12.664  0.00  0.00    +0.000 A 
ATOM     20  C   UNL     1      44.956   6.934  11.923  0.00  0.00    +0.000 A 
BRANCH  19  21
ATOM     21  N   UNL     1      46.180   8.896  12.687  0.00  0.00    +0.000 N 
ATOM     22  C   UNL     1      45.083   9.839  12.454  0.00  0.00    +0.000 C 
ATOM     23  C   UNL     1      45.381  10.689  11.221  0.00  0.00    +0.000 C 
ATOM     24  C   UNL     1      46.752  11.355  11.328  0.00  0.00    +0.000 C 
ATOM     25  C   UNL     1      47.844  10.327  11.620  0.00  0.00    +0.000 C 
ATOM     26  C   UNL     1      47.511   9.480  12.851  0.00  0.00    +0.000 C 
ENDBRANCH  19  21
ENDBRANCH  14  15
ENDBRANCH   1  14
TORSDOF 5
ENDMDL
MODEL 5
REMARK VINA RESULT:    -6.822      4.148      8.037
REMARK INTER + INTRA:          -9.791
REMARK INTER:                  -9.230
REMARK INTRA:                  -0.561
REMARK UNBOUND:                -0.976
REMARK  Name = 
REMARK  5 active torsions:
REMARK  status: ('A' for Active; 'I' for Inactive)
REMARK    1  A    between atoms: C_2  and  C_4
REMARK    2  A    between atoms: C_7  and  N_8
REMARK    3  A    between atoms: N_8  and  C_9
REMARK    4  A    between atoms: C_9  and  C_10
REMARK    5  A    between atoms: C_14  and  N_15
REMARK                            x       y       z     vdW  Elec       q    Type
REMARK                         _______ _______ _______ _____ _____    ______ ____
ROOT
ATOM      1  N   UNL     1      46.398   4.104  14.885  0.00  0.00    +0.000 N 
ATOM      2  H   UNL     1      45.491   3.833  15.253  0.00  0.00    +0.000 HD
ENDROOT
BRANCH   1   6
ATOM      3  C   UNL     1      49.212   4.653  17.984  0.00  0.00    +0.000 A 
ATOM      4  C   UNL     1      48.479   3.468  17.928  0.00  0.00    +0.000 A 
ATOM      5  C   UNL     1      47.575   3.252  16.879  0.00  0.00    +0.000 A 
ATOM      6  C   UNL     1      47.390   4.196  15.861  0.00  0.00    +0.000 A 
ATOM      7  C   UNL     1      48.146   5.377  15.930  0.00  0.00    +0.000 A 
ATOM      8  C   UNL     1      49.043   5.608  16.981  0.00  0.00    +0.000 A 
BRANCH   3  10
ATOM      9  N   UNL     1      49.839   4.377  20.325  0.00  0.00    +0.000 N 
ATOM     10  C   UNL     1      50.116   4.960  19.123  0.00  0.00    +0.000 C 
ATOM     11  O   UNL     1      51.089   5.691  18.987  0.00  0.00    +0.000 OA
ATOM     12  H   UNL     1      50.519   4.528  21.061  0.00  0.00    +0.000 HD
ATOM     13  H   UNL     1      49.216   3.586  20.415  0.00  0.00    +0.000 HD
ENDBRANCH   3  10
ENDBRANCH   1   6
BRANCH   1  14
ATOM     14  C   UNL     1      46.332   5.045  13.773  0.00  0.00    +0.000 C 
BRANCH  14  15
ATOM     15  C   UNL     1      45.227   4.713  12.805  0.00  0.00    +0.000 A 
ATOM     16  C   UNL     1      43.926   5.102  13.106  0.00  0.00    +0.000 A 
ATOM     17  N   UNL     1      42.877   4.948  12.278  0.00  0.00    +0.000 NA
ATOM     18  C   UNL     1      43.145   4.390  11.071  0.00  0.00    +0.000 A 
ATOM     19  C   UNL     1      44.401   3.976  10.618  0.00  0.00    +0.000 A 
ATOM     20  C   UNL     1      45.447   4.160  11.534  0.00  0.00    +0.000 A 
BRANCH  19  21
ATOM     21  N   UNL     1      44.612   3.443   9.362  0.00  0.00    +0.000 N 
ATOM     22  C   UNL     1      44.573   2.000   9.113  0.00  0.00    +0.000 C 
ATOM     23  C   UNL     1      45.928   1.525   8.595  0.00  0.00    +0.000 C 
ATOM     24  C   UNL     1      46.374   2.345   7.385  0.00  0.00    +0.000 C 
ATOM     25  C   UNL     1      46.346   3.842   7.691  0.00  0.00    +0.000 C 
ATOM     26  C   UNL     1      44.981   4.286   8.224  0.00  0.00    +0.000 C 
ENDBRANCH  19  21
ENDBRANCH  14  15
ENDBRANCH   1  14
TORSDOF 5
ENDMDL
MODEL 6
REMARK VINA RESULT:    -6.276      3.578      5.832
REMARK INTER + INTRA:          -9.086
REMARK INTER:                  -8.247
REMARK INTRA:                  -0.839
REMARK UNBOUND:                -0.976
REMARK  Name = 
REMARK  5 active torsions:
REMARK  status: ('A' for Active; 'I' for Inactive)
REMARK    1  A    between atoms: C_2  and  C_4
REMARK    2  A    between atoms: C_7  and  N_8
REMARK    3  A    between atoms: N_8  and  C_9
REMARK    4  A    between atoms: C_9  and  C_10
REMARK    5  A    between atoms: C_14  and  N_15
REMARK                            x       y       z     vdW  Elec       q    Type
REMARK                         _______ _______ _______ _____ _____    ______ ____
ROOT
ATOM      1  N   UNL     1      46.588   7.450  13.311  0.00  0.00    +0.000 N 
ATOM      2  H   UNL     1      46.005   7.731  14.095  0.00  0.00    +0.000 HD
ENDROOT
BRANCH   1   6
ATOM      3  C   UNL     1      44.854   4.075  11.461  0.00  0.00    +0.000 A 
ATOM      4  C   UNL     1      45.260   5.152  10.675  0.00  0.00    +0.000 A 
ATOM      5  C   UNL     1      45.880   6.260  11.269  0.00  0.00    +0.000 A 
ATOM      6  C   UNL     1      46.120   6.316  12.648  0.00  0.00    +0.000 A 
ATOM      7  C   UNL     1      45.714   5.216  13.420  0.00  0.00    +0.000 A 
ATOM      8  C   UNL     1      45.083   4.110  12.837  0.00  0.00    +0.000 A 
BRANCH   3  10
ATOM      9  N   UNL     1      44.701   2.248   9.852  0.00  0.00    +0.000 N 
ATOM     10  C   UNL     1      44.116   2.920  10.885  0.00  0.00    +0.000 C 
ATOM     11  O   UNL     1      43.033   2.566  11.333  0.00  0.00    +0.000 OA
ATOM     12  H   UNL     1      44.225   1.412   9.537  0.00  0.00    +0.000 HD
ATOM     13  H   UNL     1      45.682   2.343   9.628  0.00  0.00    +0.000 HD
ENDBRANCH   3  10
ENDBRANCH   1   6
BRANCH   1  14
ATOM     14  C   UNL     1      48.012   7.680  13.518  0.00  0.00    +0.000 C 
BRANCH  14  15
ATOM     15  C   UNL     1      48.423   7.489  14.955  0.00  0.00    +0.000 A 
ATOM     16  C   UNL     1      48.457   8.593  15.799  0.00  0.00    +0.000 A 
ATOM     17  N   UNL     1      48.714   8.531  17.119  0.00  0.00    +0.000 NA
ATOM     18  C   UNL     1      48.930   7.293  17.629  0.00  0.00    +0.000 A 
ATOM     19  C   UNL     1      48.899   6.093  16.912  0.00  0.00    +0.000 A 
ATOM     20  C   UNL     1      48.634   6.232  15.542  0.00  0.00    +0.000 A 
BRANCH  19  21
ATOM     21  N   UNL     1      49.097   4.859  17.499  0.00  0.00    +0.000 N 
ATOM     22  C   UNL     1      50.339   4.521  18.199  0.00  0.00    +0.000 C 
ATOM     23  C   UNL     1      51.017   3.338  17.512  0.00  0.00    +0.000 C 
ATOM     24  C   UNL     1      50.055   2.160  17.364  0.00  0.00    +0.000 C 
ATOM     25  C   UNL     1      48.761   2.587  16.672  0.00  0.00    +0.000 C 
ATOM     26  C   UNL     1      48.112   3.784  17.372  0.00  0.00    +0.000 C 
ENDBRANCH  19  21
ENDBRANCH  14  15
ENDBRANCH   1  14
TORSDOF 5
ENDMDL
MODEL 7
REMARK VINA RESULT:    -6.233      5.128      6.902
REMARK INTER + INTRA:          -9.030
REMARK INTER:                  -8.385
REMARK INTRA:                  -0.645
REMARK UNBOUND:                -0.976
REMARK  Name = 
REMARK  5 active torsions:
REMARK  status: ('A' for Active; 'I' for Inactive)
REMARK    1  A    between atoms: C_2  and  C_4
REMARK    2  A    between atoms: C_7  and  N_8
REMARK    3  A    between atoms: N_8  and  C_9
REMARK    4  A    between atoms: C_9  and  C_10
REMARK    5  A    between atoms: C_14  and  N_15
REMARK                            x       y       z     vdW  Elec       q    Type
REMARK                         _______ _______ _______ _____ _____    ______ ____
ROOT
ATOM      1  N   UNL     1      47.337   5.200  15.115  0.00  0.00    +0.000 N 
ATOM      2  H   UNL     1      47.518   6.181  15.311  0.00  0.00    +0.000 HD
ENDROOT
BRANCH   1   6
ATOM      3  C   UNL     1      44.853   4.401  11.796  0.00  0.00    +0.000 A 
ATOM      4  C   UNL     1      45.046   5.721  12.204  0.00  0.00    +0.000 A 
ATOM      5  C   UNL     1      45.904   6.005  13.275  0.00  0.00    +0.000 A 
ATOM      6  C   UNL     1      46.596   4.993  13.951  0.00  0.00    +0.000 A 
ATOM      7  C   UNL     1      46.398   3.673  13.517  0.00  0.00    +0.000 A 
ATOM      8  C   UNL     1      45.532   3.377  12.456  0.00  0.00    +0.000 A 
BRANCH   3  10
ATOM      9  N   UNL     1      43.992   4.709   9.534  0.00  0.00    +0.000 N 
ATOM     10  C   UNL     1      43.887   4.047  10.723  0.00  0.00    +0.000 C 
ATOM     11  O   UNL     1      43.041   3.178  10.887  0.00  0.00    +0.000 OA
ATOM     12  H   UNL     1      43.385   4.388   8.790  0.00  0.00    +0.000 HD
ATOM     13  H   UNL     1      44.816   5.234   9.275  0.00  0.00    +0.000 HD
ENDBRANCH   3  10
ENDBRANCH   1   6
BRANCH   1  14
ATOM     14  C   UNL     1      47.133   4.384  16.305  0.00  0.00    +0.000 C 
BRANCH  14  15
ATOM     15  C   UNL     1      48.382   3.649  16.719  0.00  0.00    +0.000 A 
ATOM     16  C   UNL     1      48.601   2.365  16.233  0.00  0.00    +0.000 A 
ATOM     17  N   UNL     1      49.720   1.651  16.454  0.00  0.00    +0.000 NA
ATOM     18  C   UNL     1      50.684   2.262  17.188  0.00  0.00    +0.000 A 
ATOM     19  C   UNL     1      50.618   3.555  17.717  0.00  0.00    +0.000 A 
ATOM     20  C   UNL     1      49.421   4.238  17.454  0.00  0.00    +0.000 A 
BRANCH  19  21
ATOM     21  N   UNL     1      51.650   4.132  18.430  0.00  0.00    +0.000 N 
ATOM     22  C   UNL     1      53.034   3.663  18.311  0.00  0.00    +0.000 C 
ATOM     23  C   UNL     1      53.531   3.163  19.664  0.00  0.00    +0.000 C 
ATOM     24  C   UNL     1      53.331   4.220  20.750  0.00  0.00    +0.000 C 
ATOM     25  C   UNL     1      51.882   4.703  20.791  0.00  0.00    +0.000 C 
ATOM     26  C   UNL     1      51.406   5.182  19.417  0.00  0.00    +0.000 C 
ENDBRANCH  19  21
ENDBRANCH  14  15
ENDBRANCH   1  14
TORSDOF 5
ENDMDL
MODEL 8
REMARK VINA RESULT:    -5.957      4.364      7.768
REMARK INTER + INTRA:          -8.673
REMARK INTER:                  -7.951
REMARK INTRA:                  -0.722
REMARK UNBOUND:                -0.976
REMARK  Name = 
REMARK  5 active torsions:
REMARK  status: ('A' for Active; 'I' for Inactive)
REMARK    1  A    between atoms: C_2  and  C_4
REMARK    2  A    between atoms: C_7  and  N_8
REMARK    3  A    between atoms: N_8  and  C_9
REMARK    4  A    between atoms: C_9  and  C_10
REMARK    5  A    between atoms: C_14  and  N_15
REMARK                            x       y       z     vdW  Elec       q    Type
REMARK                         _______ _______ _______ _____ _____    ______ ____
ROOT
ATOM      1  N   UNL     1      47.787   5.132  15.995  0.00  0.00    +0.000 N 
ATOM      2  H   UNL     1      46.909   5.152  16.507  0.00  0.00    +0.000 HD
ENDROOT
BRANCH   1   6
ATOM      3  C   UNL     1      50.766   2.497  17.412  0.00  0.00    +0.000 A 
ATOM      4  C   UNL     1      50.957   3.872  17.532  0.00  0.00    +0.000 A 
ATOM      5  C   UNL     1      49.958   4.759  17.109  0.00  0.00    +0.000 A 
ATOM      6  C   UNL     1      48.748   4.301  16.573  0.00  0.00    +0.000 A 
ATOM      7  C   UNL     1      48.570   2.912  16.472  0.00  0.00    +0.000 A 
ATOM      8  C   UNL     1      49.568   2.018  16.880  0.00  0.00    +0.000 A 
BRANCH   3  10
ATOM      9  N   UNL     1      51.450   0.252  18.078  0.00  0.00    +0.000 N 
ATOM     10  C   UNL     1      51.833   1.524  17.767  0.00  0.00    +0.000 C 
ATOM     11  O   UNL     1      53.015   1.843  17.761  0.00  0.00    +0.000 OA
ATOM     12  H   UNL     1      52.198  -0.415  18.227  0.00  0.00    +0.000 HD
ATOM     13  H   UNL     1      50.535  -0.112  17.850  0.00  0.00    +0.000 HD
ENDBRANCH   3  10
ENDBRANCH   1   6
BRANCH   1  14
ATOM     14  C   UNL     1      48.148   6.404  15.382  0.00  0.00    +0.000 C 
BRANCH  14  15
ATOM     15  C   UNL     1      47.607   6.541  13.983  0.00  0.00    +0.000 A 
ATOM     16  C   UNL     1      48.336   7.266  13.046  0.00  0.00    +0.000 A 
ATOM     17  N   UNL     1      48.004   7.376  11.747  0.00  0.00    +0.000 NA
ATOM     18  C   UNL     1      46.890   6.707  11.355  0.00  0.00    +0.000 A 
ATOM     19  C   UNL     1      46.076   5.918  12.173  0.00  0.00    +0.000 A 
ATOM     20  C   UNL     1      46.476   5.854  13.516  0.00  0.00    +0.000 A 
BRANCH  19  21
ATOM     21  N   UNL     1      44.971   5.236  11.704  0.00  0.00    +0.000 N 
ATOM     22  C   UNL     1      43.757   5.076  12.509  0.00  0.00    +0.000 C 
ATOM     23  C   UNL     1      43.489   3.594  12.758  0.00  0.00    +0.000 C 
ATOM     24  C   UNL     1      43.465   2.810  11.447  0.00  0.00    +0.000 C 
ATOM     25  C   UNL     1      44.733   3.057  10.632  0.00  0.00    +0.000 C 
ATOM     26  C   UNL     1      44.985   4.551  10.412  0.00  0.00    +0.000 C 
ENDBRANCH  19  21
ENDBRANCH  14  15
ENDBRANCH   1  14
TORSDOF 5
ENDMDL
