MODEL 1
REMARK VINA RESULT:    -9.425      0.000      0.000
REMARK INTER + INTRA:         -12.995
REMARK INTER:                 -12.179
REMARK INTRA:                  -0.816
REMARK UNBOUND:                -0.816
REMARK  Name = 
REMARK  5 active torsions:
REMARK  status: ('A' for Active; 'I' for Inactive)
REMARK    1  A    between atoms: C_2  and  C_4
REMARK    2  A    between atoms: N_8  and  C_9
REMARK    3  A    between atoms: C_9  and  C_10
REMARK    4  A    between atoms: C_10  and  C_13
REMARK    5  A    between atoms: C_17  and  N_18
REMARK                            x       y       z     vdW  Elec       q    Type
REMARK                         _______ _______ _______ _____ _____    ______ ____
ROOT
ATOM      1  C   UNL     1      43.137   5.588  12.105  0.00  0.00    +0.000 C 
ATOM      2  F   UNL     1      42.253   6.482  11.565  0.00  0.00    +0.000 F 
ATOM      3  F   UNL     1      42.565   5.178  13.277  0.00  0.00    +0.000 F 
ENDROOT
BRANCH   1   4
ATOM      4  C   UNL     1      44.510   6.195  12.327  0.00  0.00    +0.000 A 
ATOM      5  C   UNL     1      44.844   7.431  11.769  0.00  0.00    +0.000 A 
ATOM      6  C   UNL     1      46.077   8.011  12.055  0.00  0.00    +0.000 A 
ATOM      7  C   UNL     1      46.963   7.371  12.926  0.00  0.00    +0.000 A 
ATOM      8  C   UNL     1      46.658   6.139  13.520  0.00  0.00    +0.000 A 
ATOM      9  C   UNL     1      45.434   5.552  13.170  0.00  0.00    +0.000 A 
BRANCH   8  10
ATOM     10  N   UNL     1      47.516   5.551  14.424  0.00  0.00    +0.000 N 
ATOM     11  C   UNL     1      47.315   4.205  14.975  0.00  0.00    +0.000 C 
ATOM     12  C   UNL     1      47.261   4.273  16.508  0.00  0.00    +0.000 C 
ATOM     13  O   UNL     1      48.433   4.908  17.048  0.00  0.00    +0.000 OA
ATOM     14  C   UNL     1      48.556   6.247  16.543  0.00  0.00    +0.000 C 
ATOM     15  C   UNL     1      48.656   6.277  15.007  0.00  0.00    +0.000 C 
ENDBRANCH   8  10
ENDBRANCH   1   4
BRANCH   1  16
ATOM     16  C   UNL     1      43.249   4.373  11.142  0.00  0.00    +0.000 C 
BRANCH  16  21
ATOM     17  C   UNL     1      46.518   2.508   7.686  0.00  0.00    +0.000 A 
ATOM     18  C   UNL     1      45.662   1.838   8.555  0.00  0.00    +0.000 A 
ATOM     19  C   UNL     1      44.749   2.578   9.307  0.00  0.00    +0.000 A 
ATOM     20  C   UNL     1      44.699   3.963   9.179  0.00  0.00    +0.000 A 
ATOM     21  N   UNL     1      43.742   4.735   9.807  0.00  0.00    +0.000 N 
ATOM     22  N   UNL     1      45.545   4.621   8.365  0.00  0.00    +0.000 NA
ATOM     23  C   UNL     1      46.441   3.890   7.643  0.00  0.00    +0.000 A 
ATOM     24  H   UNL     1      43.945   5.724   9.659  0.00  0.00    +0.000 HD
BRANCH  17  26
ATOM     25  N   UNL     1      48.559   2.521   6.373  0.00  0.00    +0.000 N 
ATOM     26  C   UNL     1      47.489   1.796   6.826  0.00  0.00    +0.000 C 
ATOM     27  O   UNL     1      47.361   0.612   6.562  0.00  0.00    +0.000 OA
ATOM     28  H   UNL     1      49.269   2.006   5.865  0.00  0.00    +0.000 HD
ATOM     29  H   UNL     1      48.824   3.411   6.767  0.00  0.00    +0.000 HD
ENDBRANCH  17  26
ENDBRANCH  16  21
ENDBRANCH   1  16
TORSDOF 5
ENDMDL
MODEL 2
REMARK VINA RESULT:    -9.268      1.891      2.864
REMARK INTER + INTRA:         -12.793
REMARK INTER:                 -11.789
REMARK INTRA:                  -1.004
REMARK UNBOUND:                -0.816
REMARK  Name = 
REMARK  5 active torsions:
REMARK  status: ('A' for Active; 'I' for Inactive)
REMARK    1  A    between atoms: C_2  and  C_4
REMARK    2  A    between atoms: N_8  and  C_9
REMARK    3  A    between atoms: C_9  and  C_10
REMARK    4  A    between atoms: C_10  and  C_13
REMARK    5  A    between atoms: C_17  and  N_18
REMARK                            x       y       z     vdW  Elec       q    Type
REMARK                         _______ _______ _______ _____ _____    ______ ____
ROOT
ATOM      1  C   UNL     1      43.500   5.562  12.181  0.00  0.00    +0.000 C 
ATOM      2  F   UNL     1      43.301   6.757  11.546  0.00  0.00    +0.000 F 
ATOM      3  F   UNL     1      42.539   5.504  13.152  0.00  0.00    +0.000 F 
ENDROOT
BRANCH   1   4
ATOM      4  C   UNL     1      44.897   5.440  12.760  0.00  0.00    +0.000 A 
ATOM      5  C   UNL     1      45.377   4.211  13.216  0.00  0.00    +0.000 A 
ATOM      6  C   UNL     1      46.692   4.102  13.663  0.00  0.00    +0.000 A 
ATOM      7  C   UNL     1      47.536   5.215  13.624  0.00  0.00    +0.000 A 
ATOM      8  C   UNL     1      47.098   6.461  13.159  0.00  0.00    +0.000 A 
ATOM      9  C   UNL     1      45.755   6.555  12.767  0.00  0.00    +0.000 A 
BRANCH   8  10
ATOM     10  N   UNL     1      47.959   7.533  13.068  0.00  0.00    +0.000 N 
ATOM     11  C   UNL     1      47.555   8.922  13.321  0.00  0.00    +0.000 C 
ATOM     12  C   UNL     1      47.861   9.785  12.089  0.00  0.00    +0.000 C 
ATOM     13  O   UNL     1      49.244   9.687  11.708  0.00  0.00    +0.000 OA
ATOM     14  C   UNL     1      49.583   8.326  11.398  0.00  0.00    +0.000 C 
ATOM     15  C   UNL     1      49.344   7.385  12.593  0.00  0.00    +0.000 C 
ENDBRANCH   8  10
ENDBRANCH   1   4
BRANCH   1  16
ATOM     16  C   UNL     1      43.254   4.419  11.156  0.00  0.00    +0.000 C 
BRANCH  16  21
ATOM     17  C   UNL     1      46.470   2.492   7.684  0.00  0.00    +0.000 A 
ATOM     18  C   UNL     1      45.641   1.839   8.590  0.00  0.00    +0.000 A 
ATOM     19  C   UNL     1      44.735   2.590   9.340  0.00  0.00    +0.000 A 
ATOM     20  C   UNL     1      44.667   3.970   9.174  0.00  0.00    +0.000 A 
ATOM     21  N   UNL     1      43.714   4.749   9.801  0.00  0.00    +0.000 N 
ATOM     22  N   UNL     1      45.488   4.614   8.323  0.00  0.00    +0.000 NA
ATOM     23  C   UNL     1      46.377   3.872   7.604  0.00  0.00    +0.000 A 
ATOM     24  H   UNL     1      43.903   5.735   9.620  0.00  0.00    +0.000 HD
BRANCH  17  26
ATOM     25  N   UNL     1      48.545   2.456   6.425  0.00  0.00    +0.000 N 
ATOM     26  C   UNL     1      47.431   1.767   6.824  0.00  0.00    +0.000 C 
ATOM     27  O   UNL     1      47.256   0.601   6.512  0.00  0.00    +0.000 OA
ATOM     28  H   UNL     1      49.245   1.927   5.917  0.00  0.00    +0.000 HD
ATOM     29  H   UNL     1      48.840   3.318   6.859  0.00  0.00    +0.000 HD
ENDBRANCH  17  26
ENDBRANCH  16  21
ENDBRANCH   1  16
TORSDOF 5
ENDMDL
MODEL 3
REMARK VINA RESULT:    -8.575      1.786      2.277
REMARK INTER + INTRA:         -11.898
REMARK INTER:                 -11.423
REMARK INTRA:                  -0.474
REMARK UNBOUND:                -0.816
REMARK  Name = 
REMARK  5 active torsions:
REMARK  status: ('A' for Active; 'I' for Inactive)
REMARK    1  A    between atoms: C_2  and  C_4
REMARK    2  A    between atoms: N_8  and  C_9
REMARK    3  A    between atoms: C_9  and  C_10
REMARK    4  A    between atoms: C_10  and  C_13
REMARK    5  A    between atoms: C_17  and  N_18
REMARK                            x       y       z     vdW  Elec       q    Type
REMARK                         _______ _______ _______ _____ _____    ______ ____
ROOT
ATOM      1  C   UNL     1      44.304   4.482  12.302  0.00  0.00    +0.000 C 
ATOM      2  F   UNL     1      43.646   4.379  13.497  0.00  0.00    +0.000 F 
ATOM      3  F   UNL     1      45.128   3.394  12.246  0.00  0.00    +0.000 F 
ENDROOT
BRANCH   1   4
ATOM      4  C   UNL     1      45.075   5.783  12.178  0.00  0.00    +0.000 A 
ATOM      5  C   UNL     1      44.419   6.976  11.867  0.00  0.00    +0.000 A 
ATOM      6  C   UNL     1      45.131   8.173  11.843  0.00  0.00    +0.000 A 
ATOM      7  C   UNL     1      46.491   8.182  12.161  0.00  0.00    +0.000 A 
ATOM      8  C   UNL     1      47.182   7.009  12.494  0.00  0.00    +0.000 A 
ATOM      9  C   UNL     1      46.454   5.812  12.456  0.00  0.00    +0.000 A 
BRANCH   8  10
ATOM     10  N   UNL     1      48.509   7.043  12.865  0.00  0.00    +0.000 N 
ATOM     11  C   UNL     1      48.972   6.818  14.240  0.00  0.00    +0.000 C 
ATOM     12  C   UNL     1      49.787   8.027  14.719  0.00  0.00    +0.000 C 
ATOM     13  O   UNL     1      50.875   8.317  13.824  0.00  0.00    +0.000 OA
ATOM     14  C   UNL     1      50.378   8.604  12.507  0.00  0.00    +0.000 C 
ATOM     15  C   UNL     1      49.574   7.426  11.925  0.00  0.00    +0.000 C 
ENDBRANCH   8  10
ENDBRANCH   1   4
BRANCH   1  16
ATOM     16  C   UNL     1      43.254   4.382  11.159  0.00  0.00    +0.000 C 
BRANCH  16  21
ATOM     17  C   UNL     1      46.509   2.506   7.696  0.00  0.00    +0.000 A 
ATOM     18  C   UNL     1      45.609   1.842   8.525  0.00  0.00    +0.000 A 
ATOM     19  C   UNL     1      44.713   2.593   9.286  0.00  0.00    +0.000 A 
ATOM     20  C   UNL     1      44.724   3.982   9.209  0.00  0.00    +0.000 A 
ATOM     21  N   UNL     1      43.788   4.772   9.848  0.00  0.00    +0.000 N 
ATOM     22  N   UNL     1      45.613   4.633   8.435  0.00  0.00    +0.000 NA
ATOM     23  C   UNL     1      46.491   3.890   7.703  0.00  0.00    +0.000 A 
ATOM     24  H   UNL     1      44.035   5.755   9.739  0.00  0.00    +0.000 HD
BRANCH  17  26
ATOM     25  N   UNL     1      48.554   2.491   6.388  0.00  0.00    +0.000 N 
ATOM     26  C   UNL     1      47.466   1.785   6.828  0.00  0.00    +0.000 C 
ATOM     27  O   UNL     1      47.312   0.608   6.547  0.00  0.00    +0.000 OA
ATOM     28  H   UNL     1      49.253   1.968   5.874  0.00  0.00    +0.000 HD
ATOM     29  H   UNL     1      48.837   3.369   6.795  0.00  0.00    +0.000 HD
ENDBRANCH  17  26
ENDBRANCH  16  21
ENDBRANCH   1  16
TORSDOF 5
ENDMDL
MODEL 4
REMARK VINA RESULT:    -7.995      3.255      4.838
REMARK INTER + INTRA:         -11.148
REMARK INTER:                 -10.487
REMARK INTRA:                  -0.661
REMARK UNBOUND:                -0.816
REMARK  Name = 
REMARK  5 active torsions:
REMARK  status: ('A' for Active; 'I' for Inactive)
REMARK    1  A    between atoms: C_2  and  C_4
REMARK    2  A    between atoms: N_8  and  C_9
REMARK    3  A    between atoms: C_9  and  C_10
REMARK    4  A    between atoms: C_10  and  C_13
REMARK    5  A    between atoms: C_17  and  N_18
REMARK                            x       y       z     vdW  Elec       q    Type
REMARK                         _______ _______ _______ _____ _____    ______ ____
ROOT
ATOM      1  C   UNL     1      44.945   5.461  12.191  0.00  0.00    +0.000 C 
ATOM      2  F   UNL     1      44.410   5.137  13.407  0.00  0.00    +0.000 F 
ATOM      3  F   UNL     1      45.990   4.598  12.014  0.00  0.00    +0.000 F 
ENDROOT
BRANCH   1   4
ATOM      4  C   UNL     1      45.391   6.910  12.124  0.00  0.00    +0.000 A 
ATOM      5  C   UNL     1      46.719   7.262  12.378  0.00  0.00    +0.000 A 
ATOM      6  C   UNL     1      47.127   8.585  12.226  0.00  0.00    +0.000 A 
ATOM      7  C   UNL     1      46.216   9.550  11.790  0.00  0.00    +0.000 A 
ATOM      8  C   UNL     1      44.880   9.235  11.509  0.00  0.00    +0.000 A 
ATOM      9  C   UNL     1      44.483   7.907  11.723  0.00  0.00    +0.000 A 
BRANCH   8  10
ATOM     10  N   UNL     1      44.010  10.185  11.020  0.00  0.00    +0.000 N 
ATOM     11  C   UNL     1      42.670  10.419  11.574  0.00  0.00    +0.000 C 
ATOM     12  C   UNL     1      41.615  10.253  10.471  0.00  0.00    +0.000 C 
ATOM     13  O   UNL     1      41.890  11.107   9.347  0.00  0.00    +0.000 OA
ATOM     14  C   UNL     1      43.177  10.799   8.787  0.00  0.00    +0.000 C 
ATOM     15  C   UNL     1      44.310  10.975   9.815  0.00  0.00    +0.000 C 
ENDBRANCH   8  10
ENDBRANCH   1   4
BRANCH   1  16
ATOM     16  C   UNL     1      43.872   5.190  11.099  0.00  0.00    +0.000 C 
BRANCH  16  21
ATOM     17  C   UNL     1      46.497   2.450   7.677  0.00  0.00    +0.000 A 
ATOM     18  C   UNL     1      45.547   2.040   8.607  0.00  0.00    +0.000 A 
ATOM     19  C   UNL     1      44.855   3.007   9.336  0.00  0.00    +0.000 A 
ATOM     20  C   UNL     1      45.115   4.358   9.127  0.00  0.00    +0.000 A 
ATOM     21  N   UNL     1      44.382   5.360   9.733  0.00  0.00    +0.000 N 
ATOM     22  N   UNL     1      46.055   4.763   8.253  0.00  0.00    +0.000 NA
ATOM     23  C   UNL     1      46.734   3.809   7.553  0.00  0.00    +0.000 A 
ATOM     24  H   UNL     1      44.798   6.267   9.520  0.00  0.00    +0.000 HD
BRANCH  17  26
ATOM     25  N   UNL     1      48.240   2.009   6.046  0.00  0.00    +0.000 N 
ATOM     26  C   UNL     1      47.248   1.492   6.836  0.00  0.00    +0.000 C 
ATOM     27  O   UNL     1      47.018   0.295   6.871  0.00  0.00    +0.000 OA
ATOM     28  H   UNL     1      48.812   1.339   5.545  0.00  0.00    +0.000 HD
ATOM     29  H   UNL     1      48.616   2.935   6.176  0.00  0.00    +0.000 HD
ENDBRANCH  17  26
ENDBRANCH  16  21
ENDBRANCH   1  16
TORSDOF 5
ENDMDL
MODEL 5
REMARK VINA RESULT:    -7.563      1.443      1.994
REMARK INTER + INTRA:         -10.589
REMARK INTER:                  -9.828
REMARK INTRA:                  -0.761
REMARK UNBOUND:                -0.816
REMARK  Name = 
REMARK  5 active torsions:
REMARK  status: ('A' for Active; 'I' for Inactive)
REMARK    1  A    between atoms: C_2  and  C_4
REMARK    2  A    between atoms: N_8  and  C_9
REMARK    3  A    between atoms: C_9  and  C_10
REMARK    4  A    between atoms: C_10  and  C_13
REMARK    5  A    between atoms: C_17  and  N_18
REMARK                            x       y       z     vdW  Elec       q    Type
REMARK                         _______ _______ _______ _____ _____    ______ ____
ROOT
ATOM      1  C   UNL     1      44.963   6.870  11.724  0.00  0.00    +0.000 C 
ATOM      2  F   UNL     1      44.979   7.816  10.736  0.00  0.00    +0.000 F 
ATOM      3  F   UNL     1      44.043   7.311  12.633  0.00  0.00    +0.000 F 
ENDROOT
BRANCH   1   4
ATOM      4  C   UNL     1      46.329   6.668  12.353  0.00  0.00    +0.000 A 
ATOM      5  C   UNL     1      47.475   7.201  11.760  0.00  0.00    +0.000 A 
ATOM      6  C   UNL     1      48.707   7.080  12.397  0.00  0.00    +0.000 A 
ATOM      7  C   UNL     1      48.788   6.453  13.644  0.00  0.00    +0.000 A 
ATOM      8  C   UNL     1      47.660   5.920  14.280  0.00  0.00    +0.000 A 
ATOM      9  C   UNL     1      46.442   6.008  13.590  0.00  0.00    +0.000 A 
BRANCH   8  10
ATOM     10  N   UNL     1      47.746   5.361  15.536  0.00  0.00    +0.000 N 
ATOM     11  C   UNL     1      48.571   5.917  16.617  0.00  0.00    +0.000 C 
ATOM     12  C   UNL     1      49.564   4.856  17.111  0.00  0.00    +0.000 C 
ATOM     13  O   UNL     1      48.891   3.651  17.512  0.00  0.00    +0.000 OA
ATOM     14  C   UNL     1      48.155   3.097  16.410  0.00  0.00    +0.000 C 
ATOM     15  C   UNL     1      47.101   4.080  15.869  0.00  0.00    +0.000 C 
ENDBRANCH   8  10
ENDBRANCH   1   4
BRANCH   1  16
ATOM     16  C   UNL     1      44.465   5.532  11.108  0.00  0.00    +0.000 C 
BRANCH  16  21
ATOM     17  C   UNL     1      46.474   2.123   7.874  0.00  0.00    +0.000 A 
ATOM     18  C   UNL     1      45.704   1.922   9.015  0.00  0.00    +0.000 A 
ATOM     19  C   UNL     1      45.142   3.028   9.654  0.00  0.00    +0.000 A 
ATOM     20  C   UNL     1      45.351   4.308   9.148  0.00  0.00    +0.000 A 
ATOM     21  N   UNL     1      44.727   5.425   9.667  0.00  0.00    +0.000 N 
ATOM     22  N   UNL     1      46.122   4.514   8.063  0.00  0.00    +0.000 NA
ATOM     23  C   UNL     1      46.675   3.427   7.453  0.00  0.00    +0.000 A 
ATOM     24  H   UNL     1      45.093   6.264   9.216  0.00  0.00    +0.000 HD
BRANCH  17  26
ATOM     25  N   UNL     1      46.699  -0.261   7.482  0.00  0.00    +0.000 N 
ATOM     26  C   UNL     1      47.075   1.003   7.116  0.00  0.00    +0.000 C 
ATOM     27  O   UNL     1      47.842   1.199   6.188  0.00  0.00    +0.000 OA
ATOM     28  H   UNL     1      47.039  -1.018   6.900  0.00  0.00    +0.000 HD
ATOM     29  H   UNL     1      45.896  -0.447   8.063  0.00  0.00    +0.000 HD
ENDBRANCH  17  26
ENDBRANCH  16  21
ENDBRANCH   1  16
TORSDOF 5
ENDMDL
MODEL 6
REMARK VINA RESULT:    -7.506      2.043      7.574
REMARK INTER + INTRA:         -10.516
REMARK INTER:                  -9.593
REMARK INTRA:                  -0.923
REMARK UNBOUND:                -0.816
REMARK  Name = 
REMARK  5 active torsions:
REMARK  status: ('A' for Active; 'I' for Inactive)
REMARK    1  A    between atoms: C_2  and  C_4
REMARK    2  A    between atoms: N_8  and  C_9
REMARK    3  A    between atoms: C_9  and  C_10
REMARK    4  A    between atoms: C_10  and  C_13
REMARK    5  A    between atoms: C_17  and  N_18
REMARK                            x       y       z     vdW  Elec       q    Type
REMARK                         _______ _______ _______ _____ _____    ______ ____
ROOT
ATOM      1  C   UNL     1      45.839   6.591  11.656  0.00  0.00    +0.000 C 
ATOM      2  F   UNL     1      45.076   7.610  11.154  0.00  0.00    +0.000 F 
ATOM      3  F   UNL     1      47.070   6.744  11.083  0.00  0.00    +0.000 F 
ENDROOT
BRANCH   1   4
ATOM      4  C   UNL     1      45.244   5.226  11.365  0.00  0.00    +0.000 A 
ATOM      5  C   UNL     1      44.294   4.663  12.221  0.00  0.00    +0.000 A 
ATOM      6  C   UNL     1      43.697   3.450  11.891  0.00  0.00    +0.000 A 
ATOM      7  C   UNL     1      44.025   2.814  10.690  0.00  0.00    +0.000 A 
ATOM      8  C   UNL     1      44.960   3.354   9.797  0.00  0.00    +0.000 A 
ATOM      9  C   UNL     1      45.586   4.548  10.181  0.00  0.00    +0.000 A 
BRANCH   8  10
ATOM     10  N   UNL     1      45.226   2.747   8.589  0.00  0.00    +0.000 N 
ATOM     11  C   UNL     1      45.455   1.305   8.439  0.00  0.00    +0.000 C 
ATOM     12  C   UNL     1      46.824   1.060   7.788  0.00  0.00    +0.000 C 
ATOM     13  O   UNL     1      46.944   1.758   6.537  0.00  0.00    +0.000 OA
ATOM     14  C   UNL     1      46.788   3.172   6.735  0.00  0.00    +0.000 C 
ATOM     15  C   UNL     1      45.420   3.520   7.352  0.00  0.00    +0.000 C 
ENDBRANCH   8  10
ENDBRANCH   1   4
BRANCH   1  16
ATOM     16  C   UNL     1      45.967   6.792  13.193  0.00  0.00    +0.000 C 
BRANCH  16  21
ATOM     17  C   UNL     1      48.437   4.032  16.713  0.00  0.00    +0.000 A 
ATOM     18  C   UNL     1      47.360   3.685  15.903  0.00  0.00    +0.000 A 
ATOM     19  C   UNL     1      46.954   4.570  14.904  0.00  0.00    +0.000 A 
ATOM     20  C   UNL     1      47.623   5.777  14.726  0.00  0.00    +0.000 A 
ATOM     21  N   UNL     1      47.343   6.638  13.683  0.00  0.00    +0.000 N 
ATOM     22  N   UNL     1      48.645   6.135  15.526  0.00  0.00    +0.000 NA
ATOM     23  C   UNL     1      49.027   5.268  16.507  0.00  0.00    +0.000 A 
ATOM     24  H   UNL     1      47.877   7.500  13.795  0.00  0.00    +0.000 HD
BRANCH  17  26
ATOM     25  N   UNL     1      48.296   3.152  18.971  0.00  0.00    +0.000 N 
ATOM     26  C   UNL     1      48.954   3.136  17.770  0.00  0.00    +0.000 C 
ATOM     27  O   UNL     1      49.901   2.393  17.570  0.00  0.00    +0.000 OA
ATOM     28  H   UNL     1      48.595   2.469  19.658  0.00  0.00    +0.000 HD
ATOM     29  H   UNL     1      47.380   3.557  19.087  0.00  0.00    +0.000 HD
ENDBRANCH  17  26
ENDBRANCH  16  21
ENDBRANCH   1  16
TORSDOF 5
ENDMDL
MODEL 7
REMARK VINA RESULT:    -6.974      3.241      7.425
REMARK INTER + INTRA:          -9.828
REMARK INTER:                  -8.812
REMARK INTRA:                  -1.016
REMARK UNBOUND:                -0.816
REMARK  Name = 
REMARK  5 active torsions:
REMARK  status: ('A' for Active; 'I' for Inactive)
REMARK    1  A    between atoms: C_2  and  C_4
REMARK    2  A    between atoms: N_8  and  C_9
REMARK    3  A    between atoms: C_9  and  C_10
REMARK    4  A    between atoms: C_10  and  C_13
REMARK    5  A    between atoms: C_17  and  N_18
REMARK                            x       y       z     vdW  Elec       q    Type
REMARK                         _______ _______ _______ _____ _____    ______ ____
ROOT
ATOM      1  C   UNL     1      48.702   7.739  12.350  0.00  0.00    +0.000 C 
ATOM      2  F   UNL     1      49.423   8.545  11.512  0.00  0.00    +0.000 F 
ATOM      3  F   UNL     1      49.174   6.476  12.132  0.00  0.00    +0.000 F 
ENDROOT
BRANCH   1   4
ATOM      4  C   UNL     1      47.208   7.836  12.102  0.00  0.00    +0.000 A 
ATOM      5  C   UNL     1      46.545   9.061  12.203  0.00  0.00    +0.000 A 
ATOM      6  C   UNL     1      45.192   9.145  11.887  0.00  0.00    +0.000 A 
ATOM      7  C   UNL     1      44.509   8.012  11.439  0.00  0.00    +0.000 A 
ATOM      8  C   UNL     1      45.141   6.768  11.308  0.00  0.00    +0.000 A 
ATOM      9  C   UNL     1      46.490   6.701  11.686  0.00  0.00    +0.000 A 
BRANCH   8  10
ATOM     10  N   UNL     1      44.470   5.675  10.806  0.00  0.00    +0.000 N 
ATOM     11  C   UNL     1      43.117   5.290  11.227  0.00  0.00    +0.000 C 
ATOM     12  C   UNL     1      43.127   3.851  11.760  0.00  0.00    +0.000 C 
ATOM     13  O   UNL     1      43.672   2.935  10.795  0.00  0.00    +0.000 OA
ATOM     14  C   UNL     1      45.021   3.301  10.463  0.00  0.00    +0.000 C 
ATOM     15  C   UNL     1      45.106   4.723   9.881  0.00  0.00    +0.000 C 
ENDBRANCH   8  10
ENDBRANCH   1   4
BRANCH   1  16
ATOM     16  C   UNL     1      49.020   8.154  13.814  0.00  0.00    +0.000 C 
BRANCH  16  21
ATOM     17  C   UNL     1      48.127   4.273  17.017  0.00  0.00    +0.000 A 
ATOM     18  C   UNL     1      47.382   4.721  15.930  0.00  0.00    +0.000 A 
ATOM     19  C   UNL     1      47.915   5.717  15.111  0.00  0.00    +0.000 A 
ATOM     20  C   UNL     1      49.173   6.246  15.383  0.00  0.00    +0.000 A 
ATOM     21  N   UNL     1      49.800   7.147  14.545  0.00  0.00    +0.000 N 
ATOM     22  N   UNL     1      49.886   5.842  16.451  0.00  0.00    +0.000 NA
ATOM     23  C   UNL     1      49.351   4.876  17.252  0.00  0.00    +0.000 A 
ATOM     24  H   UNL     1      50.663   7.477  14.977  0.00  0.00    +0.000 HD
BRANCH  17  26
ATOM     25  N   UNL     1      48.297   3.061  19.113  0.00  0.00    +0.000 N 
ATOM     26  C   UNL     1      47.652   3.196  17.912  0.00  0.00    +0.000 C 
ATOM     27  O   UNL     1      46.708   2.484  17.610  0.00  0.00    +0.000 OA
ATOM     28  H   UNL     1      47.907   2.385  19.760  0.00  0.00    +0.000 HD
ATOM     29  H   UNL     1      48.900   3.774  19.493  0.00  0.00    +0.000 HD
ENDBRANCH  17  26
ENDBRANCH  16  21
ENDBRANCH   1  16
TORSDOF 5
ENDMDL
MODEL 8
REMARK VINA RESULT:    -6.859      3.970      6.546
REMARK INTER + INTRA:          -9.680
REMARK INTER:                  -9.058
REMARK INTRA:                  -0.622
REMARK UNBOUND:                -0.816
REMARK  Name = 
REMARK  5 active torsions:
REMARK  status: ('A' for Active; 'I' for Inactive)
REMARK    1  A    between atoms: C_2  and  C_4
REMARK    2  A    between atoms: N_8  and  C_9
REMARK    3  A    between atoms: C_9  and  C_10
REMARK    4  A    between atoms: C_10  and  C_13
REMARK    5  A    between atoms: C_17  and  N_18
REMARK                            x       y       z     vdW  Elec       q    Type
REMARK                         _______ _______ _______ _____ _____    ______ ____
ROOT
ATOM      1  C   UNL     1      48.182   2.877  16.886  0.00  0.00    +0.000 C 
ATOM      2  F   UNL     1      47.202   2.367  17.693  0.00  0.00    +0.000 F 
ATOM      3  F   UNL     1      48.664   1.808  16.183  0.00  0.00    +0.000 F 
ENDROOT
BRANCH   1   4
ATOM      4  C   UNL     1      49.274   3.576  17.673  0.00  0.00    +0.000 A 
ATOM      5  C   UNL     1      50.606   3.171  17.563  0.00  0.00    +0.000 A 
ATOM      6  C   UNL     1      51.604   3.880  18.226  0.00  0.00    +0.000 A 
ATOM      7  C   UNL     1      51.274   5.014  18.973  0.00  0.00    +0.000 A 
ATOM      8  C   UNL     1      49.953   5.464  19.094  0.00  0.00    +0.000 A 
ATOM      9  C   UNL     1      48.963   4.699  18.462  0.00  0.00    +0.000 A 
BRANCH   8  10
ATOM     10  N   UNL     1      49.652   6.619  19.782  0.00  0.00    +0.000 N 
ATOM     11  C   UNL     1      48.853   6.644  21.014  0.00  0.00    +0.000 C 
ATOM     12  C   UNL     1      47.639   7.564  20.828  0.00  0.00    +0.000 C 
ATOM     13  O   UNL     1      48.035   8.883  20.415  0.00  0.00    +0.000 OA
ATOM     14  C   UNL     1      48.750   8.825  19.170  0.00  0.00    +0.000 C 
ATOM     15  C   UNL     1      50.013   7.951  19.271  0.00  0.00    +0.000 C 
ENDBRANCH   8  10
ENDBRANCH   1   4
BRANCH   1  16
ATOM     16  C   UNL     1      47.523   3.878  15.896  0.00  0.00    +0.000 C 
BRANCH  16  21
ATOM     17  C   UNL     1      44.591   4.751  11.803  0.00  0.00    +0.000 A 
ATOM     18  C   UNL     1      45.127   5.648  12.722  0.00  0.00    +0.000 A 
ATOM     19  C   UNL     1      46.029   5.176  13.677  0.00  0.00    +0.000 A 
ATOM     20  C   UNL     1      46.382   3.830  13.700  0.00  0.00    +0.000 A 
ATOM     21  N   UNL     1      47.353   3.329  14.544  0.00  0.00    +0.000 N 
ATOM     22  N   UNL     1      45.842   2.951  12.836  0.00  0.00    +0.000 NA
ATOM     23  C   UNL     1      44.954   3.419  11.913  0.00  0.00    +0.000 A 
ATOM     24  H   UNL     1      47.385   2.313  14.467  0.00  0.00    +0.000 HD
BRANCH  17  26
ATOM     25  N   UNL     1      43.920   4.720   9.471  0.00  0.00    +0.000 N 
ATOM     26  C   UNL     1      43.658   5.175  10.736  0.00  0.00    +0.000 C 
ATOM     27  O   UNL     1      42.683   5.867  10.977  0.00  0.00    +0.000 OA
ATOM     28  H   UNL     1      43.227   4.934   8.762  0.00  0.00    +0.000 HD
ATOM     29  H   UNL     1      44.556   3.961   9.283  0.00  0.00    +0.000 HD
ENDBRANCH  17  26
ENDBRANCH  16  21
ENDBRANCH   1  16
TORSDOF 5
ENDMDL
MODEL 9
REMARK VINA RESULT:    -6.741      3.293      4.836
REMARK INTER + INTRA:          -9.527
REMARK INTER:                  -8.491
REMARK INTRA:                  -1.036
REMARK UNBOUND:                -0.816
REMARK  Name = 
REMARK  5 active torsions:
REMARK  status: ('A' for Active; 'I' for Inactive)
REMARK    1  A    between atoms: C_2  and  C_4
REMARK    2  A    between atoms: N_8  and  C_9
REMARK    3  A    between atoms: C_9  and  C_10
REMARK    4  A    between atoms: C_10  and  C_13
REMARK    5  A    between atoms: C_17  and  N_18
REMARK                            x       y       z     vdW  Elec       q    Type
REMARK                         _______ _______ _______ _____ _____    ______ ____
ROOT
ATOM      1  C   UNL     1      48.337   8.410  12.945  0.00  0.00    +0.000 C 
ATOM      2  F   UNL     1      48.575   7.844  11.723  0.00  0.00    +0.000 F 
ATOM      3  F   UNL     1      48.721   9.715  12.821  0.00  0.00    +0.000 F 
ENDROOT
BRANCH   1   4
ATOM      4  C   UNL     1      49.082   7.705  14.063  0.00  0.00    +0.000 A 
ATOM      5  C   UNL     1      50.399   8.052  14.375  0.00  0.00    +0.000 A 
ATOM      6  C   UNL     1      51.035   7.454  15.459  0.00  0.00    +0.000 A 
ATOM      7  C   UNL     1      50.345   6.534  16.252  0.00  0.00    +0.000 A 
ATOM      8  C   UNL     1      49.019   6.172  15.984  0.00  0.00    +0.000 A 
ATOM      9  C   UNL     1      48.421   6.747  14.853  0.00  0.00    +0.000 A 
BRANCH   8  10
ATOM     10  N   UNL     1      48.332   5.310  16.811  0.00  0.00    +0.000 N 
ATOM     11  C   UNL     1      48.345   5.409  18.276  0.00  0.00    +0.000 C 
ATOM     12  C   UNL     1      48.840   4.089  18.883  0.00  0.00    +0.000 C 
ATOM     13  O   UNL     1      48.058   2.973  18.425  0.00  0.00    +0.000 OA
ATOM     14  C   UNL     1      48.128   2.864  16.995  0.00  0.00    +0.000 C 
ATOM     15  C   UNL     1      47.613   4.135  16.293  0.00  0.00    +0.000 C 
ENDBRANCH   8  10
ENDBRANCH   1   4
BRANCH   1  16
ATOM     16  C   UNL     1      46.807   8.356  13.217  0.00  0.00    +0.000 C 
BRANCH  16  21
ATOM     17  C   UNL     1      44.500   4.173  11.403  0.00  0.00    +0.000 A 
ATOM     18  C   UNL     1      44.635   4.618  12.714  0.00  0.00    +0.000 A 
ATOM     19  C   UNL     1      45.184   5.880  12.945  0.00  0.00    +0.000 A 
ATOM     20  C   UNL     1      45.583   6.675  11.875  0.00  0.00    +0.000 A 
ATOM     21  N   UNL     1      46.023   7.974  12.036  0.00  0.00    +0.000 N 
ATOM     22  N   UNL     1      45.485   6.239  10.605  0.00  0.00    +0.000 NA
ATOM     23  C   UNL     1      44.958   5.000  10.391  0.00  0.00    +0.000 A 
ATOM     24  H   UNL     1      46.354   8.338  11.142  0.00  0.00    +0.000 HD
BRANCH  17  26
ATOM     25  N   UNL     1      44.457   2.171  10.031  0.00  0.00    +0.000 N 
ATOM     26  C   UNL     1      43.895   2.865  11.069  0.00  0.00    +0.000 C 
ATOM     27  O   UNL     1      42.961   2.411  11.709  0.00  0.00    +0.000 OA
ATOM     28  H   UNL     1      44.101   1.237   9.868  0.00  0.00    +0.000 HD
ATOM     29  H   UNL     1      45.365   2.395   9.651  0.00  0.00    +0.000 HD
ENDBRANCH  17  26
ENDBRANCH  16  21
ENDBRANCH   1  16
TORSDOF 5
ENDMDL
