MODEL 1
REMARK VINA RESULT:    -7.757      0.000      0.000
REMARK INTER + INTRA:         -10.025
REMARK INTER:                  -9.571
REMARK INTRA:                  -0.454
REMARK UNBOUND:                -0.454
REMARK  Name = 
REMARK  6 active torsions:
REMARK  status: ('A' for Active; 'I' for Inactive)
REMARK    1  A    between atoms: C_1  and  C_2
REMARK    2  A    between atoms: C_4  and  C_5
REMARK    3  A    between atoms: C_10  and  O_11
REMARK    4  A    between atoms: O_11  and  C_12
REMARK    5  A    between atoms: C_12  and  C_13
REMARK    6  A    between atoms: C_12  and  C_14
REMARK                            x       y       z     vdW  Elec       q    Type
REMARK                         _______ _______ _______ _____ _____    ______ ____
ROOT
ATOM      1  C   UNL     1      43.802   1.977  10.486  0.00  0.00    +0.000 C 
ATOM      2  C   UNL     1      44.666   2.649   9.452  0.00  0.00    +0.000 A 
ATOM      3  C   UNL     1      45.581   1.858   8.729  0.00  0.00    +0.000 A 
ATOM      4  C   UNL     1      46.447   2.423   7.782  0.00  0.00    +0.000 A 
ATOM      5  C   UNL     1      46.426   3.802   7.592  0.00  0.00    +0.000 A 
ATOM      6  C   UNL     1      45.525   4.593   8.307  0.00  0.00    +0.000 A 
ATOM      7  C   UNL     1      44.589   4.027   9.183  0.00  0.00    +0.000 A 
ENDROOT
BRANCH   4   8
ATOM      8  C   UNL     1      47.360   1.515   7.031  0.00  0.00    +0.000 C 
ATOM      9  N   UNL     1      48.496   2.045   6.480  0.00  0.00    +0.000 N 
ATOM     10  O   UNL     1      47.116   0.328   6.896  0.00  0.00    +0.000 OA
ATOM     11  H   UNL     1      48.781   3.008   6.527  0.00  0.00    +0.000 HD
ATOM     12  H   UNL     1      49.088   1.402   5.970  0.00  0.00    +0.000 HD
ENDBRANCH   4   8
BRANCH   7  13
ATOM     13  O   UNL     1      43.603   4.764   9.800  0.00  0.00    +0.000 OA
BRANCH  13  14
ATOM     14  C   UNL     1      43.665   4.825  11.243  0.00  0.00    +0.000 C 
ATOM     15  C   UNL     1      42.456   5.591  11.789  0.00  0.00    +0.000 C 
BRANCH  14  16
ATOM     16  C   UNL     1      44.943   5.474  11.749  0.00  0.00    +0.000 A 
ATOM     17  C   UNL     1      45.311   6.776  11.398  0.00  0.00    +0.000 A 
ATOM     18  C   UNL     1      46.464   7.352  11.938  0.00  0.00    +0.000 A 
ATOM     19  C   UNL     1      47.254   6.635  12.837  0.00  0.00    +0.000 A 
ATOM     20  C   UNL     1      46.899   5.336  13.195  0.00  0.00    +0.000 A 
ATOM     21  C   UNL     1      45.751   4.762  12.657  0.00  0.00    +0.000 A 
ENDBRANCH  14  16
ENDBRANCH  13  14
ENDBRANCH   7  13
TORSDOF 4
ENDMDL
MODEL 2
REMARK VINA RESULT:    -7.217      1.110      2.170
REMARK INTER + INTRA:          -9.358
REMARK INTER:                  -8.247
REMARK INTRA:                  -1.111
REMARK UNBOUND:                -0.454
REMARK  Name = 
REMARK  6 active torsions:
REMARK  status: ('A' for Active; 'I' for Inactive)
REMARK    1  A    between atoms: C_1  and  C_2
REMARK    2  A    between atoms: C_4  and  C_5
REMARK    3  A    between atoms: C_10  and  O_11
REMARK    4  A    between atoms: O_11  and  C_12
REMARK    5  A    between atoms: C_12  and  C_13
REMARK    6  A    between atoms: C_12  and  C_14
REMARK                            x       y       z     vdW  Elec       q    Type
REMARK                         _______ _______ _______ _____ _____    ______ ____
ROOT
ATOM      1  C   UNL     1      46.084   5.554   8.721  0.00  0.00    +0.000 C 
ATOM      2  C   UNL     1      45.662   4.112   8.813  0.00  0.00    +0.000 A 
ATOM      3  C   UNL     1      46.451   3.142   8.164  0.00  0.00    +0.000 A 
ATOM      4  C   UNL     1      46.095   1.786   8.170  0.00  0.00    +0.000 A 
ATOM      5  C   UNL     1      44.910   1.406   8.795  0.00  0.00    +0.000 A 
ATOM      6  C   UNL     1      44.121   2.361   9.437  0.00  0.00    +0.000 A 
ATOM      7  C   UNL     1      44.517   3.703   9.520  0.00  0.00    +0.000 A 
ENDROOT
BRANCH   4   8
ATOM      8  C   UNL     1      47.001   0.815   7.493  0.00  0.00    +0.000 C 
ATOM      9  N   UNL     1      46.751  -0.523   7.644  0.00  0.00    +0.000 N 
ATOM     10  O   UNL     1      47.950   1.184   6.821  0.00  0.00    +0.000 OA
ATOM     11  H   UNL     1      46.004  -0.926   8.182  0.00  0.00    +0.000 HD
ATOM     12  H   UNL     1      47.392  -1.153   7.178  0.00  0.00    +0.000 HD
ENDBRANCH   4   8
BRANCH   7  13
ATOM     13  O   UNL     1      43.829   4.641  10.258  0.00  0.00    +0.000 OA
BRANCH  13  14
ATOM     14  C   UNL     1      43.795   4.424  11.687  0.00  0.00    +0.000 C 
ATOM     15  C   UNL     1      42.594   5.150  12.300  0.00  0.00    +0.000 C 
BRANCH  14  16
ATOM     16  C   UNL     1      45.068   4.880  12.380  0.00  0.00    +0.000 A 
ATOM     17  C   UNL     1      45.879   4.005  13.109  0.00  0.00    +0.000 A 
ATOM     18  C   UNL     1      47.073   4.458  13.676  0.00  0.00    +0.000 A 
ATOM     19  C   UNL     1      47.469   5.786  13.515  0.00  0.00    +0.000 A 
ATOM     20  C   UNL     1      46.671   6.669  12.791  0.00  0.00    +0.000 A 
ATOM     21  C   UNL     1      45.481   6.218  12.226  0.00  0.00    +0.000 A 
ENDBRANCH  14  16
ENDBRANCH  13  14
ENDBRANCH   7  13
TORSDOF 4
ENDMDL
MODEL 3
REMARK VINA RESULT:    -6.963      3.262      6.366
REMARK INTER + INTRA:          -9.045
REMARK INTER:                  -8.286
REMARK INTRA:                  -0.759
REMARK UNBOUND:                -0.454
REMARK  Name = 
REMARK  6 active torsions:
REMARK  status: ('A' for Active; 'I' for Inactive)
REMARK    1  A    between atoms: C_1  and  C_2
REMARK    2  A    between atoms: C_4  and  C_5
REMARK    3  A    between atoms: C_10  and  O_11
REMARK    4  A    between atoms: O_11  and  C_12
REMARK    5  A    between atoms: C_12  and  C_13
REMARK    6  A    between atoms: C_12  and  C_14
REMARK                            x       y       z     vdW  Elec       q    Type
REMARK                         _______ _______ _______ _____ _____    ______ ____
ROOT
ATOM      1  C   UNL     1      47.453   5.508  13.273  0.00  0.00    +0.000 C 
ATOM      2  C   UNL     1      46.439   6.369  12.570  0.00  0.00    +0.000 A 
ATOM      3  C   UNL     1      46.593   7.768  12.630  0.00  0.00    +0.000 A 
ATOM      4  C   UNL     1      45.663   8.633  12.036  0.00  0.00    +0.000 A 
ATOM      5  C   UNL     1      44.543   8.088  11.413  0.00  0.00    +0.000 A 
ATOM      6  C   UNL     1      44.381   6.703  11.352  0.00  0.00    +0.000 A 
ATOM      7  C   UNL     1      45.353   5.829  11.857  0.00  0.00    +0.000 A 
ENDROOT
BRANCH   4   8
ATOM      8  C   UNL     1      45.915  10.100  12.111  0.00  0.00    +0.000 C 
ATOM      9  N   UNL     1      44.840  10.948  12.077  0.00  0.00    +0.000 N 
ATOM     10  O   UNL     1      47.045  10.553  12.196  0.00  0.00    +0.000 OA
ATOM     11  H   UNL     1      43.876  10.675  11.999  0.00  0.00    +0.000 HD
ATOM     12  H   UNL     1      45.050  11.937  12.121  0.00  0.00    +0.000 HD
ENDBRANCH   4   8
BRANCH   7  13
ATOM     13  O   UNL     1      45.286   4.463  11.694  0.00  0.00    +0.000 OA
BRANCH  13  14
ATOM     14  C   UNL     1      44.398   3.990  10.657  0.00  0.00    +0.000 C 
ATOM     15  C   UNL     1      43.505   2.871  11.200  0.00  0.00    +0.000 C 
BRANCH  14  16
ATOM     16  C   UNL     1      45.142   3.492   9.429  0.00  0.00    +0.000 A 
ATOM     17  C   UNL     1      45.703   4.361   8.489  0.00  0.00    +0.000 A 
ATOM     18  C   UNL     1      46.432   3.856   7.410  0.00  0.00    +0.000 A 
ATOM     19  C   UNL     1      46.611   2.480   7.263  0.00  0.00    +0.000 A 
ATOM     20  C   UNL     1      46.056   1.602   8.192  0.00  0.00    +0.000 A 
ATOM     21  C   UNL     1      45.330   2.105   9.268  0.00  0.00    +0.000 A 
ENDBRANCH  14  16
ENDBRANCH  13  14
ENDBRANCH   7  13
TORSDOF 4
ENDMDL
MODEL 4
REMARK VINA RESULT:    -6.737      3.197      5.731
REMARK INTER + INTRA:          -8.767
REMARK INTER:                  -7.690
REMARK INTRA:                  -1.077
REMARK UNBOUND:                -0.454
REMARK  Name = 
REMARK  6 active torsions:
REMARK  status: ('A' for Active; 'I' for Inactive)
REMARK    1  A    between atoms: C_1  and  C_2
REMARK    2  A    between atoms: C_4  and  C_5
REMARK    3  A    between atoms: C_10  and  O_11
REMARK    4  A    between atoms: O_11  and  C_12
REMARK    5  A    between atoms: C_12  and  C_13
REMARK    6  A    between atoms: C_12  and  C_14
REMARK                            x       y       z     vdW  Elec       q    Type
REMARK                         _______ _______ _______ _____ _____    ______ ____
ROOT
ATOM      1  C   UNL     1      46.698   4.178  13.594  0.00  0.00    +0.000 C 
ATOM      2  C   UNL     1      46.837   5.598  13.114  0.00  0.00    +0.000 A 
ATOM      3  C   UNL     1      48.132   6.137  12.987  0.00  0.00    +0.000 A 
ATOM      4  C   UNL     1      48.337   7.466  12.588  0.00  0.00    +0.000 A 
ATOM      5  C   UNL     1      47.227   8.274  12.358  0.00  0.00    +0.000 A 
ATOM      6  C   UNL     1      45.940   7.750  12.485  0.00  0.00    +0.000 A 
ATOM      7  C   UNL     1      45.727   6.398  12.789  0.00  0.00    +0.000 A 
ENDROOT
BRANCH   4   8
ATOM      8  C   UNL     1      49.738   7.951  12.439  0.00  0.00    +0.000 C 
ATOM      9  N   UNL     1      50.622   7.708  13.457  0.00  0.00    +0.000 N 
ATOM     10  O   UNL     1      50.105   8.555  11.446  0.00  0.00    +0.000 OA
ATOM     11  H   UNL     1      50.415   7.230  14.316  0.00  0.00    +0.000 HD
ATOM     12  H   UNL     1      51.562   8.060  13.326  0.00  0.00    +0.000 HD
ENDBRANCH   4   8
BRANCH   7  13
ATOM     13  O   UNL     1      44.476   5.821  12.791  0.00  0.00    +0.000 OA
BRANCH  13  14
ATOM     14  C   UNL     1      43.783   5.803  11.523  0.00  0.00    +0.000 C 
ATOM     15  C   UNL     1      42.289   5.553  11.744  0.00  0.00    +0.000 C 
BRANCH  14  16
ATOM     16  C   UNL     1      44.334   4.757  10.567  0.00  0.00    +0.000 A 
ATOM     17  C   UNL     1      43.972   3.409  10.644  0.00  0.00    +0.000 A 
ATOM     18  C   UNL     1      44.457   2.496   9.704  0.00  0.00    +0.000 A 
ATOM     19  C   UNL     1      45.300   2.922   8.678  0.00  0.00    +0.000 A 
ATOM     20  C   UNL     1      45.669   4.262   8.590  0.00  0.00    +0.000 A 
ATOM     21  C   UNL     1      45.187   5.173   9.526  0.00  0.00    +0.000 A 
ENDBRANCH  14  16
ENDBRANCH  13  14
ENDBRANCH   7  13
TORSDOF 4
ENDMDL
MODEL 5
REMARK VINA RESULT:    -6.463      3.139      6.018
REMARK INTER + INTRA:          -8.429
REMARK INTER:                  -9.136
REMARK INTRA:                   0.707
REMARK UNBOUND:                -0.454
REMARK  Name = 
REMARK  6 active torsions:
REMARK  status: ('A' for Active; 'I' for Inactive)
REMARK    1  A    between atoms: C_1  and  C_2
REMARK    2  A    between atoms: C_4  and  C_5
REMARK    3  A    between atoms: C_10  and  O_11
REMARK    4  A    between atoms: O_11  and  C_12
REMARK    5  A    between atoms: C_12  and  C_13
REMARK    6  A    between atoms: C_12  and  C_14
REMARK                            x       y       z     vdW  Elec       q    Type
REMARK                         _______ _______ _______ _____ _____    ______ ____
ROOT
ATOM      1  C   UNL     1      45.749   7.571  12.138  0.00  0.00    +0.000 C 
ATOM      2  C   UNL     1      45.894   6.130  12.548  0.00  0.00    +0.000 A 
ATOM      3  C   UNL     1      46.561   5.843  13.756  0.00  0.00    +0.000 A 
ATOM      4  C   UNL     1      46.772   4.523  14.180  0.00  0.00    +0.000 A 
ATOM      5  C   UNL     1      46.349   3.480  13.361  0.00  0.00    +0.000 A 
ATOM      6  C   UNL     1      45.691   3.756  12.161  0.00  0.00    +0.000 A 
ATOM      7  C   UNL     1      45.389   5.069  11.776  0.00  0.00    +0.000 A 
ENDROOT
BRANCH   4   8
ATOM      8  C   UNL     1      47.452   4.302  15.488  0.00  0.00    +0.000 C 
ATOM      9  N   UNL     1      47.732   5.392  16.268  0.00  0.00    +0.000 N 
ATOM     10  O   UNL     1      47.763   3.186  15.868  0.00  0.00    +0.000 OA
ATOM     11  H   UNL     1      47.525   6.349  16.040  0.00  0.00    +0.000 HD
ATOM     12  H   UNL     1      48.201   5.205  17.145  0.00  0.00    +0.000 HD
ENDBRANCH   4   8
BRANCH   7  13
ATOM     13  O   UNL     1      44.627   5.366  10.667  0.00  0.00    +0.000 OA
BRANCH  13  14
ATOM     14  C   UNL     1      44.038   4.238   9.981  0.00  0.00    +0.000 C 
ATOM     15  C   UNL     1      43.453   3.253  10.996  0.00  0.00    +0.000 C 
BRANCH  14  16
ATOM     16  C   UNL     1      45.031   3.512   9.088  0.00  0.00    +0.000 A 
ATOM     17  C   UNL     1      45.188   2.123   9.117  0.00  0.00    +0.000 A 
ATOM     18  C   UNL     1      46.068   1.495   8.232  0.00  0.00    +0.000 A 
ATOM     19  C   UNL     1      46.792   2.247   7.308  0.00  0.00    +0.000 A 
ATOM     20  C   UNL     1      46.646   3.632   7.267  0.00  0.00    +0.000 A 
ATOM     21  C   UNL     1      45.769   4.259   8.149  0.00  0.00    +0.000 A 
ENDBRANCH  14  16
ENDBRANCH  13  14
ENDBRANCH   7  13
TORSDOF 4
ENDMDL
MODEL 6
REMARK VINA RESULT:    -6.246      3.585      5.956
REMARK INTER + INTRA:          -8.160
REMARK INTER:                  -7.566
REMARK INTRA:                  -0.594
REMARK UNBOUND:                -0.454
REMARK  Name = 
REMARK  6 active torsions:
REMARK  status: ('A' for Active; 'I' for Inactive)
REMARK    1  A    between atoms: C_1  and  C_2
REMARK    2  A    between atoms: C_4  and  C_5
REMARK    3  A    between atoms: C_10  and  O_11
REMARK    4  A    between atoms: O_11  and  C_12
REMARK    5  A    between atoms: C_12  and  C_13
REMARK    6  A    between atoms: C_12  and  C_14
REMARK                            x       y       z     vdW  Elec       q    Type
REMARK                         _______ _______ _______ _____ _____    ______ ____
ROOT
ATOM      1  C   UNL     1      47.235   7.606  12.146  0.00  0.00    +0.000 C 
ATOM      2  C   UNL     1      46.698   6.209  12.304  0.00  0.00    +0.000 A 
ATOM      3  C   UNL     1      45.644   5.799  11.464  0.00  0.00    +0.000 A 
ATOM      4  C   UNL     1      45.064   4.527  11.583  0.00  0.00    +0.000 A 
ATOM      5  C   UNL     1      45.518   3.675  12.586  0.00  0.00    +0.000 A 
ATOM      6  C   UNL     1      46.559   4.075  13.426  0.00  0.00    +0.000 A 
ATOM      7  C   UNL     1      47.209   5.304  13.252  0.00  0.00    +0.000 A 
ENDROOT
BRANCH   4   8
ATOM      8  C   UNL     1      43.979   4.154  10.632  0.00  0.00    +0.000 C 
ATOM      9  N   UNL     1      43.988   4.713   9.382  0.00  0.00    +0.000 N 
ATOM     10  O   UNL     1      43.094   3.375  10.943  0.00  0.00    +0.000 OA
ATOM     11  H   UNL     1      44.666   5.369   9.034  0.00  0.00    +0.000 HD
ATOM     12  H   UNL     1      43.232   4.443   8.766  0.00  0.00    +0.000 HD
ENDBRANCH   4   8
BRANCH   7  13
ATOM     13  O   UNL     1      48.323   5.669  13.976  0.00  0.00    +0.000 OA
BRANCH  13  14
ATOM     14  C   UNL     1      48.076   6.183  15.304  0.00  0.00    +0.000 C 
ATOM     15  C   UNL     1      48.994   7.376  15.585  0.00  0.00    +0.000 C 
BRANCH  14  16
ATOM     16  C   UNL     1      48.269   5.132  16.385  0.00  0.00    +0.000 A 
ATOM     17  C   UNL     1      47.266   4.221  16.732  0.00  0.00    +0.000 A 
ATOM     18  C   UNL     1      47.513   3.233  17.688  0.00  0.00    +0.000 A 
ATOM     19  C   UNL     1      48.762   3.143  18.301  0.00  0.00    +0.000 A 
ATOM     20  C   UNL     1      49.770   4.044  17.966  0.00  0.00    +0.000 A 
ATOM     21  C   UNL     1      49.526   5.029  17.013  0.00  0.00    +0.000 A 
ENDBRANCH  14  16
ENDBRANCH  13  14
ENDBRANCH   7  13
TORSDOF 4
ENDMDL
MODEL 7
REMARK VINA RESULT:    -6.160      2.993      5.201
REMARK INTER + INTRA:          -8.054
REMARK INTER:                  -7.294
REMARK INTRA:                  -0.760
REMARK UNBOUND:                -0.454
REMARK  Name = 
REMARK  6 active torsions:
REMARK  status: ('A' for Active; 'I' for Inactive)
REMARK    1  A    between atoms: C_1  and  C_2
REMARK    2  A    between atoms: C_4  and  C_5
REMARK    3  A    between atoms: C_10  and  O_11
REMARK    4  A    between atoms: O_11  and  C_12
REMARK    5  A    between atoms: C_12  and  C_13
REMARK    6  A    between atoms: C_12  and  C_14
REMARK                            x       y       z     vdW  Elec       q    Type
REMARK                         _______ _______ _______ _____ _____    ______ ____
ROOT
ATOM      1  C   UNL     1      46.981   4.604  14.609  0.00  0.00    +0.000 C 
ATOM      2  C   UNL     1      46.344   4.887  13.275  0.00  0.00    +0.000 A 
ATOM      3  C   UNL     1      45.563   3.878  12.679  0.00  0.00    +0.000 A 
ATOM      4  C   UNL     1      44.975   4.054  11.418  0.00  0.00    +0.000 A 
ATOM      5  C   UNL     1      45.212   5.241  10.729  0.00  0.00    +0.000 A 
ATOM      6  C   UNL     1      45.988   6.245  11.310  0.00  0.00    +0.000 A 
ATOM      7  C   UNL     1      46.498   6.117  12.609  0.00  0.00    +0.000 A 
ENDROOT
BRANCH   4   8
ATOM      8  C   UNL     1      44.131   2.954  10.872  0.00  0.00    +0.000 C 
ATOM      9  N   UNL     1      44.610   2.233   9.811  0.00  0.00    +0.000 N 
ATOM     10  O   UNL     1      43.037   2.691  11.342  0.00  0.00    +0.000 OA
ATOM     11  H   UNL     1      45.491   2.377   9.349  0.00  0.00    +0.000 HD
ATOM     12  H   UNL     1      44.007   1.499   9.460  0.00  0.00    +0.000 HD
ENDBRANCH   4   8
BRANCH   7  13
ATOM     13  O   UNL     1      47.153   7.140  13.259  0.00  0.00    +0.000 OA
BRANCH  13  14
ATOM     14  C   UNL     1      48.434   7.523  12.711  0.00  0.00    +0.000 C 
ATOM     15  C   UNL     1      49.517   7.422  13.788  0.00  0.00    +0.000 C 
BRANCH  14  16
ATOM     16  C   UNL     1      48.428   8.927  12.131  0.00  0.00    +0.000 A 
ATOM     17  C   UNL     1      49.535   9.470  11.470  0.00  0.00    +0.000 A 
ATOM     18  C   UNL     1      49.460  10.743  10.899  0.00  0.00    +0.000 A 
ATOM     19  C   UNL     1      48.279  11.481  10.977  0.00  0.00    +0.000 A 
ATOM     20  C   UNL     1      47.169  10.953  11.633  0.00  0.00    +0.000 A 
ATOM     21  C   UNL     1      47.242   9.685  12.202  0.00  0.00    +0.000 A 
ENDBRANCH  14  16
ENDBRANCH  13  14
ENDBRANCH   7  13
TORSDOF 4
ENDMDL
MODEL 8
REMARK VINA RESULT:    -6.113      4.250      6.382
REMARK INTER + INTRA:          -7.997
REMARK INTER:                  -7.197
REMARK INTRA:                  -0.800
REMARK UNBOUND:                -0.454
REMARK  Name = 
REMARK  6 active torsions:
REMARK  status: ('A' for Active; 'I' for Inactive)
REMARK    1  A    between atoms: C_1  and  C_2
REMARK    2  A    between atoms: C_4  and  C_5
REMARK    3  A    between atoms: C_10  and  O_11
REMARK    4  A    between atoms: O_11  and  C_12
REMARK    5  A    between atoms: C_12  and  C_13
REMARK    6  A    between atoms: C_12  and  C_14
REMARK                            x       y       z     vdW  Elec       q    Type
REMARK                         _______ _______ _______ _____ _____    ______ ____
ROOT
ATOM      1  C   UNL     1      46.479   3.252  13.187  0.00  0.00    +0.000 C 
ATOM      2  C   UNL     1      46.077   4.681  12.941  0.00  0.00    +0.000 A 
ATOM      3  C   UNL     1      44.825   4.930  12.344  0.00  0.00    +0.000 A 
ATOM      4  C   UNL     1      44.402   6.233  12.045  0.00  0.00    +0.000 A 
ATOM      5  C   UNL     1      45.264   7.294  12.309  0.00  0.00    +0.000 A 
ATOM      6  C   UNL     1      46.507   7.057  12.897  0.00  0.00    +0.000 A 
ATOM      7  C   UNL     1      46.898   5.769  13.288  0.00  0.00    +0.000 A 
ENDROOT
BRANCH   4   8
ATOM      8  C   UNL     1      43.048   6.417  11.448  0.00  0.00    +0.000 C 
ATOM      9  N   UNL     1      42.671   7.677  11.069  0.00  0.00    +0.000 N 
ATOM     10  O   UNL     1      42.282   5.481  11.298  0.00  0.00    +0.000 OA
ATOM     11  H   UNL     1      43.224   8.511  11.159  0.00  0.00    +0.000 HD
ATOM     12  H   UNL     1      41.742   7.766  10.676  0.00  0.00    +0.000 HD
ENDBRANCH   4   8
BRANCH   7  13
ATOM     13  O   UNL     1      48.058   5.521  13.989  0.00  0.00    +0.000 OA
BRANCH  13  14
ATOM     14  C   UNL     1      48.146   6.119  15.302  0.00  0.00    +0.000 C 
ATOM     15  C   UNL     1      49.335   7.082  15.361  0.00  0.00    +0.000 C 
BRANCH  14  16
ATOM     16  C   UNL     1      48.277   5.087  16.409  0.00  0.00    +0.000 A 
ATOM     17  C   UNL     1      49.289   5.145  17.372  0.00  0.00    +0.000 A 
ATOM     18  C   UNL     1      49.330   4.208  18.408  0.00  0.00    +0.000 A 
ATOM     19  C   UNL     1      48.359   3.211  18.494  0.00  0.00    +0.000 A 
ATOM     20  C   UNL     1      47.345   3.141  17.542  0.00  0.00    +0.000 A 
ATOM     21  C   UNL     1      47.303   4.073  16.509  0.00  0.00    +0.000 A 
ENDBRANCH  14  16
ENDBRANCH  13  14
ENDBRANCH   7  13
TORSDOF 4
ENDMDL
MODEL 9
REMARK VINA RESULT:    -5.847      3.092      5.310
REMARK INTER + INTRA:          -7.668
REMARK INTER:                  -6.874
REMARK INTRA:                  -0.794
REMARK UNBOUND:                -0.454
REMARK  Name = 
REMARK  6 active torsions:
REMARK  status: ('A' for Active; 'I' for Inactive)
REMARK    1  A    between atoms: C_1  and  C_2
REMARK    2  A    between atoms: C_4  and  C_5
REMARK    3  A    between atoms: C_10  and  O_11
REMARK    4  A    between atoms: O_11  and  C_12
REMARK    5  A    between atoms: C_12  and  C_13
REMARK    6  A    between atoms: C_12  and  C_14
REMARK                            x       y       z     vdW  Elec       q    Type
REMARK                         _______ _______ _______ _____ _____    ______ ____
ROOT
ATOM      1  C   UNL     1      44.941   7.714  11.393  0.00  0.00    +0.000 C 
ATOM      2  C   UNL     1      45.236   6.329  11.901  0.00  0.00    +0.000 A 
ATOM      3  C   UNL     1      44.573   5.240  11.301  0.00  0.00    +0.000 A 
ATOM      4  C   UNL     1      44.766   3.926  11.752  0.00  0.00    +0.000 A 
ATOM      5  C   UNL     1      45.600   3.708  12.845  0.00  0.00    +0.000 A 
ATOM      6  C   UNL     1      46.259   4.781  13.447  0.00  0.00    +0.000 A 
ATOM      7  C   UNL     1      46.148   6.084  12.944  0.00  0.00    +0.000 A 
ENDROOT
BRANCH   4   8
ATOM      8  C   UNL     1      44.057   2.825  11.041  0.00  0.00    +0.000 C 
ATOM      9  N   UNL     1      44.618   2.320   9.899  0.00  0.00    +0.000 N 
ATOM     10  O   UNL     1      42.999   2.374  11.449  0.00  0.00    +0.000 OA
ATOM     11  H   UNL     1      45.477   2.628   9.478  0.00  0.00    +0.000 HD
ATOM     12  H   UNL     1      44.105   1.579   9.438  0.00  0.00    +0.000 HD
ENDBRANCH   4   8
BRANCH   7  13
ATOM     13  O   UNL     1      46.887   7.139  13.432  0.00  0.00    +0.000 OA
BRANCH  13  14
ATOM     14  C   UNL     1      48.323   7.012  13.325  0.00  0.00    +0.000 C 
ATOM     15  C   UNL     1      48.949   6.940  14.721  0.00  0.00    +0.000 C 
BRANCH  14  16
ATOM     16  C   UNL     1      48.957   8.152  12.546  0.00  0.00    +0.000 A 
ATOM     17  C   UNL     1      50.244   8.064  12.005  0.00  0.00    +0.000 A 
ATOM     18  C   UNL     1      50.759   9.115  11.242  0.00  0.00    +0.000 A 
ATOM     19  C   UNL     1      49.994  10.257  11.008  0.00  0.00    +0.000 A 
ATOM     20  C   UNL     1      48.711  10.358  11.542  0.00  0.00    +0.000 A 
ATOM     21  C   UNL     1      48.196   9.312  12.302  0.00  0.00    +0.000 A 
ENDBRANCH  14  16
ENDBRANCH  13  14
ENDBRANCH   7  13
TORSDOF 4
ENDMDL
