MODEL 1
REMARK VINA RESULT:    -7.892      0.000      0.000
REMARK INTER + INTRA:          -9.795
REMARK INTER:                  -9.276
REMARK INTRA:                  -0.519
REMARK UNBOUND:                -0.519
REMARK  Name = 
REMARK  3 active torsions:
REMARK  status: ('A' for Active; 'I' for Inactive)
REMARK    1  A    between atoms: C_2  and  C_4
REMARK    2  A    between atoms: N_11  and  C_12
REMARK    3  A    between atoms: C_12  and  C_13
REMARK                            x       y       z     vdW  Elec       q    Type
REMARK                         _______ _______ _______ _____ _____    ______ ____
ROOT
ATOM      1  C   UNL     1      45.610   7.491  12.513  0.00  0.00    +0.000 A 
ATOM      2  C   UNL     1      44.774   7.232  11.432  0.00  0.00    +0.000 A 
ATOM      3  N   UNL     1      44.462   6.003  10.943  0.00  0.00    +0.000 NA
ATOM      4  C   UNL     1      45.029   4.997  11.644  0.00  0.00    +0.000 A 
ATOM      5  C   UNL     1      45.850   5.119  12.764  0.00  0.00    +0.000 A 
ATOM      6  C   UNL     1      46.186   3.805  13.184  0.00  0.00    +0.000 A 
ATOM      7  C   UNL     1      45.587   2.923  12.310  0.00  0.00    +0.000 A 
ATOM      8  N   UNL     1      44.894   3.656  11.374  0.00  0.00    +0.000 N 
ATOM      9  C   UNL     1      46.154   6.412  13.218  0.00  0.00    +0.000 A 
ENDROOT
BRANCH   1  11
ATOM     10  N   UNL     1      44.844   9.777  12.814  0.00  0.00    +0.000 N 
ATOM     11  C   UNL     1      45.888   8.894  12.881  0.00  0.00    +0.000 C 
ATOM     12  O   UNL     1      46.993   9.248  13.270  0.00  0.00    +0.000 OA
ATOM     13  H   UNL     1      45.018  10.711  13.168  0.00  0.00    +0.000 HD
ATOM     14  H   UNL     1      43.881   9.482  12.730  0.00  0.00    +0.000 HD
ENDBRANCH   1  11
BRANCH   8  15
ATOM     15  C   UNL     1      44.174   3.091  10.238  0.00  0.00    +0.000 C 
BRANCH  15  16
ATOM     16  C   UNL     1      45.089   2.870   9.057  0.00  0.00    +0.000 A 
ATOM     17  C   UNL     1      45.608   1.593   8.793  0.00  0.00    +0.000 A 
ATOM     18  C   UNL     1      46.507   1.394   7.744  0.00  0.00    +0.000 A 
ATOM     19  C   UNL     1      46.882   2.469   6.942  0.00  0.00    +0.000 A 
ATOM     20 CL   UNL     1      48.024   2.233   5.676  0.00  0.00    +0.000 Cl
ATOM     21  C   UNL     1      46.347   3.736   7.166  0.00  0.00    +0.000 A 
ATOM     22  C   UNL     1      45.452   3.936   8.220  0.00  0.00    +0.000 A 
ENDBRANCH  15  16
ENDBRANCH   8  15
TORSDOF 3
ENDMDL
MODEL 2
REMARK VINA RESULT:    -7.731      2.296      3.236
REMARK INTER + INTRA:          -9.606
REMARK INTER:                  -9.125
REMARK INTRA:                  -0.481
REMARK UNBOUND:                -0.519
REMARK  Name = 
REMARK  3 active torsions:
REMARK  status: ('A' for Active; 'I' for Inactive)
REMARK    1  A    between atoms: C_2  and  C_4
REMARK    2  A    between atoms: N_11  and  C_12
REMARK    3  A    between atoms: C_12  and  C_13
REMARK                            x       y       z     vdW  Elec       q    Type
REMARK                         _______ _______ _______ _____ _____    ______ ____
ROOT
ATOM      1  C   UNL     1      46.858   4.340  14.424  0.00  0.00    +0.000 A 
ATOM      2  C   UNL     1      46.426   3.269  13.648  0.00  0.00    +0.000 A 
ATOM      3  N   UNL     1      45.676   3.356  12.519  0.00  0.00    +0.000 NA
ATOM      4  C   UNL     1      45.394   4.629  12.169  0.00  0.00    +0.000 A 
ATOM      5  C   UNL     1      45.797   5.787  12.833  0.00  0.00    +0.000 A 
ATOM      6  C   UNL     1      45.298   6.891  12.094  0.00  0.00    +0.000 A 
ATOM      7  C   UNL     1      44.594   6.389  11.021  0.00  0.00    +0.000 A 
ATOM      8  N   UNL     1      44.651   5.015  11.079  0.00  0.00    +0.000 N 
ATOM      9  C   UNL     1      46.557   5.640  14.004  0.00  0.00    +0.000 A 
ENDROOT
BRANCH   1  11
ATOM     10  N   UNL     1      47.586   5.021  16.639  0.00  0.00    +0.000 N 
ATOM     11  C   UNL     1      47.623   4.067  15.658  0.00  0.00    +0.000 C 
ATOM     12  O   UNL     1      48.229   3.017  15.817  0.00  0.00    +0.000 OA
ATOM     13  H   UNL     1      48.025   4.779  17.520  0.00  0.00    +0.000 HD
ATOM     14  H   UNL     1      46.918   5.778  16.644  0.00  0.00    +0.000 HD
ENDBRANCH   1  11
BRANCH   8  15
ATOM     15  C   UNL     1      43.975   4.112  10.154  0.00  0.00    +0.000 C 
BRANCH  15  16
ATOM     16  C   UNL     1      44.940   3.520   9.154  0.00  0.00    +0.000 A 
ATOM     17  C   UNL     1      45.160   2.134   9.118  0.00  0.00    +0.000 A 
ATOM     18  C   UNL     1      46.099   1.586   8.243  0.00  0.00    +0.000 A 
ATOM     19  C   UNL     1      46.814   2.419   7.387  0.00  0.00    +0.000 A 
ATOM     20 CL   UNL     1      48.004   1.749   6.339  0.00  0.00    +0.000 Cl
ATOM     21  C   UNL     1      46.581   3.793   7.382  0.00  0.00    +0.000 A 
ATOM     22  C   UNL     1      45.645   4.342   8.262  0.00  0.00    +0.000 A 
ENDBRANCH  15  16
ENDBRANCH   8  15
TORSDOF 3
ENDMDL
MODEL 3
REMARK VINA RESULT:    -7.591      3.835      6.522
REMARK INTER + INTRA:          -9.441
REMARK INTER:                  -9.151
REMARK INTRA:                  -0.289
REMARK UNBOUND:                -0.519
REMARK  Name = 
REMARK  3 active torsions:
REMARK  status: ('A' for Active; 'I' for Inactive)
REMARK    1  A    between atoms: C_2  and  C_4
REMARK    2  A    between atoms: N_11  and  C_12
REMARK    3  A    between atoms: C_12  and  C_13
REMARK                            x       y       z     vdW  Elec       q    Type
REMARK                         _______ _______ _______ _____ _____    ______ ____
ROOT
ATOM      1  C   UNL     1      46.596   2.741   7.476  0.00  0.00    +0.000 A 
ATOM      2  C   UNL     1      46.502   4.124   7.598  0.00  0.00    +0.000 A 
ATOM      3  N   UNL     1      45.718   4.794   8.481  0.00  0.00    +0.000 NA
ATOM      4  C   UNL     1      45.023   3.973   9.298  0.00  0.00    +0.000 A 
ATOM      5  C   UNL     1      45.057   2.580   9.307  0.00  0.00    +0.000 A 
ATOM      6  C   UNL     1      44.196   2.145  10.348  0.00  0.00    +0.000 A 
ATOM      7  C   UNL     1      43.647   3.267  10.930  0.00  0.00    +0.000 A 
ATOM      8  N   UNL     1      44.149   4.372  10.281  0.00  0.00    +0.000 N 
ATOM      9  C   UNL     1      45.872   1.936   8.362  0.00  0.00    +0.000 A 
ENDROOT
BRANCH   1  11
ATOM     10  N   UNL     1      47.760   2.980   5.357  0.00  0.00    +0.000 N 
ATOM     11  C   UNL     1      47.460   2.172   6.421  0.00  0.00    +0.000 C 
ATOM     12  O   UNL     1      47.922   1.043   6.510  0.00  0.00    +0.000 OA
ATOM     13  H   UNL     1      48.436   2.619   4.693  0.00  0.00    +0.000 HD
ATOM     14  H   UNL     1      47.598   3.977   5.362  0.00  0.00    +0.000 HD
ENDBRANCH   1  11
BRANCH   8  15
ATOM     15  C   UNL     1      43.765   5.751  10.561  0.00  0.00    +0.000 C 
BRANCH  15  16
ATOM     16  C   UNL     1      44.795   6.451  11.416  0.00  0.00    +0.000 A 
ATOM     17  C   UNL     1      45.762   5.707  12.110  0.00  0.00    +0.000 A 
ATOM     18  C   UNL     1      46.675   6.340  12.955  0.00  0.00    +0.000 A 
ATOM     19  C   UNL     1      46.635   7.724  13.101  0.00  0.00    +0.000 A 
ATOM     20 CL   UNL     1      47.731   8.502  14.176  0.00  0.00    +0.000 Cl
ATOM     21  C   UNL     1      45.706   8.482  12.391  0.00  0.00    +0.000 A 
ATOM     22  C   UNL     1      44.788   7.847  11.550  0.00  0.00    +0.000 A 
ENDBRANCH  15  16
ENDBRANCH   8  15
TORSDOF 3
ENDMDL
MODEL 4
REMARK VINA RESULT:    -7.327      1.880      2.077
REMARK INTER + INTRA:          -9.131
REMARK INTER:                  -8.648
REMARK INTRA:                  -0.482
REMARK UNBOUND:                -0.519
REMARK  Name = 
REMARK  3 active torsions:
REMARK  status: ('A' for Active; 'I' for Inactive)
REMARK    1  A    between atoms: C_2  and  C_4
REMARK    2  A    between atoms: N_11  and  C_12
REMARK    3  A    between atoms: C_12  and  C_13
REMARK                            x       y       z     vdW  Elec       q    Type
REMARK                         _______ _______ _______ _____ _____    ______ ____
ROOT
ATOM      1  C   UNL     1      47.120   5.991  13.434  0.00  0.00    +0.000 A 
ATOM      2  C   UNL     1      46.996   6.346  12.095  0.00  0.00    +0.000 A 
ATOM      3  N   UNL     1      46.052   5.886  11.233  0.00  0.00    +0.000 NA
ATOM      4  C   UNL     1      45.176   5.038  11.813  0.00  0.00    +0.000 A 
ATOM      5  C   UNL     1      45.165   4.632  13.147  0.00  0.00    +0.000 A 
ATOM      6  C   UNL     1      44.054   3.766  13.314  0.00  0.00    +0.000 A 
ATOM      7  C   UNL     1      43.431   3.646  12.090  0.00  0.00    +0.000 A 
ATOM      8  N   UNL     1      44.125   4.416  11.184  0.00  0.00    +0.000 N 
ATOM      9  C   UNL     1      46.173   5.125  13.991  0.00  0.00    +0.000 A 
ENDROOT
BRANCH   1  11
ATOM     10  N   UNL     1      48.755   7.747  13.814  0.00  0.00    +0.000 N 
ATOM     11  C   UNL     1      48.242   6.544  14.219  0.00  0.00    +0.000 C 
ATOM     12  O   UNL     1      48.670   5.975  15.215  0.00  0.00    +0.000 OA
ATOM     13  H   UNL     1      49.451   8.167  14.419  0.00  0.00    +0.000 HD
ATOM     14  H   UNL     1      48.284   8.351  13.156  0.00  0.00    +0.000 HD
ENDBRANCH   1  11
BRANCH   8  15
ATOM     15  C   UNL     1      43.818   4.507   9.761  0.00  0.00    +0.000 C 
BRANCH  15  16
ATOM     16  C   UNL     1      44.811   3.731   8.929  0.00  0.00    +0.000 A 
ATOM     17  C   UNL     1      44.933   2.341   9.086  0.00  0.00    +0.000 A 
ATOM     18  C   UNL     1      45.894   1.626   8.370  0.00  0.00    +0.000 A 
ATOM     19  C   UNL     1      46.731   2.294   7.480  0.00  0.00    +0.000 A 
ATOM     20 CL   UNL     1      47.946   1.421   6.630  0.00  0.00    +0.000 Cl
ATOM     21  C   UNL     1      46.598   3.667   7.283  0.00  0.00    +0.000 A 
ATOM     22  C   UNL     1      45.640   4.384   8.005  0.00  0.00    +0.000 A 
ENDBRANCH  15  16
ENDBRANCH   8  15
TORSDOF 3
ENDMDL
MODEL 5
REMARK VINA RESULT:    -6.203      4.924      7.309
REMARK INTER + INTRA:          -7.810
REMARK INTER:                  -7.671
REMARK INTRA:                  -0.139
REMARK UNBOUND:                -0.519
REMARK  Name = 
REMARK  3 active torsions:
REMARK  status: ('A' for Active; 'I' for Inactive)
REMARK    1  A    between atoms: C_2  and  C_4
REMARK    2  A    between atoms: N_11  and  C_12
REMARK    3  A    between atoms: C_12  and  C_13
REMARK                            x       y       z     vdW  Elec       q    Type
REMARK                         _______ _______ _______ _____ _____    ______ ____
ROOT
ATOM      1  C   UNL     1      45.574   5.080  11.740  0.00  0.00    +0.000 A 
ATOM      2  C   UNL     1      45.183   4.162  12.709  0.00  0.00    +0.000 A 
ATOM      3  N   UNL     1      45.720   4.037  13.951  0.00  0.00    +0.000 NA
ATOM      4  C   UNL     1      46.691   4.942  14.198  0.00  0.00    +0.000 A 
ATOM      5  C   UNL     1      47.148   5.935  13.333  0.00  0.00    +0.000 A 
ATOM      6  C   UNL     1      48.149   6.666  14.024  0.00  0.00    +0.000 A 
ATOM      7  C   UNL     1      48.295   6.098  15.270  0.00  0.00    +0.000 A 
ATOM      8  N   UNL     1      47.411   5.047  15.365  0.00  0.00    +0.000 N 
ATOM      9  C   UNL     1      46.570   6.009  12.056  0.00  0.00    +0.000 A 
ENDROOT
BRANCH   1  11
ATOM     10  N   UNL     1      45.686   5.380   9.332  0.00  0.00    +0.000 N 
ATOM     11  C   UNL     1      44.920   5.044  10.416  0.00  0.00    +0.000 C 
ATOM     12  O   UNL     1      43.757   4.689  10.284  0.00  0.00    +0.000 OA
ATOM     13  H   UNL     1      45.260   5.251   8.421  0.00  0.00    +0.000 HD
ATOM     14  H   UNL     1      46.693   5.445   9.371  0.00  0.00    +0.000 HD
ENDBRANCH   1  11
BRANCH   8  15
ATOM     15  C   UNL     1      47.300   4.150  16.509  0.00  0.00    +0.000 C 
BRANCH  15  16
ATOM     16  C   UNL     1      48.651   3.622  16.932  0.00  0.00    +0.000 A 
ATOM     17  C   UNL     1      49.526   4.430  17.675  0.00  0.00    +0.000 A 
ATOM     18  C   UNL     1      50.801   3.974  18.011  0.00  0.00    +0.000 A 
ATOM     19  C   UNL     1      51.206   2.700  17.619  0.00  0.00    +0.000 A 
ATOM     20 CL   UNL     1      52.793   2.153  17.995  0.00  0.00    +0.000 Cl
ATOM     21  C   UNL     1      50.336   1.870  16.914  0.00  0.00    +0.000 A 
ATOM     22  C   UNL     1      49.061   2.329  16.572  0.00  0.00    +0.000 A 
ENDBRANCH  15  16
ENDBRANCH   8  15
TORSDOF 3
ENDMDL
MODEL 6
REMARK VINA RESULT:    -6.013      2.247      3.133
REMARK INTER + INTRA:          -7.587
REMARK INTER:                  -7.300
REMARK INTRA:                  -0.287
REMARK UNBOUND:                -0.519
REMARK  Name = 
REMARK  3 active torsions:
REMARK  status: ('A' for Active; 'I' for Inactive)
REMARK    1  A    between atoms: C_2  and  C_4
REMARK    2  A    between atoms: N_11  and  C_12
REMARK    3  A    between atoms: C_12  and  C_13
REMARK                            x       y       z     vdW  Elec       q    Type
REMARK                         _______ _______ _______ _____ _____    ______ ____
ROOT
ATOM      1  C   UNL     1      48.192   7.479  13.787  0.00  0.00    +0.000 A 
ATOM      2  C   UNL     1      47.990   6.119  13.574  0.00  0.00    +0.000 A 
ATOM      3  N   UNL     1      46.938   5.563  12.919  0.00  0.00    +0.000 NA
ATOM      4  C   UNL     1      46.074   6.481  12.435  0.00  0.00    +0.000 A 
ATOM      5  C   UNL     1      46.179   7.867  12.544  0.00  0.00    +0.000 A 
ATOM      6  C   UNL     1      45.066   8.428  11.864  0.00  0.00    +0.000 A 
ATOM      7  C   UNL     1      44.306   7.386  11.379  0.00  0.00    +0.000 A 
ATOM      8  N   UNL     1      44.921   6.207  11.738  0.00  0.00    +0.000 N 
ATOM      9  C   UNL     1      47.277   8.389  13.246  0.00  0.00    +0.000 A 
ENDROOT
BRANCH   1  11
ATOM     10  N   UNL     1      50.588   7.435  14.184  0.00  0.00    +0.000 N 
ATOM     11  C   UNL     1      49.365   7.914  14.572  0.00  0.00    +0.000 C 
ATOM     12  O   UNL     1      49.259   8.700  15.503  0.00  0.00    +0.000 OA
ATOM     13  H   UNL     1      51.396   7.821  14.660  0.00  0.00    +0.000 HD
ATOM     14  H   UNL     1      50.743   6.984  13.294  0.00  0.00    +0.000 HD
ENDBRANCH   1  11
BRANCH   8  15
ATOM     15  C   UNL     1      44.394   4.875  11.465  0.00  0.00    +0.000 C 
BRANCH  15  16
ATOM     16  C   UNL     1      44.904   4.337  10.149  0.00  0.00    +0.000 A 
ATOM     17  C   UNL     1      44.652   3.005   9.784  0.00  0.00    +0.000 A 
ATOM     18  C   UNL     1      45.177   2.480   8.601  0.00  0.00    +0.000 A 
ATOM     19  C   UNL     1      45.945   3.289   7.768  0.00  0.00    +0.000 A 
ATOM     20 CL   UNL     1      46.629   2.631   6.333  0.00  0.00    +0.000 Cl
ATOM     21  C   UNL     1      46.174   4.624   8.096  0.00  0.00    +0.000 A 
ATOM     22  C   UNL     1      45.653   5.147   9.283  0.00  0.00    +0.000 A 
ENDBRANCH  15  16
ENDBRANCH   8  15
TORSDOF 3
ENDMDL
MODEL 7
REMARK VINA RESULT:    -5.910      3.811      6.494
REMARK INTER + INTRA:          -7.465
REMARK INTER:                  -6.927
REMARK INTRA:                  -0.538
REMARK UNBOUND:                -0.519
REMARK  Name = 
REMARK  3 active torsions:
REMARK  status: ('A' for Active; 'I' for Inactive)
REMARK    1  A    between atoms: C_2  and  C_4
REMARK    2  A    between atoms: N_11  and  C_12
REMARK    3  A    between atoms: C_12  and  C_13
REMARK                            x       y       z     vdW  Elec       q    Type
REMARK                         _______ _______ _______ _____ _____    ______ ____
ROOT
ATOM      1  C   UNL     1      44.469   4.146  11.553  0.00  0.00    +0.000 A 
ATOM      2  C   UNL     1      45.517   4.107  12.467  0.00  0.00    +0.000 A 
ATOM      3  N   UNL     1      46.196   5.182  12.946  0.00  0.00    +0.000 NA
ATOM      4  C   UNL     1      45.730   6.356  12.467  0.00  0.00    +0.000 A 
ATOM      5  C   UNL     1      44.668   6.535  11.582  0.00  0.00    +0.000 A 
ATOM      6  C   UNL     1      44.518   7.932  11.384  0.00  0.00    +0.000 A 
ATOM      7  C   UNL     1      45.491   8.565  12.126  0.00  0.00    +0.000 A 
ATOM      8  N   UNL     1      46.228   7.600  12.774  0.00  0.00    +0.000 N 
ATOM      9  C   UNL     1      44.011   5.390  11.105  0.00  0.00    +0.000 A 
ENDROOT
BRANCH   1  11
ATOM     10  N   UNL     1      44.459   2.266  10.013  0.00  0.00    +0.000 N 
ATOM     11  C   UNL     1      43.875   2.874  11.092  0.00  0.00    +0.000 C 
ATOM     12  O   UNL     1      42.926   2.362  11.671  0.00  0.00    +0.000 OA
ATOM     13  H   UNL     1      44.112   1.345   9.771  0.00  0.00    +0.000 HD
ATOM     14  H   UNL     1      45.370   2.528   9.663  0.00  0.00    +0.000 HD
ENDBRANCH   1  11
BRANCH   8  15
ATOM     15  C   UNL     1      47.392   7.862  13.612  0.00  0.00    +0.000 C 
BRANCH  15  16
ATOM     16  C   UNL     1      48.579   8.304  12.789  0.00  0.00    +0.000 A 
ATOM     17  C   UNL     1      49.298   7.370  12.025  0.00  0.00    +0.000 A 
ATOM     18  C   UNL     1      50.435   7.757  11.315  0.00  0.00    +0.000 A 
ATOM     19  C   UNL     1      50.854   9.085  11.352  0.00  0.00    +0.000 A 
ATOM     20 CL   UNL     1      52.281   9.555  10.514  0.00  0.00    +0.000 Cl
ATOM     21  C   UNL     1      50.131  10.032  12.074  0.00  0.00    +0.000 A 
ATOM     22  C   UNL     1      48.995   9.644  12.789  0.00  0.00    +0.000 A 
ENDBRANCH  15  16
ENDBRANCH   8  15
TORSDOF 3
ENDMDL
MODEL 8
REMARK VINA RESULT:    -5.707      5.083      8.092
REMARK INTER + INTRA:          -7.227
REMARK INTER:                  -6.741
REMARK INTRA:                  -0.486
REMARK UNBOUND:                -0.519
REMARK  Name = 
REMARK  3 active torsions:
REMARK  status: ('A' for Active; 'I' for Inactive)
REMARK    1  A    between atoms: C_2  and  C_4
REMARK    2  A    between atoms: N_11  and  C_12
REMARK    3  A    between atoms: C_12  and  C_13
REMARK                            x       y       z     vdW  Elec       q    Type
REMARK                         _______ _______ _______ _____ _____    ______ ____
ROOT
ATOM      1  C   UNL     1      45.414   4.304  12.344  0.00  0.00    +0.000 A 
ATOM      2  C   UNL     1      46.426   3.872  13.195  0.00  0.00    +0.000 A 
ATOM      3  N   UNL     1      47.332   4.666  13.822  0.00  0.00    +0.000 NA
ATOM      4  C   UNL     1      47.146   5.980  13.570  0.00  0.00    +0.000 A 
ATOM      5  C   UNL     1      46.152   6.545  12.773  0.00  0.00    +0.000 A 
ATOM      6  C   UNL     1      46.323   7.953  12.822  0.00  0.00    +0.000 A 
ATOM      7  C   UNL     1      47.416   8.212  13.620  0.00  0.00    +0.000 A 
ATOM      8  N   UNL     1      47.914   7.008  14.064  0.00  0.00    +0.000 N 
ATOM      9  C   UNL     1      45.251   5.678  12.134  0.00  0.00    +0.000 A 
ENDROOT
BRANCH   1  11
ATOM     10  N   UNL     1      43.811   2.487  12.520  0.00  0.00    +0.000 N 
ATOM     11  C   UNL     1      44.545   3.300  11.698  0.00  0.00    +0.000 C 
ATOM     12  O   UNL     1      44.451   3.221  10.481  0.00  0.00    +0.000 OA
ATOM     13  H   UNL     1      43.141   1.875  12.068  0.00  0.00    +0.000 HD
ATOM     14  H   UNL     1      43.682   2.675  13.503  0.00  0.00    +0.000 HD
ENDBRANCH   1  11
BRANCH   8  15
ATOM     15  C   UNL     1      49.108   6.851  14.886  0.00  0.00    +0.000 C 
BRANCH  15  16
ATOM     16  C   UNL     1      48.767   6.813  16.357  0.00  0.00    +0.000 A 
ATOM     17  C   UNL     1      48.562   5.584  17.004  0.00  0.00    +0.000 A 
ATOM     18  C   UNL     1      48.181   5.542  18.346  0.00  0.00    +0.000 A 
ATOM     19  C   UNL     1      48.017   6.729  19.055  0.00  0.00    +0.000 A 
ATOM     20 CL   UNL     1      47.504   6.681  20.697  0.00  0.00    +0.000 Cl
ATOM     21  C   UNL     1      48.254   7.957  18.439  0.00  0.00    +0.000 A 
ATOM     22  C   UNL     1      48.629   7.999  17.094  0.00  0.00    +0.000 A 
ENDBRANCH  15  16
ENDBRANCH   8  15
TORSDOF 3
ENDMDL
MODEL 9
REMARK VINA RESULT:    -5.230      4.960      6.671
REMARK INTER + INTRA:          -6.666
REMARK INTER:                  -6.140
REMARK INTRA:                  -0.526
REMARK UNBOUND:                -0.519
REMARK  Name = 
REMARK  3 active torsions:
REMARK  status: ('A' for Active; 'I' for Inactive)
REMARK    1  A    between atoms: C_2  and  C_4
REMARK    2  A    between atoms: N_11  and  C_12
REMARK    3  A    between atoms: C_12  and  C_13
REMARK                            x       y       z     vdW  Elec       q    Type
REMARK                         _______ _______ _______ _____ _____    ______ ____
ROOT
ATOM      1  C   UNL     1      48.884   6.048  18.166  0.00  0.00    +0.000 A 
ATOM      2  C   UNL     1      48.770   5.063  17.190  0.00  0.00    +0.000 A 
ATOM      3  N   UNL     1      48.603   5.276  15.859  0.00  0.00    +0.000 NA
ATOM      4  C   UNL     1      48.588   6.586  15.532  0.00  0.00    +0.000 A 
ATOM      5  C   UNL     1      48.730   7.666  16.403  0.00  0.00    +0.000 A 
ATOM      6  C   UNL     1      48.682   8.848  15.618  0.00  0.00    +0.000 A 
ATOM      7  C   UNL     1      48.492   8.469  14.307  0.00  0.00    +0.000 A 
ATOM      8  N   UNL     1      48.429   7.095  14.265  0.00  0.00    +0.000 N 
ATOM      9  C   UNL     1      48.884   7.390  17.771  0.00  0.00    +0.000 A 
ENDROOT
BRANCH   1  11
ATOM     10  N   UNL     1      48.288   4.548  19.981  0.00  0.00    +0.000 N 
ATOM     11  C   UNL     1      49.005   5.643  19.581  0.00  0.00    +0.000 C 
ATOM     12  O   UNL     1      49.746   6.232  20.356  0.00  0.00    +0.000 OA
ATOM     13  H   UNL     1      48.459   4.215  20.923  0.00  0.00    +0.000 HD
ATOM     14  H   UNL     1      47.861   3.904  19.330  0.00  0.00    +0.000 HD
ENDBRANCH   1  11
BRANCH   8  15
ATOM     15  C   UNL     1      48.174   6.307  13.064  0.00  0.00    +0.000 C 
BRANCH  15  16
ATOM     16  C   UNL     1      46.694   6.130  12.822  0.00  0.00    +0.000 A 
ATOM     17  C   UNL     1      46.006   5.050  13.397  0.00  0.00    +0.000 A 
ATOM     18  C   UNL     1      44.654   4.841  13.124  0.00  0.00    +0.000 A 
ATOM     19  C   UNL     1      43.975   5.720  12.284  0.00  0.00    +0.000 A 
ATOM     20 CL   UNL     1      42.319   5.438  11.910  0.00  0.00    +0.000 Cl
ATOM     21  C   UNL     1      44.632   6.819  11.734  0.00  0.00    +0.000 A 
ATOM     22  C   UNL     1      45.988   7.025  12.003  0.00  0.00    +0.000 A 
ENDBRANCH  15  16
ENDBRANCH   8  15
TORSDOF 3
ENDMDL
