MODEL 1
REMARK VINA RESULT:    -7.956      0.000      0.000
REMARK INTER + INTRA:         -10.181
REMARK INTER:                 -10.048
REMARK INTRA:                  -0.133
REMARK UNBOUND:                -0.133
REMARK  Name = 
REMARK  5 active torsions:
REMARK  status: ('A' for Active; 'I' for Inactive)
REMARK    1  A    between atoms: N_1  and  C_2
REMARK    2  A    between atoms: C_2  and  C_3
REMARK    3  A    between atoms: C_5  and  C_6
REMARK    4  A    between atoms: C_6  and  C_7
REMARK    5  A    between atoms: C_13  and  C_14
REMARK                            x       y       z     vdW  Elec       q    Type
REMARK                         _______ _______ _______ _____ _____    ______ ____
ROOT
ATOM      1  C   UNL     1      44.403   4.130  10.758  0.00  0.00    +0.000 A 
ATOM      2  C   UNL     1      43.756   3.211  11.559  0.00  0.00    +0.000 A 
ATOM      3  N   UNL     1      44.222   3.344  12.842  0.00  0.00    +0.000 N 
ATOM      4  C   UNL     1      45.226   4.280  12.882  0.00  0.00    +0.000 A 
ATOM      5  C   UNL     1      46.013   4.701  13.954  0.00  0.00    +0.000 A 
ATOM      6  C   UNL     1      46.983   5.672  13.690  0.00  0.00    +0.000 A 
ATOM      7  C   UNL     1      47.150   6.215  12.408  0.00  0.00    +0.000 A 
ATOM      8  C   UNL     1      46.331   5.784  11.353  0.00  0.00    +0.000 A 
ATOM      9  C   UNL     1      45.358   4.794  11.593  0.00  0.00    +0.000 A 
ATOM     10  H   UNL     1      43.896   2.817  13.641  0.00  0.00    +0.000 HD
ENDROOT
BRANCH   7  11
ATOM     11  C   UNL     1      48.215   7.241  12.230  0.00  0.00    +0.000 C 
ATOM     12  N   UNL     1      49.505   6.918  12.565  0.00  0.00    +0.000 N 
ATOM     13  O   UNL     1      47.968   8.357  11.799  0.00  0.00    +0.000 OA
ATOM     14  H   UNL     1      49.812   6.034  12.935  0.00  0.00    +0.000 HD
ATOM     15  H   UNL     1      50.197   7.644  12.435  0.00  0.00    +0.000 HD
ENDBRANCH   7  11
BRANCH   1  16
ATOM     16  C   UNL     1      44.161   4.409   9.304  0.00  0.00    +0.000 C 
BRANCH  16  19
ATOM     17  C   UNL     1      46.511   2.411   7.180  0.00  0.00    +0.000 C 
ATOM     18  C   UNL     1      45.915   3.744   7.584  0.00  0.00    +0.000 C 
ATOM     19  C   UNL     1      44.697   3.320   8.373  0.00  0.00    +0.000 C 
ATOM     20  C   UNL     1      45.236   2.096   9.110  0.00  0.00    +0.000 C 
ATOM     21  O   UNL     1      46.257   1.511   8.279  0.00  0.00    +0.000 OA
BRANCH  17  22
ATOM     22  C   UNL     1      48.014   2.518   6.865  0.00  0.00    +0.000 C 
BRANCH  22  23
ATOM     23  N   UNL     1      48.388   1.741   5.671  0.00  0.00    +0.000 NA
ATOM     24  H   UNL     1      47.630   1.807   4.995  0.00  0.00    +0.000 HD
ATOM     25  H   UNL     1      48.461   0.759   5.937  0.00  0.00    +0.000 HD
ENDBRANCH  22  23
ENDBRANCH  17  22
ENDBRANCH  16  19
ENDBRANCH   1  16
TORSDOF 5
ENDMDL
MODEL 2
REMARK VINA RESULT:    -7.238      1.660      5.890
REMARK INTER + INTRA:          -9.275
REMARK INTER:                  -8.716
REMARK INTRA:                  -0.560
REMARK UNBOUND:                -0.133
REMARK  Name = 
REMARK  5 active torsions:
REMARK  status: ('A' for Active; 'I' for Inactive)
REMARK    1  A    between atoms: N_1  and  C_2
REMARK    2  A    between atoms: C_2  and  C_3
REMARK    3  A    between atoms: C_5  and  C_6
REMARK    4  A    between atoms: C_6  and  C_7
REMARK    5  A    between atoms: C_13  and  C_14
REMARK                            x       y       z     vdW  Elec       q    Type
REMARK                         _______ _______ _______ _____ _____    ______ ____
ROOT
ATOM      1  C   UNL     1      43.967   5.346  11.281  0.00  0.00    +0.000 A 
ATOM      2  C   UNL     1      43.051   4.663  12.054  0.00  0.00    +0.000 A 
ATOM      3  N   UNL     1      43.038   3.349  11.660  0.00  0.00    +0.000 N 
ATOM      4  C   UNL     1      43.872   3.174  10.584  0.00  0.00    +0.000 A 
ATOM      5  C   UNL     1      44.133   2.028   9.833  0.00  0.00    +0.000 A 
ATOM      6  C   UNL     1      45.030   2.153   8.767  0.00  0.00    +0.000 A 
ATOM      7  C   UNL     1      45.656   3.373   8.474  0.00  0.00    +0.000 A 
ATOM      8  C   UNL     1      45.386   4.505   9.259  0.00  0.00    +0.000 A 
ATOM      9  C   UNL     1      44.473   4.405  10.327  0.00  0.00    +0.000 A 
ATOM     10  H   UNL     1      42.481   2.617  12.081  0.00  0.00    +0.000 HD
ENDROOT
BRANCH   7  11
ATOM     11  C   UNL     1      46.591   3.404   7.315  0.00  0.00    +0.000 C 
ATOM     12  N   UNL     1      47.460   2.358   7.141  0.00  0.00    +0.000 N 
ATOM     13  O   UNL     1      46.604   4.334   6.523  0.00  0.00    +0.000 OA
ATOM     14  H   UNL     1      47.536   1.551   7.738  0.00  0.00    +0.000 HD
ATOM     15  H   UNL     1      48.082   2.420   6.346  0.00  0.00    +0.000 HD
ENDBRANCH   7  11
BRANCH   1  16
ATOM     16  C   UNL     1      44.383   6.782  11.406  0.00  0.00    +0.000 C 
BRANCH  16  19
ATOM     17  C   UNL     1      47.501   7.221  13.432  0.00  0.00    +0.000 C 
ATOM     18  C   UNL     1      46.674   6.416  12.451  0.00  0.00    +0.000 C 
ATOM     19  C   UNL     1      45.309   7.051  12.593  0.00  0.00    +0.000 C 
ATOM     20  C   UNL     1      45.685   8.521  12.755  0.00  0.00    +0.000 C 
ATOM     21  O   UNL     1      46.980   8.566  13.384  0.00  0.00    +0.000 OA
BRANCH  17  22
ATOM     22  C   UNL     1      49.004   7.178  13.097  0.00  0.00    +0.000 C 
BRANCH  22  23
ATOM     23  N   UNL     1      49.832   6.933  14.290  0.00  0.00    +0.000 NA
ATOM     24  H   UNL     1      49.606   6.009  14.653  0.00  0.00    +0.000 HD
ATOM     25  H   UNL     1      49.568   7.605  15.009  0.00  0.00    +0.000 HD
ENDBRANCH  22  23
ENDBRANCH  17  22
ENDBRANCH  16  19
ENDBRANCH   1  16
TORSDOF 5
ENDMDL
MODEL 3
REMARK VINA RESULT:    -7.221      1.827      2.143
REMARK INTER + INTRA:          -9.253
REMARK INTER:                  -8.724
REMARK INTRA:                  -0.530
REMARK UNBOUND:                -0.133
REMARK  Name = 
REMARK  5 active torsions:
REMARK  status: ('A' for Active; 'I' for Inactive)
REMARK    1  A    between atoms: N_1  and  C_2
REMARK    2  A    between atoms: C_2  and  C_3
REMARK    3  A    between atoms: C_5  and  C_6
REMARK    4  A    between atoms: C_6  and  C_7
REMARK    5  A    between atoms: C_13  and  C_14
REMARK                            x       y       z     vdW  Elec       q    Type
REMARK                         _______ _______ _______ _____ _____    ______ ____
ROOT
ATOM      1  C   UNL     1      44.203   5.124  11.245  0.00  0.00    +0.000 A 
ATOM      2  C   UNL     1      43.089   5.907  11.022  0.00  0.00    +0.000 A 
ATOM      3  N   UNL     1      43.395   7.205  11.342  0.00  0.00    +0.000 N 
ATOM      4  C   UNL     1      44.668   7.275  11.851  0.00  0.00    +0.000 A 
ATOM      5  C   UNL     1      45.374   8.372  12.345  0.00  0.00    +0.000 A 
ATOM      6  C   UNL     1      46.668   8.138  12.819  0.00  0.00    +0.000 A 
ATOM      7  C   UNL     1      47.243   6.860  12.784  0.00  0.00    +0.000 A 
ATOM      8  C   UNL     1      46.515   5.778  12.264  0.00  0.00    +0.000 A 
ATOM      9  C   UNL     1      45.202   5.988  11.797  0.00  0.00    +0.000 A 
ATOM     10  H   UNL     1      42.772   7.995  11.243  0.00  0.00    +0.000 HD
ENDROOT
BRANCH   7  11
ATOM     11  C   UNL     1      48.626   6.714  13.318  0.00  0.00    +0.000 C 
ATOM     12  N   UNL     1      49.684   7.011  12.498  0.00  0.00    +0.000 N 
ATOM     13  O   UNL     1      48.839   6.336  14.460  0.00  0.00    +0.000 OA
ATOM     14  H   UNL     1      49.618   7.320  11.542  0.00  0.00    +0.000 HD
ATOM     15  H   UNL     1      50.606   6.893  12.896  0.00  0.00    +0.000 HD
ENDBRANCH   7  11
BRANCH   1  16
ATOM     16  C   UNL     1      44.367   3.660  10.959  0.00  0.00    +0.000 C 
BRANCH  16  19
ATOM     17  C   UNL     1      45.759   3.341   7.497  0.00  0.00    +0.000 C 
ATOM     18  C   UNL     1      45.501   4.170   8.738  0.00  0.00    +0.000 C 
ATOM     19  C   UNL     1      44.472   3.336   9.468  0.00  0.00    +0.000 C 
ATOM     20  C   UNL     1      44.983   1.925   9.183  0.00  0.00    +0.000 C 
ATOM     21  O   UNL     1      45.654   1.962   7.909  0.00  0.00    +0.000 OA
BRANCH  17  22
ATOM     22  C   UNL     1      47.130   3.647   6.868  0.00  0.00    +0.000 C 
BRANCH  22  23
ATOM     23  N   UNL     1      47.190   3.258   5.448  0.00  0.00    +0.000 NA
ATOM     24  H   UNL     1      47.428   2.269   5.397  0.00  0.00    +0.000 HD
ATOM     25  H   UNL     1      47.954   3.768   5.007  0.00  0.00    +0.000 HD
ENDBRANCH  22  23
ENDBRANCH  17  22
ENDBRANCH  16  19
ENDBRANCH   1  16
TORSDOF 5
ENDMDL
MODEL 4
REMARK VINA RESULT:    -6.769      3.371      6.941
REMARK INTER + INTRA:          -8.683
REMARK INTER:                  -8.126
REMARK INTRA:                  -0.557
REMARK UNBOUND:                -0.133
REMARK  Name = 
REMARK  5 active torsions:
REMARK  status: ('A' for Active; 'I' for Inactive)
REMARK    1  A    between atoms: N_1  and  C_2
REMARK    2  A    between atoms: C_2  and  C_3
REMARK    3  A    between atoms: C_5  and  C_6
REMARK    4  A    between atoms: C_6  and  C_7
REMARK    5  A    between atoms: C_13  and  C_14
REMARK                            x       y       z     vdW  Elec       q    Type
REMARK                         _______ _______ _______ _____ _____    ______ ____
ROOT
ATOM      1  C   UNL     1      46.539   6.858  12.677  0.00  0.00    +0.000 A 
ATOM      2  C   UNL     1      46.162   8.182  12.589  0.00  0.00    +0.000 A 
ATOM      3  N   UNL     1      44.886   8.244  12.089  0.00  0.00    +0.000 N 
ATOM      4  C   UNL     1      44.447   6.982  11.770  0.00  0.00    +0.000 A 
ATOM      5  C   UNL     1      43.243   6.574  11.196  0.00  0.00    +0.000 A 
ATOM      6  C   UNL     1      43.076   5.205  10.968  0.00  0.00    +0.000 A 
ATOM      7  C   UNL     1      44.067   4.277  11.316  0.00  0.00    +0.000 A 
ATOM      8  C   UNL     1      45.261   4.716  11.909  0.00  0.00    +0.000 A 
ATOM      9  C   UNL     1      45.458   6.093  12.132  0.00  0.00    +0.000 A 
ATOM     10  H   UNL     1      44.351   9.090  11.952  0.00  0.00    +0.000 HD
ENDROOT
BRANCH   7  11
ATOM     11  C   UNL     1      43.795   2.841  11.027  0.00  0.00    +0.000 C 
ATOM     12  N   UNL     1      44.488   2.229  10.015  0.00  0.00    +0.000 N 
ATOM     13  O   UNL     1      42.972   2.201  11.664  0.00  0.00    +0.000 OA
ATOM     14  H   UNL     1      45.178   2.666   9.427  0.00  0.00    +0.000 HD
ATOM     15  H   UNL     1      44.269   1.255   9.847  0.00  0.00    +0.000 HD
ENDBRANCH   7  11
BRANCH   1  16
ATOM     16  C   UNL     1      47.812   6.302  13.242  0.00  0.00    +0.000 C 
BRANCH  16  19
ATOM     17  C   UNL     1      47.826   4.666  16.611  0.00  0.00    +0.000 C 
ATOM     18  C   UNL     1      47.291   4.757  15.197  0.00  0.00    +0.000 C 
ATOM     19  C   UNL     1      47.780   6.120  14.760  0.00  0.00    +0.000 C 
ATOM     20  C   UNL     1      49.161   6.158  15.411  0.00  0.00    +0.000 C 
ATOM     21  O   UNL     1      49.096   5.352  16.602  0.00  0.00    +0.000 OA
BRANCH  17  22
ATOM     22  C   UNL     1      47.967   3.209  17.087  0.00  0.00    +0.000 C 
BRANCH  22  23
ATOM     23  N   UNL     1      46.730   2.706  17.710  0.00  0.00    +0.000 NA
ATOM     24  H   UNL     1      46.710   1.693  17.609  0.00  0.00    +0.000 HD
ATOM     25  H   UNL     1      45.936   3.070  17.186  0.00  0.00    +0.000 HD
ENDBRANCH  22  23
ENDBRANCH  17  22
ENDBRANCH  16  19
ENDBRANCH   1  16
TORSDOF 5
ENDMDL
MODEL 5
REMARK VINA RESULT:    -6.644      2.764      3.661
REMARK INTER + INTRA:          -8.524
REMARK INTER:                  -8.087
REMARK INTRA:                  -0.438
REMARK UNBOUND:                -0.133
REMARK  Name = 
REMARK  5 active torsions:
REMARK  status: ('A' for Active; 'I' for Inactive)
REMARK    1  A    between atoms: N_1  and  C_2
REMARK    2  A    between atoms: C_2  and  C_3
REMARK    3  A    between atoms: C_5  and  C_6
REMARK    4  A    between atoms: C_6  and  C_7
REMARK    5  A    between atoms: C_13  and  C_14
REMARK                            x       y       z     vdW  Elec       q    Type
REMARK                         _______ _______ _______ _____ _____    ______ ____
ROOT
ATOM      1  C   UNL     1      45.122   5.301  13.041  0.00  0.00    +0.000 A 
ATOM      2  C   UNL     1      46.222   4.540  13.382  0.00  0.00    +0.000 A 
ATOM      3  N   UNL     1      47.306   5.370  13.514  0.00  0.00    +0.000 N 
ATOM      4  C   UNL     1      46.953   6.656  13.184  0.00  0.00    +0.000 A 
ATOM      5  C   UNL     1      47.735   7.810  13.129  0.00  0.00    +0.000 A 
ATOM      6  C   UNL     1      47.100   8.993  12.740  0.00  0.00    +0.000 A 
ATOM      7  C   UNL     1      45.732   9.026  12.435  0.00  0.00    +0.000 A 
ATOM      8  C   UNL     1      44.968   7.852  12.516  0.00  0.00    +0.000 A 
ATOM      9  C   UNL     1      45.591   6.645  12.890  0.00  0.00    +0.000 A 
ATOM     10  H   UNL     1      48.234   5.082  13.789  0.00  0.00    +0.000 HD
ENDROOT
BRANCH   7  11
ATOM     11  C   UNL     1      45.151  10.336  12.026  0.00  0.00    +0.000 C 
ATOM     12  N   UNL     1      43.790  10.493  12.059  0.00  0.00    +0.000 N 
ATOM     13  O   UNL     1      45.855  11.266  11.660  0.00  0.00    +0.000 OA
ATOM     14  H   UNL     1      43.123   9.790  12.335  0.00  0.00    +0.000 HD
ATOM     15  H   UNL     1      43.435  11.394  11.768  0.00  0.00    +0.000 HD
ENDBRANCH   7  11
BRANCH   1  16
ATOM     16  C   UNL     1      43.704   4.839  12.874  0.00  0.00    +0.000 C 
BRANCH  16  19
ATOM     17  C   UNL     1      44.144   3.794   9.306  0.00  0.00    +0.000 C 
ATOM     18  C   UNL     1      44.228   4.855  10.384  0.00  0.00    +0.000 C 
ATOM     19  C   UNL     1      43.414   4.237  11.499  0.00  0.00    +0.000 C 
ATOM     20  C   UNL     1      43.815   2.769  11.377  0.00  0.00    +0.000 C 
ATOM     21  O   UNL     1      44.133   2.525   9.993  0.00  0.00    +0.000 OA
BRANCH  17  22
ATOM     22  C   UNL     1      45.308   3.891   8.303  0.00  0.00    +0.000 C 
BRANCH  22  23
ATOM     23  N   UNL     1      46.036   5.167   8.418  0.00  0.00    +0.000 NA
ATOM     24  H   UNL     1      46.957   5.049   7.999  0.00  0.00    +0.000 HD
ATOM     25  H   UNL     1      46.185   5.364   9.406  0.00  0.00    +0.000 HD
ENDBRANCH  22  23
ENDBRANCH  17  22
ENDBRANCH  16  19
ENDBRANCH   1  16
TORSDOF 5
ENDMDL
MODEL 6
REMARK VINA RESULT:    -6.280      3.980      8.244
REMARK INTER + INTRA:          -8.066
REMARK INTER:                  -7.671
REMARK INTRA:                  -0.395
REMARK UNBOUND:                -0.133
REMARK  Name = 
REMARK  5 active torsions:
REMARK  status: ('A' for Active; 'I' for Inactive)
REMARK    1  A    between atoms: N_1  and  C_2
REMARK    2  A    between atoms: C_2  and  C_3
REMARK    3  A    between atoms: C_5  and  C_6
REMARK    4  A    between atoms: C_6  and  C_7
REMARK    5  A    between atoms: C_13  and  C_14
REMARK                            x       y       z     vdW  Elec       q    Type
REMARK                         _______ _______ _______ _____ _____    ______ ____
ROOT
ATOM      1  C   UNL     1      47.528   5.496  14.536  0.00  0.00    +0.000 A 
ATOM      2  C   UNL     1      48.296   6.580  14.163  0.00  0.00    +0.000 A 
ATOM      3  N   UNL     1      47.831   7.055  12.963  0.00  0.00    +0.000 N 
ATOM      4  C   UNL     1      46.820   6.249  12.500  0.00  0.00    +0.000 A 
ATOM      5  C   UNL     1      46.093   6.322  11.312  0.00  0.00    +0.000 A 
ATOM      6  C   UNL     1      45.120   5.341  11.098  0.00  0.00    +0.000 A 
ATOM      7  C   UNL     1      44.871   4.336  12.043  0.00  0.00    +0.000 A 
ATOM      8  C   UNL     1      45.606   4.299  13.238  0.00  0.00    +0.000 A 
ATOM      9  C   UNL     1      46.604   5.268  13.466  0.00  0.00    +0.000 A 
ATOM     10  H   UNL     1      48.190   7.864  12.475  0.00  0.00    +0.000 HD
ENDROOT
BRANCH   7  11
ATOM     11  C   UNL     1      43.817   3.335  11.719  0.00  0.00    +0.000 C 
ATOM     12  N   UNL     1      43.723   2.203  12.486  0.00  0.00    +0.000 N 
ATOM     13  O   UNL     1      43.040   3.496  10.789  0.00  0.00    +0.000 OA
ATOM     14  H   UNL     1      44.316   1.970  13.266  0.00  0.00    +0.000 HD
ATOM     15  H   UNL     1      42.999   1.545  12.229  0.00  0.00    +0.000 HD
ENDBRANCH   7  11
BRANCH   1  16
ATOM     16  C   UNL     1      47.611   4.708  15.810  0.00  0.00    +0.000 C 
BRANCH  16  19
ATOM     17  C   UNL     1      48.778   5.689  19.230  0.00  0.00    +0.000 C 
ATOM     18  C   UNL     1      47.652   5.394  18.260  0.00  0.00    +0.000 C 
ATOM     19  C   UNL     1      48.366   5.429  16.927  0.00  0.00    +0.000 C 
ATOM     20  C   UNL     1      49.696   4.773  17.290  0.00  0.00    +0.000 C 
ATOM     21  O   UNL     1      49.956   5.068  18.676  0.00  0.00    +0.000 OA
BRANCH  17  22
ATOM     22  C   UNL     1      48.473   5.173  20.648  0.00  0.00    +0.000 C 
BRANCH  22  23
ATOM     23  N   UNL     1      48.383   3.703  20.698  0.00  0.00    +0.000 NA
ATOM     24  H   UNL     1      47.498   3.451  21.133  0.00  0.00    +0.000 HD
ATOM     25  H   UNL     1      49.121   3.357  21.309  0.00  0.00    +0.000 HD
ENDBRANCH  22  23
ENDBRANCH  17  22
ENDBRANCH  16  19
ENDBRANCH   1  16
TORSDOF 5
ENDMDL
MODEL 7
REMARK VINA RESULT:    -6.204      2.585      4.413
REMARK INTER + INTRA:          -7.969
REMARK INTER:                  -7.418
REMARK INTRA:                  -0.550
REMARK UNBOUND:                -0.133
REMARK  Name = 
REMARK  5 active torsions:
REMARK  status: ('A' for Active; 'I' for Inactive)
REMARK    1  A    between atoms: N_1  and  C_2
REMARK    2  A    between atoms: C_2  and  C_3
REMARK    3  A    between atoms: C_5  and  C_6
REMARK    4  A    between atoms: C_6  and  C_7
REMARK    5  A    between atoms: C_13  and  C_14
REMARK                            x       y       z     vdW  Elec       q    Type
REMARK                         _______ _______ _______ _____ _____    ______ ____
ROOT
ATOM      1  C   UNL     1      46.555   7.278  12.599  0.00  0.00    +0.000 A 
ATOM      2  C   UNL     1      45.579   8.209  12.885  0.00  0.00    +0.000 A 
ATOM      3  N   UNL     1      46.062   9.458  12.585  0.00  0.00    +0.000 N 
ATOM      4  C   UNL     1      47.372   9.369  12.183  0.00  0.00    +0.000 A 
ATOM      5  C   UNL     1      48.268  10.377  11.829  0.00  0.00    +0.000 A 
ATOM      6  C   UNL     1      49.562   9.985  11.473  0.00  0.00    +0.000 A 
ATOM      7  C   UNL     1      49.941   8.635  11.453  0.00  0.00    +0.000 A 
ATOM      8  C   UNL     1      49.012   7.642  11.797  0.00  0.00    +0.000 A 
ATOM      9  C   UNL     1      47.707   8.015  12.176  0.00  0.00    +0.000 A 
ATOM     10  H   UNL     1      45.544  10.321  12.667  0.00  0.00    +0.000 HD
ENDROOT
BRANCH   7  11
ATOM     11  C   UNL     1      51.344   8.322  11.064  0.00  0.00    +0.000 C 
ATOM     12  N   UNL     1      51.660   7.035  10.714  0.00  0.00    +0.000 N 
ATOM     13  O   UNL     1      52.216   9.179  11.052  0.00  0.00    +0.000 OA
ATOM     14  H   UNL     1      51.022   6.256  10.698  0.00  0.00    +0.000 HD
ATOM     15  H   UNL     1      52.625   6.862  10.462  0.00  0.00    +0.000 HD
ENDBRANCH   7  11
BRANCH   1  16
ATOM     16  C   UNL     1      46.451   5.783  12.687  0.00  0.00    +0.000 C 
BRANCH  16  19
ATOM     17  C   UNL     1      44.466   4.371   9.843  0.00  0.00    +0.000 C 
ATOM     18  C   UNL     1      45.400   5.428  10.396  0.00  0.00    +0.000 C 
ATOM     19  C   UNL     1      45.284   5.202  11.888  0.00  0.00    +0.000 C 
ATOM     20  C   UNL     1      45.199   3.679  11.948  0.00  0.00    +0.000 C 
ATOM     21  O   UNL     1      44.579   3.235  10.726  0.00  0.00    +0.000 OA
BRANCH  17  22
ATOM     22  C   UNL     1      44.806   4.000   8.388  0.00  0.00    +0.000 C 
BRANCH  22  23
ATOM     23  N   UNL     1      46.113   4.534   7.968  0.00  0.00    +0.000 NA
ATOM     24  H   UNL     1      46.842   4.007   8.445  0.00  0.00    +0.000 HD
ATOM     25  H   UNL     1      46.186   5.498   8.293  0.00  0.00    +0.000 HD
ENDBRANCH  22  23
ENDBRANCH  17  22
ENDBRANCH  16  19
ENDBRANCH   1  16
TORSDOF 5
ENDMDL
MODEL 8
REMARK VINA RESULT:    -6.168      3.628      7.344
REMARK INTER + INTRA:          -7.923
REMARK INTER:                  -7.385
REMARK INTRA:                  -0.538
REMARK UNBOUND:                -0.133
REMARK  Name = 
REMARK  5 active torsions:
REMARK  status: ('A' for Active; 'I' for Inactive)
REMARK    1  A    between atoms: N_1  and  C_2
REMARK    2  A    between atoms: C_2  and  C_3
REMARK    3  A    between atoms: C_5  and  C_6
REMARK    4  A    between atoms: C_6  and  C_7
REMARK    5  A    between atoms: C_13  and  C_14
REMARK                            x       y       z     vdW  Elec       q    Type
REMARK                         _______ _______ _______ _____ _____    ______ ____
ROOT
ATOM      1  C   UNL     1      47.732   7.264  13.506  0.00  0.00    +0.000 A 
ATOM      2  C   UNL     1      47.545   8.605  13.240  0.00  0.00    +0.000 A 
ATOM      3  N   UNL     1      46.340   8.763  12.604  0.00  0.00    +0.000 N 
ATOM      4  C   UNL     1      45.768   7.536  12.374  0.00  0.00    +0.000 A 
ATOM      5  C   UNL     1      44.578   7.214  11.721  0.00  0.00    +0.000 A 
ATOM      6  C   UNL     1      44.252   5.858  11.621  0.00  0.00    +0.000 A 
ATOM      7  C   UNL     1      45.074   4.862  12.167  0.00  0.00    +0.000 A 
ATOM      8  C   UNL     1      46.256   5.219  12.834  0.00  0.00    +0.000 A 
ATOM      9  C   UNL     1      46.613   6.578  12.932  0.00  0.00    +0.000 A 
ATOM     10  H   UNL     1      45.938   9.646  12.324  0.00  0.00    +0.000 HD
ENDROOT
BRANCH   7  11
ATOM     11  C   UNL     1      44.640   3.447  12.003  0.00  0.00    +0.000 C 
ATOM     12  N   UNL     1      44.953   2.792  10.840  0.00  0.00    +0.000 N 
ATOM     13  O   UNL     1      44.014   2.860  12.873  0.00  0.00    +0.000 OA
ATOM     14  H   UNL     1      45.455   3.185  10.061  0.00  0.00    +0.000 HD
ATOM     15  H   UNL     1      44.635   1.835  10.765  0.00  0.00    +0.000 HD
ENDBRANCH   7  11
BRANCH   1  16
ATOM     16  C   UNL     1      48.862   6.626  14.259  0.00  0.00    +0.000 C 
BRANCH  16  19
ATOM     17  C   UNL     1      48.139   4.914  17.509  0.00  0.00    +0.000 C 
ATOM     18  C   UNL     1      47.854   5.107  16.034  0.00  0.00    +0.000 C 
ATOM     19  C   UNL     1      48.565   6.410  15.743  0.00  0.00    +0.000 C 
ATOM     20  C   UNL     1      49.817   6.259  16.603  0.00  0.00    +0.000 C 
ATOM     21  O   UNL     1      49.466   5.436  17.731  0.00  0.00    +0.000 OA
BRANCH  17  22
ATOM     22  C   UNL     1      48.028   3.438  17.934  0.00  0.00    +0.000 C 
BRANCH  22  23
ATOM     23  N   UNL     1      46.695   2.877  17.650  0.00  0.00    +0.000 NA
ATOM     24  H   UNL     1      46.540   2.913  16.644  0.00  0.00    +0.000 HD
ATOM     25  H   UNL     1      45.995   3.480  18.078  0.00  0.00    +0.000 HD
ENDBRANCH  22  23
ENDBRANCH  17  22
ENDBRANCH  16  19
ENDBRANCH   1  16
TORSDOF 5
ENDMDL
MODEL 9
REMARK VINA RESULT:    -6.013      4.269      6.407
REMARK INTER + INTRA:          -7.727
REMARK INTER:                  -7.411
REMARK INTRA:                  -0.317
REMARK UNBOUND:                -0.133
REMARK  Name = 
REMARK  5 active torsions:
REMARK  status: ('A' for Active; 'I' for Inactive)
REMARK    1  A    between atoms: N_1  and  C_2
REMARK    2  A    between atoms: C_2  and  C_3
REMARK    3  A    between atoms: C_5  and  C_6
REMARK    4  A    between atoms: C_6  and  C_7
REMARK    5  A    between atoms: C_13  and  C_14
REMARK                            x       y       z     vdW  Elec       q    Type
REMARK                         _______ _______ _______ _____ _____    ______ ____
ROOT
ATOM      1  C   UNL     1      48.320   6.728  14.050  0.00  0.00    +0.000 A 
ATOM      2  C   UNL     1      49.074   7.883  14.086  0.00  0.00    +0.000 A 
ATOM      3  N   UNL     1      49.698   7.962  15.305  0.00  0.00    +0.000 N 
ATOM      4  C   UNL     1      49.300   6.918  16.103  0.00  0.00    +0.000 A 
ATOM      5  C   UNL     1      49.637   6.625  17.425  0.00  0.00    +0.000 A 
ATOM      6  C   UNL     1      49.059   5.486  17.994  0.00  0.00    +0.000 A 
ATOM      7  C   UNL     1      48.190   4.661  17.265  0.00  0.00    +0.000 A 
ATOM      8  C   UNL     1      47.884   4.973  15.931  0.00  0.00    +0.000 A 
ATOM      9  C   UNL     1      48.443   6.125  15.343  0.00  0.00    +0.000 A 
ATOM     10  H   UNL     1      50.338   8.691  15.589  0.00  0.00    +0.000 HD
ENDROOT
BRANCH   7  11
ATOM     11  C   UNL     1      47.623   3.475  17.963  0.00  0.00    +0.000 C 
ATOM     12  N   UNL     1      48.213   3.048  19.124  0.00  0.00    +0.000 N 
ATOM     13  O   UNL     1      46.652   2.875  17.527  0.00  0.00    +0.000 OA
ATOM     14  H   UNL     1      49.019   3.464  19.562  0.00  0.00    +0.000 HD
ATOM     15  H   UNL     1      47.802   2.236  19.565  0.00  0.00    +0.000 HD
ENDBRANCH   7  11
BRANCH   1  16
ATOM     16  C   UNL     1      47.535   6.181  12.894  0.00  0.00    +0.000 C 
BRANCH  16  19
ATOM     17  C   UNL     1      43.846   5.595  12.636  0.00  0.00    +0.000 C 
ATOM     18  C   UNL     1      45.047   6.502  12.466  0.00  0.00    +0.000 C 
ATOM     19  C   UNL     1      46.107   5.774  13.262  0.00  0.00    +0.000 C 
ATOM     20  C   UNL     1      45.780   4.321  12.927  0.00  0.00    +0.000 C 
ATOM     21  O   UNL     1      44.363   4.248  12.673  0.00  0.00    +0.000 OA
BRANCH  17  22
ATOM     22  C   UNL     1      42.814   5.779  11.507  0.00  0.00    +0.000 C 
BRANCH  22  23
ATOM     23  N   UNL     1      42.647   7.194  11.132  0.00  0.00    +0.000 NA
ATOM     24  H   UNL     1      42.349   7.711  11.957  0.00  0.00    +0.000 HD
ATOM     25  H   UNL     1      41.890   7.259  10.453  0.00  0.00    +0.000 HD
ENDBRANCH  22  23
ENDBRANCH  17  22
ENDBRANCH  16  19
ENDBRANCH   1  16
TORSDOF 5
ENDMDL
