MODEL 1
REMARK VINA RESULT:    -9.103      0.000      0.000
REMARK INTER + INTRA:         -13.117
REMARK INTER:                 -11.763
REMARK INTRA:                  -1.354
REMARK UNBOUND:                -1.354
REMARK  Name = 
REMARK  5 active torsions:
REMARK  status: ('A' for Active; 'I' for Inactive)
REMARK    1  A    between atoms: C_2  and  C_4
REMARK    2  A    between atoms: C_7  and  N_8
REMARK    3  A    between atoms: N_8  and  C_9
REMARK    4  A    between atoms: C_9  and  C_10
REMARK    5  A    between atoms: C_14  and  C_15
REMARK                            x       y       z     vdW  Elec       q    Type
REMARK                         _______ _______ _______ _____ _____    ______ ____
ROOT
ATOM      1  C   UNL     1      43.835   4.976  11.418  0.00  0.00    +0.000 C 
ATOM      2  C   UNL     1      42.508   5.250  12.121  0.00  0.00    +0.000 C 
ATOM      3  C   UNL     1      42.997   6.198  11.081  0.00  0.00    +0.000 C 
ENDROOT
BRANCH   1   4
ATOM      4  C   UNL     1      45.125   5.221  12.206  0.00  0.00    +0.000 A 
ATOM      5  C   UNL     1      45.588   4.297  13.154  0.00  0.00    +0.000 A 
ATOM      6  C   UNL     1      46.800   4.474  13.814  0.00  0.00    +0.000 A 
ATOM      7  C   UNL     1      47.593   5.581  13.524  0.00  0.00    +0.000 A 
ATOM      8  C   UNL     1      47.190   6.535  12.576  0.00  0.00    +0.000 A 
ATOM      9  C   UNL     1      45.936   6.348  11.960  0.00  0.00    +0.000 A 
BRANCH   8  10
ATOM     10  C   UNL     1      48.082   7.652  12.187  0.00  0.00    +0.000 A 
ATOM     11  C   UNL     1      49.418   7.408  11.813  0.00  0.00    +0.000 A 
ATOM     12  C   UNL     1      50.270   8.444  11.419  0.00  0.00    +0.000 A 
ATOM     13  C   UNL     1      49.793   9.748  11.377  0.00  0.00    +0.000 A 
ATOM     14 CL   UNL     1      50.835  11.024  10.883  0.00  0.00    +0.000 Cl
ATOM     15  C   UNL     1      48.476  10.023  11.732  0.00  0.00    +0.000 A 
ATOM     16  C   UNL     1      47.631   8.984  12.138  0.00  0.00    +0.000 A 
ENDBRANCH   8  10
ENDBRANCH   1   4
BRANCH   1  17
ATOM     17  N   UNL     1      43.834   3.770  10.570  0.00  0.00    +0.000 N 
ATOM     18  H   UNL     1      43.477   2.928  11.015  0.00  0.00    +0.000 HD
BRANCH  17  22
ATOM     19  C   UNL     1      46.556   2.732   7.495  0.00  0.00    +0.000 A 
ATOM     20  C   UNL     1      46.203   4.071   7.677  0.00  0.00    +0.000 A 
ATOM     21  C   UNL     1      45.294   4.428   8.682  0.00  0.00    +0.000 A 
ATOM     22  C   UNL     1      44.768   3.475   9.556  0.00  0.00    +0.000 A 
ATOM     23  C   UNL     1      45.090   2.127   9.324  0.00  0.00    +0.000 A 
ATOM     24  C   UNL     1      45.974   1.755   8.305  0.00  0.00    +0.000 A 
BRANCH  19  26
ATOM     25  N   UNL     1      47.501   3.029   5.271  0.00  0.00    +0.000 N 
ATOM     26  C   UNL     1      47.505   2.311   6.435  0.00  0.00    +0.000 C 
ATOM     27  O   UNL     1      48.294   1.389   6.603  0.00  0.00    +0.000 OA
ATOM     28  H   UNL     1      48.229   2.804   4.606  0.00  0.00    +0.000 HD
ATOM     29  H   UNL     1      47.074   3.940   5.205  0.00  0.00    +0.000 HD
ENDBRANCH  19  26
ENDBRANCH  17  22
ENDBRANCH   1  17
TORSDOF 5
ENDMDL
MODEL 2
REMARK VINA RESULT:    -9.024      2.720      4.102
REMARK INTER + INTRA:         -13.016
REMARK INTER:                 -12.350
REMARK INTRA:                  -0.666
REMARK UNBOUND:                -1.354
REMARK  Name = 
REMARK  5 active torsions:
REMARK  status: ('A' for Active; 'I' for Inactive)
REMARK    1  A    between atoms: C_2  and  C_4
REMARK    2  A    between atoms: C_7  and  N_8
REMARK    3  A    between atoms: N_8  and  C_9
REMARK    4  A    between atoms: C_9  and  C_10
REMARK    5  A    between atoms: C_14  and  C_15
REMARK                            x       y       z     vdW  Elec       q    Type
REMARK                         _______ _______ _______ _____ _____    ______ ____
ROOT
ATOM      1  C   UNL     1      43.941   5.033  11.452  0.00  0.00    +0.000 C 
ATOM      2  C   UNL     1      43.180   4.024  12.308  0.00  0.00    +0.000 C 
ATOM      3  C   UNL     1      42.733   5.445  12.277  0.00  0.00    +0.000 C 
ENDROOT
BRANCH   1   4
ATOM      4  C   UNL     1      45.309   5.505  11.950  0.00  0.00    +0.000 A 
ATOM      5  C   UNL     1      46.047   6.472  11.253  0.00  0.00    +0.000 A 
ATOM      6  C   UNL     1      47.253   6.964  11.743  0.00  0.00    +0.000 A 
ATOM      7  C   UNL     1      47.744   6.508  12.963  0.00  0.00    +0.000 A 
ATOM      8  C   UNL     1      47.045   5.549  13.715  0.00  0.00    +0.000 A 
ATOM      9  C   UNL     1      45.851   5.039  13.166  0.00  0.00    +0.000 A 
BRANCH   8  10
ATOM     10  C   UNL     1      47.510   5.146  15.061  0.00  0.00    +0.000 A 
ATOM     11  C   UNL     1      48.389   5.967  15.795  0.00  0.00    +0.000 A 
ATOM     12  C   UNL     1      48.820   5.617  17.078  0.00  0.00    +0.000 A 
ATOM     13  C   UNL     1      48.365   4.441  17.660  0.00  0.00    +0.000 A 
ATOM     14 CL   UNL     1      48.885   4.014  19.243  0.00  0.00    +0.000 Cl
ATOM     15  C   UNL     1      47.489   3.611  16.967  0.00  0.00    +0.000 A 
ATOM     16  C   UNL     1      47.070   3.959  15.677  0.00  0.00    +0.000 A 
ENDBRANCH   8  10
ENDBRANCH   1   4
BRANCH   1  17
ATOM     17  N   UNL     1      43.849   4.787  10.001  0.00  0.00    +0.000 N 
ATOM     18  H   UNL     1      42.915   4.857   9.607  0.00  0.00    +0.000 HD
BRANCH  17  22
ATOM     19  C   UNL     1      46.437   2.276   7.779  0.00  0.00    +0.000 A 
ATOM     20  C   UNL     1      45.568   1.711   8.716  0.00  0.00    +0.000 A 
ATOM     21  C   UNL     1      44.716   2.530   9.467  0.00  0.00    +0.000 A 
ATOM     22  C   UNL     1      44.669   3.910   9.261  0.00  0.00    +0.000 A 
ATOM     23  C   UNL     1      45.587   4.468   8.356  0.00  0.00    +0.000 A 
ATOM     24  C   UNL     1      46.464   3.662   7.621  0.00  0.00    +0.000 A 
BRANCH  19  26
ATOM     25  N   UNL     1      48.421   2.082   6.381  0.00  0.00    +0.000 N 
ATOM     26  C   UNL     1      47.364   1.445   6.971  0.00  0.00    +0.000 C 
ATOM     27  O   UNL     1      47.222   0.233   6.866  0.00  0.00    +0.000 OA
ATOM     28  H   UNL     1      49.105   1.487   5.932  0.00  0.00    +0.000 HD
ATOM     29  H   UNL     1      48.718   3.003   6.666  0.00  0.00    +0.000 HD
ENDBRANCH  19  26
ENDBRANCH  17  22
ENDBRANCH   1  17
TORSDOF 5
ENDMDL
MODEL 3
REMARK VINA RESULT:    -7.362      4.177      7.470
REMARK INTER + INTRA:         -10.868
REMARK INTER:                  -9.793
REMARK INTRA:                  -1.076
REMARK UNBOUND:                -1.354
REMARK  Name = 
REMARK  5 active torsions:
REMARK  status: ('A' for Active; 'I' for Inactive)
REMARK    1  A    between atoms: C_2  and  C_4
REMARK    2  A    between atoms: C_7  and  N_8
REMARK    3  A    between atoms: N_8  and  C_9
REMARK    4  A    between atoms: C_9  and  C_10
REMARK    5  A    between atoms: C_14  and  C_15
REMARK                            x       y       z     vdW  Elec       q    Type
REMARK                         _______ _______ _______ _____ _____    ______ ____
ROOT
ATOM      1  C   UNL     1      46.325   7.620  12.605  0.00  0.00    +0.000 C 
ATOM      2  C   UNL     1      46.520   8.994  11.969  0.00  0.00    +0.000 C 
ATOM      3  C   UNL     1      45.716   8.870  13.216  0.00  0.00    +0.000 C 
ENDROOT
BRANCH   1   4
ATOM      4  C   UNL     1      45.361   6.646  11.922  0.00  0.00    +0.000 A 
ATOM      5  C   UNL     1      43.975   6.731  12.120  0.00  0.00    +0.000 A 
ATOM      6  C   UNL     1      43.089   5.902  11.438  0.00  0.00    +0.000 A 
ATOM      7  C   UNL     1      43.573   4.974  10.521  0.00  0.00    +0.000 A 
ATOM      8  C   UNL     1      44.949   4.849  10.270  0.00  0.00    +0.000 A 
ATOM      9  C   UNL     1      45.820   5.673  11.011  0.00  0.00    +0.000 A 
BRANCH   8  10
ATOM     10  C   UNL     1      45.454   3.941   9.216  0.00  0.00    +0.000 A 
ATOM     11  C   UNL     1      46.074   4.455   8.059  0.00  0.00    +0.000 A 
ATOM     12  C   UNL     1      46.581   3.614   7.064  0.00  0.00    +0.000 A 
ATOM     13  C   UNL     1      46.491   2.237   7.215  0.00  0.00    +0.000 A 
ATOM     14 CL   UNL     1      47.123   1.200   5.997  0.00  0.00    +0.000 Cl
ATOM     15  C   UNL     1      45.892   1.695   8.349  0.00  0.00    +0.000 A 
ATOM     16  C   UNL     1      45.375   2.541   9.337  0.00  0.00    +0.000 A 
ENDBRANCH   8  10
ENDBRANCH   1   4
BRANCH   1  17
ATOM     17  N   UNL     1      47.562   7.015  13.132  0.00  0.00    +0.000 N 
ATOM     18  H   UNL     1      48.242   6.736  12.429  0.00  0.00    +0.000 HD
BRANCH  17  22
ATOM     19  C   UNL     1      47.852   4.533  16.552  0.00  0.00    +0.000 A 
ATOM     20  C   UNL     1      48.598   5.713  16.494  0.00  0.00    +0.000 A 
ATOM     21  C   UNL     1      48.522   6.537  15.364  0.00  0.00    +0.000 A 
ATOM     22  C   UNL     1      47.665   6.237  14.303  0.00  0.00    +0.000 A 
ATOM     23  C   UNL     1      46.965   5.020  14.353  0.00  0.00    +0.000 A 
ATOM     24  C   UNL     1      47.055   4.174  15.464  0.00  0.00    +0.000 A 
BRANCH  19  26
ATOM     25  N   UNL     1      46.950   2.658  17.817  0.00  0.00    +0.000 N 
ATOM     26  C   UNL     1      47.912   3.627  17.725  0.00  0.00    +0.000 C 
ATOM     27  O   UNL     1      48.807   3.705  18.559  0.00  0.00    +0.000 OA
ATOM     28  H   UNL     1      47.072   1.978  18.556  0.00  0.00    +0.000 HD
ATOM     29  H   UNL     1      46.380   2.393  17.028  0.00  0.00    +0.000 HD
ENDBRANCH  19  26
ENDBRANCH  17  22
ENDBRANCH   1  17
TORSDOF 5
ENDMDL
MODEL 4
REMARK VINA RESULT:    -6.537      5.989      8.597
REMARK INTER + INTRA:          -9.802
REMARK INTER:                  -8.853
REMARK INTRA:                  -0.949
REMARK UNBOUND:                -1.354
REMARK  Name = 
REMARK  5 active torsions:
REMARK  status: ('A' for Active; 'I' for Inactive)
REMARK    1  A    between atoms: C_2  and  C_4
REMARK    2  A    between atoms: C_7  and  N_8
REMARK    3  A    between atoms: N_8  and  C_9
REMARK    4  A    between atoms: C_9  and  C_10
REMARK    5  A    between atoms: C_14  and  C_15
REMARK                            x       y       z     vdW  Elec       q    Type
REMARK                         _______ _______ _______ _____ _____    ______ ____
ROOT
ATOM      1  C   UNL     1      48.573   5.148  17.494  0.00  0.00    +0.000 C 
ATOM      2  C   UNL     1      47.486   5.506  18.505  0.00  0.00    +0.000 C 
ATOM      3  C   UNL     1      47.420   4.203  17.787  0.00  0.00    +0.000 C 
ENDROOT
BRANCH   1   4
ATOM      4  C   UNL     1      48.553   5.862  16.141  0.00  0.00    +0.000 A 
ATOM      5  C   UNL     1      49.524   6.817  15.803  0.00  0.00    +0.000 A 
ATOM      6  C   UNL     1      49.559   7.410  14.545  0.00  0.00    +0.000 A 
ATOM      7  C   UNL     1      48.624   7.044  13.580  0.00  0.00    +0.000 A 
ATOM      8  C   UNL     1      47.635   6.085  13.852  0.00  0.00    +0.000 A 
ATOM      9  C   UNL     1      47.601   5.540  15.152  0.00  0.00    +0.000 A 
BRANCH   8  10
ATOM     10  C   UNL     1      46.712   5.616  12.794  0.00  0.00    +0.000 A 
ATOM     11  C   UNL     1      46.589   6.324  11.582  0.00  0.00    +0.000 A 
ATOM     12  C   UNL     1      45.742   5.885  10.559  0.00  0.00    +0.000 A 
ATOM     13  C   UNL     1      45.012   4.715  10.725  0.00  0.00    +0.000 A 
ATOM     14 CL   UNL     1      43.978   4.167   9.465  0.00  0.00    +0.000 Cl
ATOM     15  C   UNL     1      45.117   3.987  11.906  0.00  0.00    +0.000 A 
ATOM     16  C   UNL     1      45.956   4.438  12.932  0.00  0.00    +0.000 A 
ENDBRANCH   8  10
ENDBRANCH   1   4
BRANCH   1  17
ATOM     17  N   UNL     1      49.911   4.956  18.085  0.00  0.00    +0.000 N 
ATOM     18  H   UNL     1      50.456   5.805  18.208  0.00  0.00    +0.000 HD
BRANCH  17  22
ATOM     19  C   UNL     1      52.452   1.586  17.733  0.00  0.00    +0.000 A 
ATOM     20  C   UNL     1      51.141   1.512  17.255  0.00  0.00    +0.000 A 
ATOM     21  C   UNL     1      50.285   2.614  17.376  0.00  0.00    +0.000 A 
ATOM     22  C   UNL     1      50.730   3.822  17.917  0.00  0.00    +0.000 A 
ATOM     23  C   UNL     1      52.032   3.862  18.443  0.00  0.00    +0.000 A 
ATOM     24  C   UNL     1      52.887   2.757  18.354  0.00  0.00    +0.000 A 
BRANCH  19  26
ATOM     25  N   UNL     1      53.137  -0.641  18.438  0.00  0.00    +0.000 N 
ATOM     26  C   UNL     1      53.386   0.438  17.634  0.00  0.00    +0.000 C 
ATOM     27  O   UNL     1      54.319   0.428  16.840  0.00  0.00    +0.000 OA
ATOM     28  H   UNL     1      53.712  -1.458  18.277  0.00  0.00    +0.000 HD
ATOM     29  H   UNL     1      52.245  -0.779  18.888  0.00  0.00    +0.000 HD
ENDBRANCH  19  26
ENDBRANCH  17  22
ENDBRANCH   1  17
TORSDOF 5
ENDMDL
MODEL 5
REMARK VINA RESULT:    -6.418      4.444      6.338
REMARK INTER + INTRA:          -9.648
REMARK INTER:                  -8.555
REMARK INTRA:                  -1.093
REMARK UNBOUND:                -1.354
REMARK  Name = 
REMARK  5 active torsions:
REMARK  status: ('A' for Active; 'I' for Inactive)
REMARK    1  A    between atoms: C_2  and  C_4
REMARK    2  A    between atoms: C_7  and  N_8
REMARK    3  A    between atoms: N_8  and  C_9
REMARK    4  A    between atoms: C_9  and  C_10
REMARK    5  A    between atoms: C_14  and  C_15
REMARK                            x       y       z     vdW  Elec       q    Type
REMARK                         _______ _______ _______ _____ _____    ______ ____
ROOT
ATOM      1  C   UNL     1      47.802   7.882  13.252  0.00  0.00    +0.000 C 
ATOM      2  C   UNL     1      48.256   8.889  12.197  0.00  0.00    +0.000 C 
ATOM      3  C   UNL     1      48.722   7.477  12.112  0.00  0.00    +0.000 C 
ENDROOT
BRANCH   1   4
ATOM      4  C   UNL     1      48.431   7.976  14.645  0.00  0.00    +0.000 A 
ATOM      5  C   UNL     1      48.099   9.014  15.528  0.00  0.00    +0.000 A 
ATOM      6  C   UNL     1      48.604   9.059  16.824  0.00  0.00    +0.000 A 
ATOM      7  C   UNL     1      49.447   8.047  17.276  0.00  0.00    +0.000 A 
ATOM      8  C   UNL     1      49.806   6.975  16.443  0.00  0.00    +0.000 A 
ATOM      9  C   UNL     1      49.313   6.985  15.123  0.00  0.00    +0.000 A 
BRANCH   8  10
ATOM     10  C   UNL     1      50.611   5.843  16.958  0.00  0.00    +0.000 A 
ATOM     11  C   UNL     1      49.995   4.631  17.326  0.00  0.00    +0.000 A 
ATOM     12  C   UNL     1      50.739   3.542  17.790  0.00  0.00    +0.000 A 
ATOM     13  C   UNL     1      52.121   3.642  17.881  0.00  0.00    +0.000 A 
ATOM     14 CL   UNL     1      53.040   2.300  18.442  0.00  0.00    +0.000 Cl
ATOM     15  C   UNL     1      52.763   4.822  17.518  0.00  0.00    +0.000 A 
ATOM     16  C   UNL     1      52.012   5.914  17.065  0.00  0.00    +0.000 A 
ENDBRANCH   8  10
ENDBRANCH   1   4
BRANCH   1  17
ATOM     17  N   UNL     1      46.357   7.593  13.231  0.00  0.00    +0.000 N 
ATOM     18  H   UNL     1      45.819   8.015  13.984  0.00  0.00    +0.000 HD
BRANCH  17  22
ATOM     19  C   UNL     1      44.607   4.075  11.650  0.00  0.00    +0.000 A 
ATOM     20  C   UNL     1      45.272   4.020  12.877  0.00  0.00    +0.000 A 
ATOM     21  C   UNL     1      45.866   5.172  13.407  0.00  0.00    +0.000 A 
ATOM     22  C   UNL     1      45.762   6.405  12.759  0.00  0.00    +0.000 A 
ATOM     23  C   UNL     1      45.139   6.432  11.500  0.00  0.00    +0.000 A 
ATOM     24  C   UNL     1      44.567   5.280  10.948  0.00  0.00    +0.000 A 
BRANCH  19  26
ATOM     25  N   UNL     1      44.604   2.308   9.974  0.00  0.00    +0.000 N 
ATOM     26  C   UNL     1      43.974   2.875  11.048  0.00  0.00    +0.000 C 
ATOM     27  O   UNL     1      42.955   2.379  11.513  0.00  0.00    +0.000 OA
ATOM     28  H   UNL     1      44.226   1.428   9.649  0.00  0.00    +0.000 HD
ATOM     29  H   UNL     1      45.564   2.516   9.745  0.00  0.00    +0.000 HD
ENDBRANCH  19  26
ENDBRANCH  17  22
ENDBRANCH   1  17
TORSDOF 5
ENDMDL
MODEL 6
REMARK VINA RESULT:    -6.250      4.922      8.421
REMARK INTER + INTRA:          -9.431
REMARK INTER:                  -8.079
REMARK INTRA:                  -1.352
REMARK UNBOUND:                -1.354
REMARK  Name = 
REMARK  5 active torsions:
REMARK  status: ('A' for Active; 'I' for Inactive)
REMARK    1  A    between atoms: C_2  and  C_4
REMARK    2  A    between atoms: C_7  and  N_8
REMARK    3  A    between atoms: N_8  and  C_9
REMARK    4  A    between atoms: C_9  and  C_10
REMARK    5  A    between atoms: C_14  and  C_15
REMARK                            x       y       z     vdW  Elec       q    Type
REMARK                         _______ _______ _______ _____ _____    ______ ____
ROOT
ATOM      1  C   UNL     1      49.140   8.739  12.750  0.00  0.00    +0.000 C 
ATOM      2  C   UNL     1      50.016   8.986  11.524  0.00  0.00    +0.000 C 
ATOM      3  C   UNL     1      49.572  10.141  12.355  0.00  0.00    +0.000 C 
ENDROOT
BRANCH   1   4
ATOM      4  C   UNL     1      47.670   8.379  12.516  0.00  0.00    +0.000 A 
ATOM      5  C   UNL     1      46.645   9.311  12.737  0.00  0.00    +0.000 A 
ATOM      6  C   UNL     1      45.316   9.017  12.449  0.00  0.00    +0.000 A 
ATOM      7  C   UNL     1      44.981   7.778  11.911  0.00  0.00    +0.000 A 
ATOM      8  C   UNL     1      45.963   6.806  11.655  0.00  0.00    +0.000 A 
ATOM      9  C   UNL     1      47.292   7.122  12.002  0.00  0.00    +0.000 A 
BRANCH   8  10
ATOM     10  C   UNL     1      45.622   5.533  10.981  0.00  0.00    +0.000 A 
ATOM     11  C   UNL     1      45.182   4.421  11.725  0.00  0.00    +0.000 A 
ATOM     12  C   UNL     1      44.831   3.217  11.107  0.00  0.00    +0.000 A 
ATOM     13  C   UNL     1      44.899   3.109   9.724  0.00  0.00    +0.000 A 
ATOM     14 CL   UNL     1      44.458   1.633   8.959  0.00  0.00    +0.000 Cl
ATOM     15  C   UNL     1      45.322   4.191   8.958  0.00  0.00    +0.000 A 
ATOM     16  C   UNL     1      45.684   5.390   9.583  0.00  0.00    +0.000 A 
ENDBRANCH   8  10
ENDBRANCH   1   4
BRANCH   1  17
ATOM     17  N   UNL     1      49.807   7.990  13.831  0.00  0.00    +0.000 N 
ATOM     18  H   UNL     1      50.449   7.264  13.523  0.00  0.00    +0.000 HD
BRANCH  17  22
ATOM     19  C   UNL     1      48.251   6.989  17.641  0.00  0.00    +0.000 A 
ATOM     20  C   UNL     1      48.455   8.332  17.313  0.00  0.00    +0.000 A 
ATOM     21  C   UNL     1      48.981   8.677  16.061  0.00  0.00    +0.000 A 
ATOM     22  C   UNL     1      49.257   7.706  15.097  0.00  0.00    +0.000 A 
ATOM     23  C   UNL     1      49.099   6.358  15.462  0.00  0.00    +0.000 A 
ATOM     24  C   UNL     1      48.601   6.000  16.721  0.00  0.00    +0.000 A 
BRANCH  19  26
ATOM     25  N   UNL     1      46.676   5.680  18.958  0.00  0.00    +0.000 N 
ATOM     26  C   UNL     1      47.707   6.580  18.959  0.00  0.00    +0.000 C 
ATOM     27  O   UNL     1      48.182   6.990  20.011  0.00  0.00    +0.000 OA
ATOM     28  H   UNL     1      46.395   5.324  19.862  0.00  0.00    +0.000 HD
ATOM     29  H   UNL     1      46.451   5.125  18.147  0.00  0.00    +0.000 HD
ENDBRANCH  19  26
ENDBRANCH  17  22
ENDBRANCH   1  17
TORSDOF 5
ENDMDL
MODEL 7
REMARK VINA RESULT:    -6.208      3.775      6.896
REMARK INTER + INTRA:          -9.377
REMARK INTER:                  -8.193
REMARK INTRA:                  -1.184
REMARK UNBOUND:                -1.354
REMARK  Name = 
REMARK  5 active torsions:
REMARK  status: ('A' for Active; 'I' for Inactive)
REMARK    1  A    between atoms: C_2  and  C_4
REMARK    2  A    between atoms: C_7  and  N_8
REMARK    3  A    between atoms: N_8  and  C_9
REMARK    4  A    between atoms: C_9  and  C_10
REMARK    5  A    between atoms: C_14  and  C_15
REMARK                            x       y       z     vdW  Elec       q    Type
REMARK                         _______ _______ _______ _____ _____    ______ ____
ROOT
ATOM      1  C   UNL     1      46.353   4.854  13.936  0.00  0.00    +0.000 C 
ATOM      2  C   UNL     1      46.181   4.188  15.299  0.00  0.00    +0.000 C 
ATOM      3  C   UNL     1      47.312   3.779  14.420  0.00  0.00    +0.000 C 
ENDROOT
BRANCH   1   4
ATOM      4  C   UNL     1      45.382   4.460  12.821  0.00  0.00    +0.000 A 
ATOM      5  C   UNL     1      43.998   4.650  12.956  0.00  0.00    +0.000 A 
ATOM      6  C   UNL     1      43.118   4.369  11.915  0.00  0.00    +0.000 A 
ATOM      7  C   UNL     1      43.608   3.905  10.698  0.00  0.00    +0.000 A 
ATOM      8  C   UNL     1      44.984   3.705  10.497  0.00  0.00    +0.000 A 
ATOM      9  C   UNL     1      45.841   3.956  11.587  0.00  0.00    +0.000 A 
BRANCH   8  10
ATOM     10  C   UNL     1      45.514   3.318   9.170  0.00  0.00    +0.000 A 
ATOM     11  C   UNL     1      45.865   4.299   8.221  0.00  0.00    +0.000 A 
ATOM     12  C   UNL     1      46.391   3.956   6.972  0.00  0.00    +0.000 A 
ATOM     13  C   UNL     1      46.592   2.619   6.654  0.00  0.00    +0.000 A 
ATOM     14 CL   UNL     1      47.248   2.194   5.122  0.00  0.00    +0.000 Cl
ATOM     15  C   UNL     1      46.264   1.625   7.571  0.00  0.00    +0.000 A 
ATOM     16  C   UNL     1      45.726   1.973   8.815  0.00  0.00    +0.000 A 
ENDBRANCH   8  10
ENDBRANCH   1   4
BRANCH   1  17
ATOM     17  N   UNL     1      46.689   6.288  14.001  0.00  0.00    +0.000 N 
ATOM     18  H   UNL     1      45.893   6.917  14.074  0.00  0.00    +0.000 HD
BRANCH  17  22
ATOM     19  C   UNL     1      50.110   8.057  12.237  0.00  0.00    +0.000 A 
ATOM     20  C   UNL     1      49.015   7.727  11.434  0.00  0.00    +0.000 A 
ATOM     21  C   UNL     1      47.882   7.130  12.001  0.00  0.00    +0.000 A 
ATOM     22  C   UNL     1      47.792   6.905  13.376  0.00  0.00    +0.000 A 
ATOM     23  C   UNL     1      48.922   7.191  14.161  0.00  0.00    +0.000 A 
ATOM     24  C   UNL     1      50.072   7.760  13.600  0.00  0.00    +0.000 A 
BRANCH  19  26
ATOM     25  N   UNL     1      52.509   7.995  11.825  0.00  0.00    +0.000 N 
ATOM     26  C   UNL     1      51.334   8.679  11.674  0.00  0.00    +0.000 C 
ATOM     27  O   UNL     1      51.297   9.738  11.061  0.00  0.00    +0.000 OA
ATOM     28  H   UNL     1      53.311   8.373  11.338  0.00  0.00    +0.000 HD
ATOM     29  H   UNL     1      52.531   7.017  12.072  0.00  0.00    +0.000 HD
ENDBRANCH  19  26
ENDBRANCH  17  22
ENDBRANCH   1  17
TORSDOF 5
ENDMDL
