MODEL 1
REMARK VINA RESULT:    -8.470      0.000      0.000
REMARK INTER + INTRA:          -9.322
REMARK INTER:                  -9.956
REMARK INTRA:                   0.634
REMARK UNBOUND:                 0.634
REMARK  Name = 
REMARK  3 active torsions:
REMARK  status: ('A' for Active; 'I' for Inactive)
REMARK    1  A    between atoms: C_2  and  C_4
REMARK    2  A    between atoms: N_8  and  C_9
REMARK    3  A    between atoms: C_9  and  C_10
REMARK                            x       y       z     vdW  Elec       q    Type
REMARK                         _______ _______ _______ _____ _____    ______ ____
ROOT
ATOM      1  C   UNL     1      46.340   2.129   7.891  0.00  0.00    +0.000 A 
ATOM      2  C   UNL     1      46.399   3.422   7.384  0.00  0.00    +0.000 A 
ATOM      3  C   UNL     1      45.677   4.426   8.026  0.00  0.00    +0.000 A 
ATOM      4  C   UNL     1      44.929   4.132   9.172  0.00  0.00    +0.000 A 
ATOM      5  N   UNL     1      44.304   5.224   9.810  0.00  0.00    +0.000 N 
ATOM      6  N   UNL     1      44.859   2.878   9.662  0.00  0.00    +0.000 NA
ATOM      7  C   UNL     1      45.541   1.904   9.003  0.00  0.00    +0.000 A 
ATOM      8  H   UNL     1      43.698   5.711   9.159  0.00  0.00    +0.000 HD
ENDROOT
BRANCH   1  10
ATOM      9  N   UNL     1      46.727  -0.260   7.679  0.00  0.00    +0.000 N 
ATOM     10  C   UNL     1      47.086   1.002   7.290  0.00  0.00    +0.000 C 
ATOM     11  O   UNL     1      47.961   1.185   6.456  0.00  0.00    +0.000 OA
ATOM     12  H   UNL     1      47.164  -1.025   7.180  0.00  0.00    +0.000 HD
ATOM     13  H   UNL     1      45.859  -0.455   8.156  0.00  0.00    +0.000 HD
ENDBRANCH   1  10
BRANCH   5  14
ATOM     14  C   UNL     1      43.890   5.208  11.231  0.00  0.00    +0.000 C 
ATOM     15  C   UNL     1      42.971   4.040  11.572  0.00  0.00    +0.000 C 
ATOM     16  C   UNL     1      42.451   5.437  11.657  0.00  0.00    +0.000 C 
BRANCH  14  17
ATOM     17  C   UNL     1      44.957   5.587  12.263  0.00  0.00    +0.000 C 
ATOM     18  C   UNL     1      45.913   6.663  11.727  0.00  0.00    +0.000 C 
ATOM     19  C   UNL     1      46.938   7.070  12.784  0.00  0.00    +0.000 C 
ATOM     20  C   UNL     1      47.709   5.866  13.318  0.00  0.00    +0.000 C 
ATOM     21  C   UNL     1      46.772   4.773  13.827  0.00  0.00    +0.000 C 
ATOM     22  C   UNL     1      45.746   4.367  12.769  0.00  0.00    +0.000 C 
ENDBRANCH  14  17
ENDBRANCH   5  14
TORSDOF 3
ENDMDL
MODEL 2
REMARK VINA RESULT:    -7.886      3.395      6.125
REMARK INTER + INTRA:          -8.636
REMARK INTER:                  -8.088
REMARK INTRA:                  -0.548
REMARK UNBOUND:                 0.634
REMARK  Name = 
REMARK  3 active torsions:
REMARK  status: ('A' for Active; 'I' for Inactive)
REMARK    1  A    between atoms: C_2  and  C_4
REMARK    2  A    between atoms: N_8  and  C_9
REMARK    3  A    between atoms: C_9  and  C_10
REMARK                            x       y       z     vdW  Elec       q    Type
REMARK                         _______ _______ _______ _____ _____    ______ ____
ROOT
ATOM      1  C   UNL     1      47.373   4.551  15.087  0.00  0.00    +0.000 A 
ATOM      2  C   UNL     1      47.488   5.847  14.598  0.00  0.00    +0.000 A 
ATOM      3  C   UNL     1      46.869   6.165  13.391  0.00  0.00    +0.000 A 
ATOM      4  C   UNL     1      46.128   5.196  12.704  0.00  0.00    +0.000 A 
ATOM      5  N   UNL     1      45.459   5.627  11.539  0.00  0.00    +0.000 N 
ATOM      6  N   UNL     1      46.022   3.934  13.166  0.00  0.00    +0.000 NA
ATOM      7  C   UNL     1      46.662   3.632  14.328  0.00  0.00    +0.000 A 
ATOM      8  H   UNL     1      46.119   6.036  10.887  0.00  0.00    +0.000 HD
ENDROOT
BRANCH   1  10
ATOM      9  N   UNL     1      47.241   3.283  17.155  0.00  0.00    +0.000 N 
ATOM     10  C   UNL     1      47.979   4.124  16.367  0.00  0.00    +0.000 C 
ATOM     11  O   UNL     1      49.103   4.476  16.693  0.00  0.00    +0.000 OA
ATOM     12  H   UNL     1      47.709   2.908  17.971  0.00  0.00    +0.000 HD
ATOM     13  H   UNL     1      46.439   2.778  16.808  0.00  0.00    +0.000 HD
ENDBRANCH   1  10
BRANCH   5  14
ATOM     14  C   UNL     1      44.292   4.924  10.962  0.00  0.00    +0.000 C 
ATOM     15  C   UNL     1      43.018   5.761  10.989  0.00  0.00    +0.000 C 
ATOM     16  C   UNL     1      43.098   4.513  11.805  0.00  0.00    +0.000 C 
BRANCH  14  17
ATOM     17  C   UNL     1      44.548   4.074   9.713  0.00  0.00    +0.000 C 
ATOM     18  C   UNL     1      44.798   2.601  10.066  0.00  0.00    +0.000 C 
ATOM     19  C   UNL     1      44.998   1.756   8.809  0.00  0.00    +0.000 C 
ATOM     20  C   UNL     1      46.116   2.309   7.928  0.00  0.00    +0.000 C 
ATOM     21  C   UNL     1      45.898   3.783   7.593  0.00  0.00    +0.000 C 
ATOM     22  C   UNL     1      45.696   4.626   8.851  0.00  0.00    +0.000 C 
ENDBRANCH  14  17
ENDBRANCH   5  14
TORSDOF 3
ENDMDL
MODEL 3
REMARK VINA RESULT:    -7.870      3.281      6.212
REMARK INTER + INTRA:          -8.616
REMARK INTER:                  -8.155
REMARK INTRA:                  -0.461
REMARK UNBOUND:                 0.634
REMARK  Name = 
REMARK  3 active torsions:
REMARK  status: ('A' for Active; 'I' for Inactive)
REMARK    1  A    between atoms: C_2  and  C_4
REMARK    2  A    between atoms: N_8  and  C_9
REMARK    3  A    between atoms: C_9  and  C_10
REMARK                            x       y       z     vdW  Elec       q    Type
REMARK                         _______ _______ _______ _____ _____    ______ ____
ROOT
ATOM      1  C   UNL     1      47.902   6.861  13.977  0.00  0.00    +0.000 A 
ATOM      2  C   UNL     1      47.371   7.978  13.343  0.00  0.00    +0.000 A 
ATOM      3  C   UNL     1      46.400   7.794  12.361  0.00  0.00    +0.000 A 
ATOM      4  C   UNL     1      45.958   6.504  12.043  0.00  0.00    +0.000 A 
ATOM      5  N   UNL     1      44.908   6.415  11.105  0.00  0.00    +0.000 N 
ATOM      6  N   UNL     1      46.475   5.416  12.646  0.00  0.00    +0.000 NA
ATOM      7  C   UNL     1      47.447   5.611  13.577  0.00  0.00    +0.000 A 
ATOM      8  H   UNL     1      45.170   6.877  10.241  0.00  0.00    +0.000 HD
ENDROOT
BRANCH   1  10
ATOM      9  N   UNL     1      48.473   6.964  16.336  0.00  0.00    +0.000 N 
ATOM     10  C   UNL     1      48.922   6.957  15.043  0.00  0.00    +0.000 C 
ATOM     11  O   UNL     1      50.117   6.994  14.786  0.00  0.00    +0.000 OA
ATOM     12  H   UNL     1      49.182   6.915  17.057  0.00  0.00    +0.000 HD
ATOM     13  H   UNL     1      47.536   6.681  16.587  0.00  0.00    +0.000 HD
ENDBRANCH   1  10
BRANCH   5  14
ATOM     14  C   UNL     1      44.010   5.244  10.996  0.00  0.00    +0.000 C 
ATOM     15  C   UNL     1      42.557   5.574  11.320  0.00  0.00    +0.000 C 
ATOM     16  C   UNL     1      43.317   4.641  12.204  0.00  0.00    +0.000 C 
BRANCH  14  17
ATOM     17  C   UNL     1      44.269   4.284   9.830  0.00  0.00    +0.000 C 
ATOM     18  C   UNL     1      44.422   2.833  10.309  0.00  0.00    +0.000 C 
ATOM     19  C   UNL     1      44.626   1.879   9.132  0.00  0.00    +0.000 C 
ATOM     20  C   UNL     1      45.808   2.300   8.262  0.00  0.00    +0.000 C 
ATOM     21  C   UNL     1      45.686   3.750   7.802  0.00  0.00    +0.000 C 
ATOM     22  C   UNL     1      45.481   4.703   8.980  0.00  0.00    +0.000 C 
ENDBRANCH  14  17
ENDBRANCH   5  14
TORSDOF 3
ENDMDL
MODEL 4
REMARK VINA RESULT:    -7.503      1.388      1.740
REMARK INTER + INTRA:          -8.185
REMARK INTER:                  -7.553
REMARK INTRA:                  -0.632
REMARK UNBOUND:                 0.634
REMARK  Name = 
REMARK  3 active torsions:
REMARK  status: ('A' for Active; 'I' for Inactive)
REMARK    1  A    between atoms: C_2  and  C_4
REMARK    2  A    between atoms: N_8  and  C_9
REMARK    3  A    between atoms: C_9  and  C_10
REMARK                            x       y       z     vdW  Elec       q    Type
REMARK                         _______ _______ _______ _____ _____    ______ ____
ROOT
ATOM      1  C   UNL     1      46.431   2.937   7.388  0.00  0.00    +0.000 A 
ATOM      2  C   UNL     1      45.784   1.891   8.037  0.00  0.00    +0.000 A 
ATOM      3  C   UNL     1      45.203   2.131   9.280  0.00  0.00    +0.000 A 
ATOM      4  C   UNL     1      45.255   3.410   9.845  0.00  0.00    +0.000 A 
ATOM      5  N   UNL     1      44.562   3.587  11.062  0.00  0.00    +0.000 N 
ATOM      6  N   UNL     1      45.889   4.426   9.227  0.00  0.00    +0.000 NA
ATOM      7  C   UNL     1      46.482   4.166   8.031  0.00  0.00    +0.000 A 
ATOM      8  H   UNL     1      44.896   2.925  11.754  0.00  0.00    +0.000 HD
ENDROOT
BRANCH   1  10
ATOM      9  N   UNL     1      48.404   2.524   6.032  0.00  0.00    +0.000 N 
ATOM     10  C   UNL     1      47.060   2.784   6.059  0.00  0.00    +0.000 C 
ATOM     11  O   UNL     1      46.406   2.852   5.028  0.00  0.00    +0.000 OA
ATOM     12  H   UNL     1      48.801   2.310   5.125  0.00  0.00    +0.000 HD
ATOM     13  H   UNL     1      48.913   2.212   6.846  0.00  0.00    +0.000 HD
ENDBRANCH   1  10
BRANCH   5  14
ATOM     14  C   UNL     1      44.106   4.905  11.555  0.00  0.00    +0.000 C 
ATOM     15  C   UNL     1      42.631   4.919  11.944  0.00  0.00    +0.000 C 
ATOM     16  C   UNL     1      43.100   5.749  10.795  0.00  0.00    +0.000 C 
BRANCH  14  17
ATOM     17  C   UNL     1      45.077   5.677  12.456  0.00  0.00    +0.000 C 
ATOM     18  C   UNL     1      45.695   6.880  11.728  0.00  0.00    +0.000 C 
ATOM     19  C   UNL     1      46.619   7.671  12.652  0.00  0.00    +0.000 C 
ATOM     20  C   UNL     1      47.699   6.785  13.267  0.00  0.00    +0.000 C 
ATOM     21  C   UNL     1      47.102   5.567  13.968  0.00  0.00    +0.000 C 
ATOM     22  C   UNL     1      46.177   4.777  13.043  0.00  0.00    +0.000 C 
ENDBRANCH  14  17
ENDBRANCH   5  14
TORSDOF 3
ENDMDL
MODEL 5
REMARK VINA RESULT:    -6.389      3.616      5.598
REMARK INTER + INTRA:          -6.876
REMARK INTER:                  -6.225
REMARK INTRA:                  -0.651
REMARK UNBOUND:                 0.634
REMARK  Name = 
REMARK  3 active torsions:
REMARK  status: ('A' for Active; 'I' for Inactive)
REMARK    1  A    between atoms: C_2  and  C_4
REMARK    2  A    between atoms: N_8  and  C_9
REMARK    3  A    between atoms: C_9  and  C_10
REMARK                            x       y       z     vdW  Elec       q    Type
REMARK                         _______ _______ _______ _____ _____    ______ ____
ROOT
ATOM      1  C   UNL     1      44.753   4.853  11.969  0.00  0.00    +0.000 A 
ATOM      2  C   UNL     1      44.347   6.065  11.422  0.00  0.00    +0.000 A 
ATOM      3  C   UNL     1      45.146   7.189  11.616  0.00  0.00    +0.000 A 
ATOM      4  C   UNL     1      46.345   7.085  12.329  0.00  0.00    +0.000 A 
ATOM      5  N   UNL     1      47.137   8.250  12.400  0.00  0.00    +0.000 N 
ATOM      6  N   UNL     1      46.740   5.916  12.872  0.00  0.00    +0.000 NA
ATOM      7  C   UNL     1      45.931   4.836  12.704  0.00  0.00    +0.000 A 
ATOM      8  H   UNL     1      46.602   9.014  12.798  0.00  0.00    +0.000 HD
ENDROOT
BRANCH   1  10
ATOM      9  N   UNL     1      44.408   2.509  12.504  0.00  0.00    +0.000 N 
ATOM     10  C   UNL     1      43.981   3.603  11.801  0.00  0.00    +0.000 C 
ATOM     11  O   UNL     1      42.985   3.554  11.094  0.00  0.00    +0.000 OA
ATOM     12  H   UNL     1      43.810   1.693  12.470  0.00  0.00    +0.000 HD
ATOM     13  H   UNL     1      45.055   2.578  13.277  0.00  0.00    +0.000 HD
ENDBRANCH   1  10
BRANCH   5  14
ATOM     14  C   UNL     1      48.591   8.232  12.674  0.00  0.00    +0.000 C 
ATOM     15  C   UNL     1      49.407   8.969  11.617  0.00  0.00    +0.000 C 
ATOM     16  C   UNL     1      49.574   7.494  11.784  0.00  0.00    +0.000 C 
BRANCH  14  17
ATOM     17  C   UNL     1      49.018   8.403  14.136  0.00  0.00    +0.000 C 
ATOM     18  C   UNL     1      49.473   7.074  14.756  0.00  0.00    +0.000 C 
ATOM     19  C   UNL     1      49.947   7.267  16.196  0.00  0.00    +0.000 C 
ATOM     20  C   UNL     1      48.879   7.939  17.056  0.00  0.00    +0.000 C 
ATOM     21  C   UNL     1      48.393   9.248  16.438  0.00  0.00    +0.000 C 
ATOM     22  C   UNL     1      47.921   9.053  14.997  0.00  0.00    +0.000 C 
ENDBRANCH  14  17
ENDBRANCH   5  14
TORSDOF 3
ENDMDL
MODEL 6
REMARK VINA RESULT:    -6.298      3.210      6.388
REMARK INTER + INTRA:          -6.769
REMARK INTER:                  -7.292
REMARK INTRA:                   0.523
REMARK UNBOUND:                 0.634
REMARK  Name = 
REMARK  3 active torsions:
REMARK  status: ('A' for Active; 'I' for Inactive)
REMARK    1  A    between atoms: C_2  and  C_4
REMARK    2  A    between atoms: N_8  and  C_9
REMARK    3  A    between atoms: C_9  and  C_10
REMARK                            x       y       z     vdW  Elec       q    Type
REMARK                         _______ _______ _______ _____ _____    ______ ____
ROOT
ATOM      1  C   UNL     1      46.458   8.433  12.349  0.00  0.00    +0.000 A 
ATOM      2  C   UNL     1      47.370   7.448  12.709  0.00  0.00    +0.000 A 
ATOM      3  C   UNL     1      46.984   6.112  12.619  0.00  0.00    +0.000 A 
ATOM      4  C   UNL     1      45.708   5.779  12.151  0.00  0.00    +0.000 A 
ATOM      5  N   UNL     1      45.433   4.402  12.005  0.00  0.00    +0.000 N 
ATOM      6  N   UNL     1      44.814   6.728  11.810  0.00  0.00    +0.000 NA
ATOM      7  C   UNL     1      45.195   8.028  11.938  0.00  0.00    +0.000 A 
ATOM      8  H   UNL     1      45.579   3.920  12.885  0.00  0.00    +0.000 HD
ENDROOT
BRANCH   1  10
ATOM      9  N   UNL     1      45.780  10.748  12.060  0.00  0.00    +0.000 N 
ATOM     10  C   UNL     1      46.781   9.875  12.392  0.00  0.00    +0.000 C 
ATOM     11  O   UNL     1      47.882  10.275  12.743  0.00  0.00    +0.000 OA
ATOM     12  H   UNL     1      45.978  11.731  12.202  0.00  0.00    +0.000 HD
ATOM     13  H   UNL     1      44.810  10.471  12.018  0.00  0.00    +0.000 HD
ENDBRANCH   1  10
BRANCH   5  14
ATOM     14  C   UNL     1      44.377   3.873  11.115  0.00  0.00    +0.000 C 
ATOM     15  C   UNL     1      43.006   4.485  11.386  0.00  0.00    +0.000 C 
ATOM     16  C   UNL     1      43.227   3.030  11.637  0.00  0.00    +0.000 C 
BRANCH  14  17
ATOM     17  C   UNL     1      44.764   3.636   9.651  0.00  0.00    +0.000 C 
ATOM     18  C   UNL     1      45.333   2.227   9.433  0.00  0.00    +0.000 C 
ATOM     19  C   UNL     1      45.665   1.985   7.961  0.00  0.00    +0.000 C 
ATOM     20  C   UNL     1      46.609   3.052   7.412  0.00  0.00    +0.000 C 
ATOM     21  C   UNL     1      46.072   4.461   7.649  0.00  0.00    +0.000 C 
ATOM     22  C   UNL     1      45.739   4.701   9.121  0.00  0.00    +0.000 C 
ENDBRANCH  14  17
ENDBRANCH   5  14
TORSDOF 3
ENDMDL
MODEL 7
REMARK VINA RESULT:    -6.132      2.319      3.919
REMARK INTER + INTRA:          -6.573
REMARK INTER:                  -6.068
REMARK INTRA:                  -0.506
REMARK UNBOUND:                 0.634
REMARK  Name = 
REMARK  3 active torsions:
REMARK  status: ('A' for Active; 'I' for Inactive)
REMARK    1  A    between atoms: C_2  and  C_4
REMARK    2  A    between atoms: N_8  and  C_9
REMARK    3  A    between atoms: C_9  and  C_10
REMARK                            x       y       z     vdW  Elec       q    Type
REMARK                         _______ _______ _______ _____ _____    ______ ____
ROOT
ATOM      1  C   UNL     1      44.539   4.309   9.877  0.00  0.00    +0.000 A 
ATOM      2  C   UNL     1      43.441   4.593  10.681  0.00  0.00    +0.000 A 
ATOM      3  C   UNL     1      43.495   5.703  11.522  0.00  0.00    +0.000 A 
ATOM      4  C   UNL     1      44.628   6.523  11.531  0.00  0.00    +0.000 A 
ATOM      5  N   UNL     1      44.562   7.675  12.343  0.00  0.00    +0.000 N 
ATOM      6  N   UNL     1      45.701   6.249  10.762  0.00  0.00    +0.000 NA
ATOM      7  C   UNL     1      45.646   5.142   9.974  0.00  0.00    +0.000 A 
ATOM      8  H   UNL     1      44.355   7.417  13.301  0.00  0.00    +0.000 HD
ENDROOT
BRANCH   1  10
ATOM      9  N   UNL     1      44.556   1.912   9.487  0.00  0.00    +0.000 N 
ATOM     10  C   UNL     1      44.568   3.166   8.940  0.00  0.00    +0.000 C 
ATOM     11  O   UNL     1      44.568   3.330   7.728  0.00  0.00    +0.000 OA
ATOM     12  H   UNL     1      44.462   1.140   8.838  0.00  0.00    +0.000 HD
ATOM     13  H   UNL     1      44.300   1.741  10.449  0.00  0.00    +0.000 HD
ENDBRANCH   1  10
BRANCH   5  14
ATOM     14  C   UNL     1      45.413   8.868  12.136  0.00  0.00    +0.000 C 
ATOM     15  C   UNL     1      44.640  10.178  12.236  0.00  0.00    +0.000 C 
ATOM     16  C   UNL     1      45.250   9.779  10.933  0.00  0.00    +0.000 C 
BRANCH  14  17
ATOM     17  C   UNL     1      46.814   8.830  12.756  0.00  0.00    +0.000 C 
ATOM     18  C   UNL     1      47.913   8.828  11.683  0.00  0.00    +0.000 C 
ATOM     19  C   UNL     1      49.304   8.845  12.315  0.00  0.00    +0.000 C 
ATOM     20  C   UNL     1      49.492   7.692  13.298  0.00  0.00    +0.000 C 
ATOM     21  C   UNL     1      48.390   7.661  14.354  0.00  0.00    +0.000 C 
ATOM     22  C   UNL     1      46.999   7.646  13.721  0.00  0.00    +0.000 C 
ENDBRANCH  14  17
ENDBRANCH   5  14
TORSDOF 3
ENDMDL
MODEL 8
REMARK VINA RESULT:    -6.091      4.642      7.001
REMARK INTER + INTRA:          -6.525
REMARK INTER:                  -6.669
REMARK INTRA:                   0.144
REMARK UNBOUND:                 0.634
REMARK  Name = 
REMARK  3 active torsions:
REMARK  status: ('A' for Active; 'I' for Inactive)
REMARK    1  A    between atoms: C_2  and  C_4
REMARK    2  A    between atoms: N_8  and  C_9
REMARK    3  A    between atoms: C_9  and  C_10
REMARK                            x       y       z     vdW  Elec       q    Type
REMARK                         _______ _______ _______ _____ _____    ______ ____
ROOT
ATOM      1  C   UNL     1      46.151   5.982  12.550  0.00  0.00    +0.000 A 
ATOM      2  C   UNL     1      45.679   4.677  12.471  0.00  0.00    +0.000 A 
ATOM      3  C   UNL     1      46.166   3.733  13.372  0.00  0.00    +0.000 A 
ATOM      4  C   UNL     1      47.095   4.107  14.349  0.00  0.00    +0.000 A 
ATOM      5  N   UNL     1      47.466   3.111  15.277  0.00  0.00    +0.000 N 
ATOM      6  N   UNL     1      47.566   5.368  14.425  0.00  0.00    +0.000 NA
ATOM      7  C   UNL     1      47.107   6.269  13.516  0.00  0.00    +0.000 A 
ATOM      8  H   UNL     1      47.832   2.299  14.792  0.00  0.00    +0.000 HD
ENDROOT
BRANCH   1  10
ATOM      9  N   UNL     1      44.912   6.684  10.582  0.00  0.00    +0.000 N 
ATOM     10  C   UNL     1      45.680   7.058  11.651  0.00  0.00    +0.000 C 
ATOM     11  O   UNL     1      45.933   8.233  11.871  0.00  0.00    +0.000 OA
ATOM     12  H   UNL     1      44.503   7.435  10.040  0.00  0.00    +0.000 HD
ATOM     13  H   UNL     1      44.478   5.775  10.517  0.00  0.00    +0.000 HD
ENDBRANCH   1  10
BRANCH   5  14
ATOM     14  C   UNL     1      48.032   3.410  16.611  0.00  0.00    +0.000 C 
ATOM     15  C   UNL     1      47.222   2.805  17.753  0.00  0.00    +0.000 C 
ATOM     16  C   UNL     1      47.312   4.289  17.617  0.00  0.00    +0.000 C 
BRANCH  14  17
ATOM     17  C   UNL     1      49.559   3.370  16.736  0.00  0.00    +0.000 C 
ATOM     18  C   UNL     1      50.051   2.028  17.298  0.00  0.00    +0.000 C 
ATOM     19  C   UNL     1      51.577   1.982  17.366  0.00  0.00    +0.000 C 
ATOM     20  C   UNL     1      52.142   3.154  18.164  0.00  0.00    +0.000 C 
ATOM     21  C   UNL     1      51.638   4.496  17.637  0.00  0.00    +0.000 C 
ATOM     22  C   UNL     1      50.112   4.540  17.568  0.00  0.00    +0.000 C 
ENDBRANCH  14  17
ENDBRANCH   5  14
TORSDOF 3
ENDMDL
MODEL 9
REMARK VINA RESULT:    -6.005      3.693      6.590
REMARK INTER + INTRA:          -6.424
REMARK INTER:                  -6.510
REMARK INTRA:                   0.086
REMARK UNBOUND:                 0.634
REMARK  Name = 
REMARK  3 active torsions:
REMARK  status: ('A' for Active; 'I' for Inactive)
REMARK    1  A    between atoms: C_2  and  C_4
REMARK    2  A    between atoms: N_8  and  C_9
REMARK    3  A    between atoms: C_9  and  C_10
REMARK                            x       y       z     vdW  Elec       q    Type
REMARK                         _______ _______ _______ _____ _____    ______ ____
ROOT
ATOM      1  C   UNL     1      48.585   9.162  12.117  0.00  0.00    +0.000 A 
ATOM      2  C   UNL     1      47.349   9.770  12.302  0.00  0.00    +0.000 A 
ATOM      3  C   UNL     1      46.195   9.005  12.147  0.00  0.00    +0.000 A 
ATOM      4  C   UNL     1      46.291   7.645  11.833  0.00  0.00    +0.000 A 
ATOM      5  N   UNL     1      45.078   6.925  11.785  0.00  0.00    +0.000 N 
ATOM      6  N   UNL     1      47.485   7.050  11.641  0.00  0.00    +0.000 NA
ATOM      7  C   UNL     1      48.600   7.820  11.761  0.00  0.00    +0.000 A 
ATOM      8  H   UNL     1      44.442   7.355  11.122  0.00  0.00    +0.000 HD
ENDROOT
BRANCH   1  10
ATOM      9  N   UNL     1      49.937  10.804  13.291  0.00  0.00    +0.000 N 
ATOM     10  C   UNL     1      49.864   9.887  12.278  0.00  0.00    +0.000 C 
ATOM     11  O   UNL     1      50.827   9.653  11.562  0.00  0.00    +0.000 OA
ATOM     12  H   UNL     1      50.848  11.210  13.463  0.00  0.00    +0.000 HD
ATOM     13  H   UNL     1      49.265  10.835  14.045  0.00  0.00    +0.000 HD
ENDBRANCH   1  10
BRANCH   5  14
ATOM     14  C   UNL     1      44.996   5.456  11.941  0.00  0.00    +0.000 C 
ATOM     15  C   UNL     1      44.254   5.031  13.204  0.00  0.00    +0.000 C 
ATOM     16  C   UNL     1      45.707   4.721  13.062  0.00  0.00    +0.000 C 
BRANCH  14  17
ATOM     17  C   UNL     1      44.741   4.641  10.669  0.00  0.00    +0.000 C 
ATOM     18  C   UNL     1      44.869   3.132  10.922  0.00  0.00    +0.000 C 
ATOM     19  C   UNL     1      44.560   2.330   9.659  0.00  0.00    +0.000 C 
ATOM     20  C   UNL     1      45.430   2.767   8.484  0.00  0.00    +0.000 C 
ATOM     21  C   UNL     1      45.338   4.271   8.238  0.00  0.00    +0.000 C 
ATOM     22  C   UNL     1      45.646   5.073   9.502  0.00  0.00    +0.000 C 
ENDBRANCH  14  17
ENDBRANCH   5  14
TORSDOF 3
ENDMDL
