MODEL 1
REMARK VINA RESULT:    -8.081      0.000      0.000
REMARK INTER + INTRA:         -12.890
REMARK INTER:                 -11.624
REMARK INTRA:                  -1.266
REMARK UNBOUND:                -1.266
REMARK  Name = 
REMARK  8 active torsions:
REMARK  status: ('A' for Active; 'I' for Inactive)
REMARK    1  A    between atoms: N_1  and  C_2
REMARK    2  A    between atoms: C_2  and  C_3
REMARK    3  A    between atoms: C_3  and  N_4
REMARK    4  A    between atoms: C_3  and  C_17
REMARK    5  A    between atoms: C_5  and  C_7
REMARK    6  A    between atoms: C_20  and  O_21
REMARK    7  A    between atoms: O_21  and  C_22
REMARK    8  A    between atoms: C_22  and  C_23
REMARK                            x       y       z     vdW  Elec       q    Type
REMARK                         _______ _______ _______ _____ _____    ______ ____
ROOT
ATOM      1  C   UNL     1      47.847   6.848  13.593  0.00  0.00    +0.000 C 
ENDROOT
BRANCH   1   2
ATOM      2  C   UNL     1      46.798   6.022  12.851  0.00  0.00    +0.000 A 
ATOM      3  C   UNL     1      46.193   6.502  11.683  0.00  0.00    +0.000 A 
ATOM      4  C   UNL     1      45.304   5.700  10.962  0.00  0.00    +0.000 A 
ATOM      5  C   UNL     1      45.023   4.401  11.387  0.00  0.00    +0.000 A 
ATOM      6  C   UNL     1      45.564   3.942  12.587  0.00  0.00    +0.000 A 
ATOM      7  C   UNL     1      46.452   4.738  13.304  0.00  0.00    +0.000 A 
BRANCH   5   8
ATOM      8  O   UNL     1      44.229   3.649  10.561  0.00  0.00    +0.000 OA
BRANCH   8   9
ATOM      9  C   UNL     1      44.282   4.041   9.182  0.00  0.00    +0.000 C 
BRANCH   9  10
ATOM     10  C   UNL     1      45.319   3.264   8.408  0.00  0.00    +0.000 A 
ATOM     11  C   UNL     1      45.547   1.912   8.652  0.00  0.00    +0.000 A 
ATOM     12  C   UNL     1      46.539   1.259   7.929  0.00  0.00    +0.000 A 
ATOM     13  C   UNL     1      47.284   1.968   6.994  0.00  0.00    +0.000 A 
ATOM     14  C   UNL     1      47.009   3.312   6.823  0.00  0.00    +0.000 A 
ATOM     15  N   UNL     1      46.055   3.974   7.507  0.00  0.00    +0.000 NA
ENDBRANCH   9  10
ENDBRANCH   8   9
ENDBRANCH   5   8
ENDBRANCH   1   2
BRANCH   1  16
ATOM     16  N   UNL     1      47.868   6.401  14.981  0.00  0.00    +0.000 N 
ATOM     17  C   UNL     1      48.992   6.292  15.747  0.00  0.00    +0.000 C 
ATOM     18  O   UNL     1      50.101   6.632  15.351  0.00  0.00    +0.000 OA
ATOM     19  H   UNL     1      46.995   6.033  15.339  0.00  0.00    +0.000 HD
BRANCH  17  20
ATOM     20  C   UNL     1      48.777   5.778  17.110  0.00  0.00    +0.000 A 
ATOM     21  C   UNL     1      48.965   4.432  17.388  0.00  0.00    +0.000 A 
ATOM     22  S   UNL     1      48.677   4.025  19.021  0.00  0.00    +0.000 S 
ATOM     23  C   UNL     1      48.241   5.624  19.403  0.00  0.00    +0.000 A 
ATOM     24  N   UNL     1      47.837   5.963  20.658  0.00  0.00    +0.000 NA
ATOM     25  C   UNL     1      47.486   7.199  20.792  0.00  0.00    +0.000 A 
ATOM     26  N   UNL     1      47.518   8.132  19.790  0.00  0.00    +0.000 N 
ATOM     27  C   UNL     1      48.024   7.859  18.539  0.00  0.00    +0.000 A 
ATOM     28  O   UNL     1      48.217   8.759  17.734  0.00  0.00    +0.000 OA
ATOM     29  C   UNL     1      48.355   6.466  18.312  0.00  0.00    +0.000 A 
ATOM     30  H   UNL     1      47.278   9.097  19.969  0.00  0.00    +0.000 HD
ENDBRANCH  17  20
ENDBRANCH   1  16
BRANCH   1  31
ATOM     31  C   UNL     1      47.541   8.371  13.502  0.00  0.00    +0.000 C 
BRANCH  31  32
ATOM     32  N   UNL     1      47.133   8.986  14.773  0.00  0.00    +0.000 NA
ATOM     33  H   UNL     1      46.388   9.659  14.592  0.00  0.00    +0.000 HD
ATOM     34  H   UNL     1      47.911   9.525  15.155  0.00  0.00    +0.000 HD
ENDBRANCH  31  32
ENDBRANCH   1  31
TORSDOF 8
ENDMDL
MODEL 2
REMARK VINA RESULT:    -7.838      1.583      2.301
REMARK INTER + INTRA:         -12.541
REMARK INTER:                 -11.524
REMARK INTRA:                  -1.017
REMARK UNBOUND:                -1.266
REMARK  Name = 
REMARK  8 active torsions:
REMARK  status: ('A' for Active; 'I' for Inactive)
REMARK    1  A    between atoms: N_1  and  C_2
REMARK    2  A    between atoms: C_2  and  C_3
REMARK    3  A    between atoms: C_3  and  N_4
REMARK    4  A    between atoms: C_3  and  C_17
REMARK    5  A    between atoms: C_5  and  C_7
REMARK    6  A    between atoms: C_20  and  O_21
REMARK    7  A    between atoms: O_21  and  C_22
REMARK    8  A    between atoms: C_22  and  C_23
REMARK                            x       y       z     vdW  Elec       q    Type
REMARK                         _______ _______ _______ _____ _____    ______ ____
ROOT
ATOM      1  C   UNL     1      47.762   7.138  13.131  0.00  0.00    +0.000 C 
ENDROOT
BRANCH   1   2
ATOM      2  C   UNL     1      46.780   6.130  12.540  0.00  0.00    +0.000 A 
ATOM      3  C   UNL     1      46.187   6.347  11.290  0.00  0.00    +0.000 A 
ATOM      4  C   UNL     1      45.361   5.375  10.717  0.00  0.00    +0.000 A 
ATOM      5  C   UNL     1      45.134   4.166  11.375  0.00  0.00    +0.000 A 
ATOM      6  C   UNL     1      45.662   3.971  12.651  0.00  0.00    +0.000 A 
ATOM      7  C   UNL     1      46.486   4.937  13.220  0.00  0.00    +0.000 A 
BRANCH   5   8
ATOM      8  O   UNL     1      44.405   3.228  10.692  0.00  0.00    +0.000 OA
BRANCH   8   9
ATOM      9  C   UNL     1      44.276   3.496   9.288  0.00  0.00    +0.000 C 
BRANCH   9  10
ATOM     10  C   UNL     1      45.390   2.869   8.484  0.00  0.00    +0.000 A 
ATOM     11  C   UNL     1      46.109   3.601   7.543  0.00  0.00    +0.000 A 
ATOM     12  C   UNL     1      47.101   2.958   6.811  0.00  0.00    +0.000 A 
ATOM     13  C   UNL     1      47.343   1.607   7.024  0.00  0.00    +0.000 A 
ATOM     14  C   UNL     1      46.574   0.945   7.964  0.00  0.00    +0.000 A 
ATOM     15  N   UNL     1      45.605   1.539   8.690  0.00  0.00    +0.000 NA
ENDBRANCH   9  10
ENDBRANCH   8   9
ENDBRANCH   5   8
ENDBRANCH   1   2
BRANCH   1  16
ATOM     16  N   UNL     1      47.896   6.849  14.554  0.00  0.00    +0.000 N 
ATOM     17  C   UNL     1      49.078   6.821  15.236  0.00  0.00    +0.000 C 
ATOM     18  O   UNL     1      50.150   7.110  14.718  0.00  0.00    +0.000 OA
ATOM     19  H   UNL     1      47.057   6.527  15.020  0.00  0.00    +0.000 HD
BRANCH  17  20
ATOM     20  C   UNL     1      48.974   6.465  16.660  0.00  0.00    +0.000 A 
ATOM     21  C   UNL     1      49.220   7.417  17.640  0.00  0.00    +0.000 A 
ATOM     22  S   UNL     1      49.043   6.823  19.230  0.00  0.00    +0.000 S 
ATOM     23  C   UNL     1      48.682   5.258  18.668  0.00  0.00    +0.000 A 
ATOM     24  N   UNL     1      48.459   4.233  19.535  0.00  0.00    +0.000 NA
ATOM     25  C   UNL     1      48.249   3.090  18.969  0.00  0.00    +0.000 A 
ATOM     26  N   UNL     1      48.225   2.882  17.616  0.00  0.00    +0.000 N 
ATOM     27  C   UNL     1      48.335   3.910  16.705  0.00  0.00    +0.000 A 
ATOM     28  O   UNL     1      48.116   3.718  15.518  0.00  0.00    +0.000 OA
ATOM     29  C   UNL     1      48.654   5.199  17.287  0.00  0.00    +0.000 A 
ATOM     30  H   UNL     1      48.005   1.974  17.231  0.00  0.00    +0.000 HD
ENDBRANCH  17  20
ENDBRANCH   1  16
BRANCH   1  31
ATOM     31  C   UNL     1      47.285   8.601  12.902  0.00  0.00    +0.000 C 
BRANCH  31  32
ATOM     32  N   UNL     1      46.040   8.951  13.600  0.00  0.00    +0.000 NA
ATOM     33  H   UNL     1      45.586   8.095  13.917  0.00  0.00    +0.000 HD
ATOM     34  H   UNL     1      45.392   9.385  12.941  0.00  0.00    +0.000 HD
ENDBRANCH  31  32
ENDBRANCH   1  31
TORSDOF 8
ENDMDL
MODEL 3
REMARK VINA RESULT:    -7.541      3.210      4.691
REMARK INTER + INTRA:         -12.114
REMARK INTER:                 -10.784
REMARK INTRA:                  -1.330
REMARK UNBOUND:                -1.266
REMARK  Name = 
REMARK  8 active torsions:
REMARK  status: ('A' for Active; 'I' for Inactive)
REMARK    1  A    between atoms: N_1  and  C_2
REMARK    2  A    between atoms: C_2  and  C_3
REMARK    3  A    between atoms: C_3  and  N_4
REMARK    4  A    between atoms: C_3  and  C_17
REMARK    5  A    between atoms: C_5  and  C_7
REMARK    6  A    between atoms: C_20  and  O_21
REMARK    7  A    between atoms: O_21  and  C_22
REMARK    8  A    between atoms: C_22  and  C_23
REMARK                            x       y       z     vdW  Elec       q    Type
REMARK                         _______ _______ _______ _____ _____    ______ ____
ROOT
ATOM      1  C   UNL     1      46.723   5.768  14.015  0.00  0.00    +0.000 C 
ENDROOT
BRANCH   1   2
ATOM      2  C   UNL     1      46.113   5.128  12.770  0.00  0.00    +0.000 A 
ATOM      3  C   UNL     1      45.662   3.803  12.786  0.00  0.00    +0.000 A 
ATOM      4  C   UNL     1      45.021   3.256  11.670  0.00  0.00    +0.000 A 
ATOM      5  C   UNL     1      44.805   4.033  10.531  0.00  0.00    +0.000 A 
ATOM      6  C   UNL     1      45.315   5.330  10.480  0.00  0.00    +0.000 A 
ATOM      7  C   UNL     1      45.950   5.875  11.592  0.00  0.00    +0.000 A 
BRANCH   5   8
ATOM      8  O   UNL     1      44.072   3.453   9.529  0.00  0.00    +0.000 OA
BRANCH   8   9
ATOM      9  C   UNL     1      44.526   2.145   9.154  0.00  0.00    +0.000 C 
BRANCH   9  10
ATOM     10  C   UNL     1      45.655   2.198   8.153  0.00  0.00    +0.000 A 
ATOM     11  C   UNL     1      45.823   3.288   7.304  0.00  0.00    +0.000 A 
ATOM     12  C   UNL     1      46.863   3.263   6.381  0.00  0.00    +0.000 A 
ATOM     13  C   UNL     1      47.697   2.154   6.318  0.00  0.00    +0.000 A 
ATOM     14  C   UNL     1      47.453   1.103   7.183  0.00  0.00    +0.000 A 
ATOM     15  N   UNL     1      46.455   1.096   8.089  0.00  0.00    +0.000 NA
ENDBRANCH   9  10
ENDBRANCH   8   9
ENDBRANCH   5   8
ENDBRANCH   1   2
BRANCH   1  16
ATOM     16  N   UNL     1      47.857   6.580  13.589  0.00  0.00    +0.000 N 
ATOM     17  C   UNL     1      47.833   7.937  13.441  0.00  0.00    +0.000 C 
ATOM     18  O   UNL     1      46.853   8.617  13.724  0.00  0.00    +0.000 OA
ATOM     19  H   UNL     1      48.670   6.069  13.268  0.00  0.00    +0.000 HD
BRANCH  17  20
ATOM     20  C   UNL     1      49.086   8.540  12.960  0.00  0.00    +0.000 A 
ATOM     21  C   UNL     1      49.083   9.362  11.842  0.00  0.00    +0.000 A 
ATOM     22  S   UNL     1      50.625   9.975  11.441  0.00  0.00    +0.000 S 
ATOM     23  C   UNL     1      51.361   9.122  12.716  0.00  0.00    +0.000 A 
ATOM     24  N   UNL     1      52.706   9.177  12.916  0.00  0.00    +0.000 NA
ATOM     25  C   UNL     1      53.134   8.439  13.887  0.00  0.00    +0.000 A 
ATOM     26  N   UNL     1      52.336   7.664  14.687  0.00  0.00    +0.000 N 
ATOM     27  C   UNL     1      50.962   7.667  14.591  0.00  0.00    +0.000 A 
ATOM     28  O   UNL     1      50.276   7.119  15.441  0.00  0.00    +0.000 OA
ATOM     29  C   UNL     1      50.438   8.415  13.464  0.00  0.00    +0.000 A 
ATOM     30  H   UNL     1      52.723   7.147  15.464  0.00  0.00    +0.000 HD
ENDBRANCH  17  20
ENDBRANCH   1  16
BRANCH   1  31
ATOM     31  C   UNL     1      47.164   4.693  15.050  0.00  0.00    +0.000 C 
BRANCH  31  32
ATOM     32  N   UNL     1      48.251   5.118  15.942  0.00  0.00    +0.000 NA
ATOM     33  H   UNL     1      49.038   4.479  15.834  0.00  0.00    +0.000 HD
ATOM     34  H   UNL     1      47.949   5.028  16.913  0.00  0.00    +0.000 HD
ENDBRANCH  31  32
ENDBRANCH   1  31
TORSDOF 8
ENDMDL
MODEL 4
REMARK VINA RESULT:    -7.407      2.706      4.044
REMARK INTER + INTRA:         -11.920
REMARK INTER:                 -10.599
REMARK INTRA:                  -1.321
REMARK UNBOUND:                -1.266
REMARK  Name = 
REMARK  8 active torsions:
REMARK  status: ('A' for Active; 'I' for Inactive)
REMARK    1  A    between atoms: N_1  and  C_2
REMARK    2  A    between atoms: C_2  and  C_3
REMARK    3  A    between atoms: C_3  and  N_4
REMARK    4  A    between atoms: C_3  and  C_17
REMARK    5  A    between atoms: C_5  and  C_7
REMARK    6  A    between atoms: C_20  and  O_21
REMARK    7  A    between atoms: O_21  and  C_22
REMARK    8  A    between atoms: C_22  and  C_23
REMARK                            x       y       z     vdW  Elec       q    Type
REMARK                         _______ _______ _______ _____ _____    ______ ____
ROOT
ATOM      1  C   UNL     1      46.883   4.960  14.758  0.00  0.00    +0.000 C 
ENDROOT
BRANCH   1   2
ATOM      2  C   UNL     1      46.150   4.797  13.428  0.00  0.00    +0.000 A 
ATOM      3  C   UNL     1      46.090   5.845  12.503  0.00  0.00    +0.000 A 
ATOM      4  C   UNL     1      45.497   5.656  11.251  0.00  0.00    +0.000 A 
ATOM      5  C   UNL     1      44.976   4.409  10.900  0.00  0.00    +0.000 A 
ATOM      6  C   UNL     1      44.968   3.381  11.841  0.00  0.00    +0.000 A 
ATOM      7  C   UNL     1      45.560   3.569  13.086  0.00  0.00    +0.000 A 
BRANCH   5   8
ATOM      8  O   UNL     1      44.516   4.282   9.615  0.00  0.00    +0.000 OA
BRANCH   8   9
ATOM      9  C   UNL     1      44.425   2.925   9.158  0.00  0.00    +0.000 C 
BRANCH   9  10
ATOM     10  C   UNL     1      45.557   2.560   8.229  0.00  0.00    +0.000 A 
ATOM     11  C   UNL     1      46.006   3.440   7.248  0.00  0.00    +0.000 A 
ATOM     12  C   UNL     1      47.031   3.032   6.401  0.00  0.00    +0.000 A 
ATOM     13  C   UNL     1      47.572   1.760   6.544  0.00  0.00    +0.000 A 
ATOM     14  C   UNL     1      47.059   0.938   7.530  0.00  0.00    +0.000 A 
ATOM     15  N   UNL     1      46.067   1.303   8.367  0.00  0.00    +0.000 NA
ENDBRANCH   9  10
ENDBRANCH   8   9
ENDBRANCH   5   8
ENDBRANCH   1   2
BRANCH   1  16
ATOM     16  N   UNL     1      47.921   5.968  14.575  0.00  0.00    +0.000 N 
ATOM     17  C   UNL     1      48.667   6.510  15.581  0.00  0.00    +0.000 C 
ATOM     18  O   UNL     1      48.577   6.141  16.747  0.00  0.00    +0.000 OA
ATOM     19  H   UNL     1      47.989   6.368  13.648  0.00  0.00    +0.000 HD
BRANCH  17  20
ATOM     20  C   UNL     1      49.629   7.543  15.165  0.00  0.00    +0.000 A 
ATOM     21  C   UNL     1      50.981   7.392  15.441  0.00  0.00    +0.000 A 
ATOM     22  S   UNL     1      51.942   8.684  14.875  0.00  0.00    +0.000 S 
ATOM     23  C   UNL     1      50.581   9.516  14.286  0.00  0.00    +0.000 A 
ATOM     24  N   UNL     1      50.701  10.741  13.704  0.00  0.00    +0.000 NA
ATOM     25  C   UNL     1      49.580  11.279  13.351  0.00  0.00    +0.000 A 
ATOM     26  N   UNL     1      48.351  10.696  13.512  0.00  0.00    +0.000 N 
ATOM     27  C   UNL     1      48.194   9.415  13.992  0.00  0.00    +0.000 A 
ATOM     28  O   UNL     1      47.107   8.858  13.940  0.00  0.00    +0.000 OA
ATOM     29  C   UNL     1      49.414   8.800  14.479  0.00  0.00    +0.000 A 
ATOM     30  H   UNL     1      47.513  11.145  13.170  0.00  0.00    +0.000 HD
ENDBRANCH  17  20
ENDBRANCH   1  16
BRANCH   1  31
ATOM     31  C   UNL     1      47.493   3.613  15.241  0.00  0.00    +0.000 C 
BRANCH  31  32
ATOM     32  N   UNL     1      47.211   3.287  16.646  0.00  0.00    +0.000 NA
ATOM     33  H   UNL     1      46.581   3.990  17.030  0.00  0.00    +0.000 HD
ATOM     34  H   UNL     1      48.072   3.355  17.190  0.00  0.00    +0.000 HD
ENDBRANCH  31  32
ENDBRANCH   1  31
TORSDOF 8
ENDMDL
MODEL 5
REMARK VINA RESULT:    -7.061      2.893      4.118
REMARK INTER + INTRA:         -11.423
REMARK INTER:                 -10.402
REMARK INTRA:                  -1.021
REMARK UNBOUND:                -1.266
REMARK  Name = 
REMARK  8 active torsions:
REMARK  status: ('A' for Active; 'I' for Inactive)
REMARK    1  A    between atoms: N_1  and  C_2
REMARK    2  A    between atoms: C_2  and  C_3
REMARK    3  A    between atoms: C_3  and  N_4
REMARK    4  A    between atoms: C_3  and  C_17
REMARK    5  A    between atoms: C_5  and  C_7
REMARK    6  A    between atoms: C_20  and  O_21
REMARK    7  A    between atoms: O_21  and  C_22
REMARK    8  A    between atoms: C_22  and  C_23
REMARK                            x       y       z     vdW  Elec       q    Type
REMARK                         _______ _______ _______ _____ _____    ______ ____
ROOT
ATOM      1  C   UNL     1      47.171   5.002  15.123  0.00  0.00    +0.000 C 
ENDROOT
BRANCH   1   2
ATOM      2  C   UNL     1      46.566   4.778  13.738  0.00  0.00    +0.000 A 
ATOM      3  C   UNL     1      46.167   3.502  13.322  0.00  0.00    +0.000 A 
ATOM      4  C   UNL     1      45.530   3.324  12.090  0.00  0.00    +0.000 A 
ATOM      5  C   UNL     1      45.266   4.420  11.268  0.00  0.00    +0.000 A 
ATOM      6  C   UNL     1      45.724   5.683  11.642  0.00  0.00    +0.000 A 
ATOM      7  C   UNL     1      46.355   5.861  12.870  0.00  0.00    +0.000 A 
BRANCH   5   8
ATOM      8  O   UNL     1      44.540   4.169  10.133  0.00  0.00    +0.000 OA
BRANCH   8   9
ATOM      9  C   UNL     1      44.583   2.801   9.702  0.00  0.00    +0.000 C 
BRANCH   9  10
ATOM     10  C   UNL     1      45.531   2.597   8.546  0.00  0.00    +0.000 A 
ATOM     11  C   UNL     1      45.740   3.590   7.593  0.00  0.00    +0.000 A 
ATOM     12  C   UNL     1      46.602   3.330   6.532  0.00  0.00    +0.000 A 
ATOM     13  C   UNL     1      47.220   2.089   6.442  0.00  0.00    +0.000 A 
ATOM     14  C   UNL     1      46.947   1.149   7.418  0.00  0.00    +0.000 A 
ATOM     15  N   UNL     1      46.118   1.370   8.458  0.00  0.00    +0.000 NA
ENDBRANCH   9  10
ENDBRANCH   8   9
ENDBRANCH   5   8
ENDBRANCH   1   2
BRANCH   1  16
ATOM     16  N   UNL     1      48.388   5.787  14.957  0.00  0.00    +0.000 N 
ATOM     17  C   UNL     1      48.923   6.606  15.908  0.00  0.00    +0.000 C 
ATOM     18  O   UNL     1      48.456   6.706  17.037  0.00  0.00    +0.000 OA
ATOM     19  H   UNL     1      48.777   5.807  14.022  0.00  0.00    +0.000 HD
BRANCH  17  20
ATOM     20  C   UNL     1      50.137   7.333  15.503  0.00  0.00    +0.000 A 
ATOM     21  C   UNL     1      50.044   8.440  14.670  0.00  0.00    +0.000 A 
ATOM     22  S   UNL     1      51.553   9.156  14.317  0.00  0.00    +0.000 S 
ATOM     23  C   UNL     1      52.389   7.982  15.220  0.00  0.00    +0.000 A 
ATOM     24  N   UNL     1      53.748   7.990  15.299  0.00  0.00    +0.000 NA
ATOM     25  C   UNL     1      54.251   7.010  15.975  0.00  0.00    +0.000 A 
ATOM     26  N   UNL     1      53.517   6.032  16.593  0.00  0.00    +0.000 N 
ATOM     27  C   UNL     1      52.141   6.050  16.632  0.00  0.00    +0.000 A 
ATOM     28  O   UNL     1      51.527   5.275  17.352  0.00  0.00    +0.000 OA
ATOM     29  C   UNL     1      51.527   7.082  15.820  0.00  0.00    +0.000 A 
ATOM     30  H   UNL     1      53.966   5.318  17.151  0.00  0.00    +0.000 HD
ENDBRANCH  17  20
ENDBRANCH   1  16
BRANCH   1  31
ATOM     31  C   UNL     1      47.470   3.653  15.838  0.00  0.00    +0.000 C 
BRANCH  31  32
ATOM     32  N   UNL     1      46.747   3.462  17.103  0.00  0.00    +0.000 NA
ATOM     33  H   UNL     1      46.890   2.505  17.425  0.00  0.00    +0.000 HD
ATOM     34  H   UNL     1      45.744   3.556  16.939  0.00  0.00    +0.000 HD
ENDBRANCH  31  32
ENDBRANCH   1  31
TORSDOF 8
ENDMDL
MODEL 6
REMARK VINA RESULT:    -6.824      2.424      3.480
REMARK INTER + INTRA:         -11.083
REMARK INTER:                  -9.797
REMARK INTRA:                  -1.286
REMARK UNBOUND:                -1.266
REMARK  Name = 
REMARK  8 active torsions:
REMARK  status: ('A' for Active; 'I' for Inactive)
REMARK    1  A    between atoms: N_1  and  C_2
REMARK    2  A    between atoms: C_2  and  C_3
REMARK    3  A    between atoms: C_3  and  N_4
REMARK    4  A    between atoms: C_3  and  C_17
REMARK    5  A    between atoms: C_5  and  C_7
REMARK    6  A    between atoms: C_20  and  O_21
REMARK    7  A    between atoms: O_21  and  C_22
REMARK    8  A    between atoms: C_22  and  C_23
REMARK                            x       y       z     vdW  Elec       q    Type
REMARK                         _______ _______ _______ _____ _____    ______ ____
ROOT
ATOM      1  C   UNL     1      47.174   4.320  15.751  0.00  0.00    +0.000 C 
ENDROOT
BRANCH   1   2
ATOM      2  C   UNL     1      46.752   4.647  14.320  0.00  0.00    +0.000 A 
ATOM      3  C   UNL     1      45.811   3.860  13.646  0.00  0.00    +0.000 A 
ATOM      4  C   UNL     1      45.364   4.222  12.371  0.00  0.00    +0.000 A 
ATOM      5  C   UNL     1      45.835   5.386  11.764  0.00  0.00    +0.000 A 
ATOM      6  C   UNL     1      46.825   6.137  12.397  0.00  0.00    +0.000 A 
ATOM      7  C   UNL     1      47.268   5.778  13.667  0.00  0.00    +0.000 A 
BRANCH   5   8
ATOM      8  O   UNL     1      45.261   5.723  10.566  0.00  0.00    +0.000 OA
BRANCH   8   9
ATOM      9  C   UNL     1      44.445   4.689   9.997  0.00  0.00    +0.000 C 
BRANCH   9  10
ATOM     10  C   UNL     1      45.219   3.815   9.039  0.00  0.00    +0.000 A 
ATOM     11  C   UNL     1      45.242   2.429   9.175  0.00  0.00    +0.000 A 
ATOM     12  C   UNL     1      46.000   1.681   8.281  0.00  0.00    +0.000 A 
ATOM     13  C   UNL     1      46.722   2.330   7.286  0.00  0.00    +0.000 A 
ATOM     14  C   UNL     1      46.661   3.709   7.228  0.00  0.00    +0.000 A 
ATOM     15  N   UNL     1      45.937   4.463   8.079  0.00  0.00    +0.000 NA
ENDBRANCH   9  10
ENDBRANCH   8   9
ENDBRANCH   5   8
ENDBRANCH   1   2
BRANCH   1  16
ATOM     16  N   UNL     1      47.911   5.464  16.272  0.00  0.00    +0.000 N 
ATOM     17  C   UNL     1      47.866   5.897  17.566  0.00  0.00    +0.000 C 
ATOM     18  O   UNL     1      47.240   5.309  18.441  0.00  0.00    +0.000 OA
ATOM     19  H   UNL     1      48.384   6.036  15.583  0.00  0.00    +0.000 HD
BRANCH  17  20
ATOM     20  C   UNL     1      48.662   7.101  17.855  0.00  0.00    +0.000 A 
ATOM     21  C   UNL     1      48.071   8.203  18.455  0.00  0.00    +0.000 A 
ATOM     22  S   UNL     1      49.152   9.498  18.720  0.00  0.00    +0.000 S 
ATOM     23  C   UNL     1      50.436   8.652  17.994  0.00  0.00    +0.000 A 
ATOM     24  N   UNL     1      51.666   9.220  17.856  0.00  0.00    +0.000 NA
ATOM     25  C   UNL     1      52.530   8.483  17.240  0.00  0.00    +0.000 A 
ATOM     26  N   UNL     1      52.282   7.223  16.764  0.00  0.00    +0.000 N 
ATOM     27  C   UNL     1      51.090   6.569  16.981  0.00  0.00    +0.000 A 
ATOM     28  O   UNL     1      50.972   5.381  16.715  0.00  0.00    +0.000 OA
ATOM     29  C   UNL     1      50.059   7.383  17.595  0.00  0.00    +0.000 A 
ATOM     30  H   UNL     1      53.015   6.674  16.335  0.00  0.00    +0.000 HD
ENDBRANCH  17  20
ENDBRANCH   1  16
BRANCH   1  31
ATOM     31  C   UNL     1      48.038   3.027  15.808  0.00  0.00    +0.000 C 
BRANCH  31  32
ATOM     32  N   UNL     1      49.071   3.032  16.853  0.00  0.00    +0.000 NA
ATOM     33  H   UNL     1      49.014   3.908  17.371  0.00  0.00    +0.000 HD
ATOM     34  H   UNL     1      49.994   3.022  16.418  0.00  0.00    +0.000 HD
ENDBRANCH  31  32
ENDBRANCH   1  31
TORSDOF 8
ENDMDL
MODEL 7
REMARK VINA RESULT:    -6.697      4.486      8.936
REMARK INTER + INTRA:         -10.899
REMARK INTER:                  -9.986
REMARK INTRA:                  -0.913
REMARK UNBOUND:                -1.266
REMARK  Name = 
REMARK  8 active torsions:
REMARK  status: ('A' for Active; 'I' for Inactive)
REMARK    1  A    between atoms: N_1  and  C_2
REMARK    2  A    between atoms: C_2  and  C_3
REMARK    3  A    between atoms: C_3  and  N_4
REMARK    4  A    between atoms: C_3  and  C_17
REMARK    5  A    between atoms: C_5  and  C_7
REMARK    6  A    between atoms: C_20  and  O_21
REMARK    7  A    between atoms: O_21  and  C_22
REMARK    8  A    between atoms: C_22  and  C_23
REMARK                            x       y       z     vdW  Elec       q    Type
REMARK                         _______ _______ _______ _____ _____    ______ ____
ROOT
ATOM      1  C   UNL     1      47.574   4.161  17.285  0.00  0.00    +0.000 C 
ENDROOT
BRANCH   1   2
ATOM      2  C   UNL     1      49.077   3.893  17.299  0.00  0.00    +0.000 A 
ATOM      3  C   UNL     1      49.998   4.943  17.393  0.00  0.00    +0.000 A 
ATOM      4  C   UNL     1      51.367   4.680  17.499  0.00  0.00    +0.000 A 
ATOM      5  C   UNL     1      51.831   3.365  17.534  0.00  0.00    +0.000 A 
ATOM      6  C   UNL     1      50.929   2.315  17.369  0.00  0.00    +0.000 A 
ATOM      7  C   UNL     1      49.566   2.576  17.266  0.00  0.00    +0.000 A 
BRANCH   5   8
ATOM      8  O   UNL     1      53.174   3.199  17.752  0.00  0.00    +0.000 OA
BRANCH   8   9
ATOM      9  C   UNL     1      53.489   2.212  18.744  0.00  0.00    +0.000 C 
BRANCH   9  10
ATOM     10  C   UNL     1      54.072   0.959  18.137  0.00  0.00    +0.000 A 
ATOM     11  C   UNL     1      54.637   0.962  16.865  0.00  0.00    +0.000 A 
ATOM     12  C   UNL     1      55.128  -0.231  16.347  0.00  0.00    +0.000 A 
ATOM     13  C   UNL     1      55.032  -1.395  17.100  0.00  0.00    +0.000 A 
ATOM     14  C   UNL     1      54.441  -1.320  18.347  0.00  0.00    +0.000 A 
ATOM     15  N   UNL     1      53.955  -0.179  18.878  0.00  0.00    +0.000 NA
ENDBRANCH   9  10
ENDBRANCH   8   9
ENDBRANCH   5   8
ENDBRANCH   1   2
BRANCH   1  16
ATOM     16  N   UNL     1      47.271   4.943  16.091  0.00  0.00    +0.000 N 
ATOM     17  C   UNL     1      47.202   4.438  14.825  0.00  0.00    +0.000 C 
ATOM     18  O   UNL     1      47.323   3.243  14.580  0.00  0.00    +0.000 OA
ATOM     19  H   UNL     1      47.238   5.947  16.218  0.00  0.00    +0.000 HD
BRANCH  17  20
ATOM     20  C   UNL     1      46.923   5.424  13.769  0.00  0.00    +0.000 A 
ATOM     21  C   UNL     1      47.902   6.326  13.377  0.00  0.00    +0.000 A 
ATOM     22  S   UNL     1      47.399   7.384  12.136  0.00  0.00    +0.000 S 
ATOM     23  C   UNL     1      45.838   6.709  12.113  0.00  0.00    +0.000 A 
ATOM     24  N   UNL     1      44.873   7.193  11.284  0.00  0.00    +0.000 NA
ATOM     25  C   UNL     1      43.721   6.621  11.410  0.00  0.00    +0.000 A 
ATOM     26  N   UNL     1      43.451   5.597  12.278  0.00  0.00    +0.000 N 
ATOM     27  C   UNL     1      44.423   5.003  13.052  0.00  0.00    +0.000 A 
ATOM     28  O   UNL     1      44.190   3.972  13.666  0.00  0.00    +0.000 OA
ATOM     29  C   UNL     1      45.714   5.663  13.008  0.00  0.00    +0.000 A 
ATOM     30  H   UNL     1      42.542   5.154  12.295  0.00  0.00    +0.000 HD
ENDBRANCH  17  20
ENDBRANCH   1  16
BRANCH   1  31
ATOM     31  C   UNL     1      47.116   4.908  18.571  0.00  0.00    +0.000 C 
BRANCH  31  32
ATOM     32  N   UNL     1      47.040   6.368  18.432  0.00  0.00    +0.000 NA
ATOM     33  H   UNL     1      46.689   6.766  19.303  0.00  0.00    +0.000 HD
ATOM     34  H   UNL     1      46.351   6.606  17.717  0.00  0.00    +0.000 HD
ENDBRANCH  31  32
ENDBRANCH   1  31
TORSDOF 8
ENDMDL
MODEL 8
REMARK VINA RESULT:    -6.691      3.584      5.267
REMARK INTER + INTRA:         -10.891
REMARK INTER:                  -9.673
REMARK INTRA:                  -1.218
REMARK UNBOUND:                -1.266
REMARK  Name = 
REMARK  8 active torsions:
REMARK  status: ('A' for Active; 'I' for Inactive)
REMARK    1  A    between atoms: N_1  and  C_2
REMARK    2  A    between atoms: C_2  and  C_3
REMARK    3  A    between atoms: C_3  and  N_4
REMARK    4  A    between atoms: C_3  and  C_17
REMARK    5  A    between atoms: C_5  and  C_7
REMARK    6  A    between atoms: C_20  and  O_21
REMARK    7  A    between atoms: O_21  and  C_22
REMARK    8  A    between atoms: C_22  and  C_23
REMARK                            x       y       z     vdW  Elec       q    Type
REMARK                         _______ _______ _______ _____ _____    ______ ____
ROOT
ATOM      1  C   UNL     1      49.326   6.272  17.793  0.00  0.00    +0.000 C 
ENDROOT
BRANCH   1   2
ATOM      2  C   UNL     1      48.543   5.586  16.676  0.00  0.00    +0.000 A 
ATOM      3  C   UNL     1      47.899   4.362  16.891  0.00  0.00    +0.000 A 
ATOM      4  C   UNL     1      47.107   3.789  15.891  0.00  0.00    +0.000 A 
ATOM      5  C   UNL     1      46.932   4.443  14.670  0.00  0.00    +0.000 A 
ATOM      6  C   UNL     1      47.627   5.626  14.422  0.00  0.00    +0.000 A 
ATOM      7  C   UNL     1      48.412   6.198  15.418  0.00  0.00    +0.000 A 
BRANCH   5   8
ATOM      8  O   UNL     1      46.053   3.866  13.792  0.00  0.00    +0.000 OA
BRANCH   8   9
ATOM      9  C   UNL     1      45.182   4.801  13.138  0.00  0.00    +0.000 C 
BRANCH   9  10
ATOM     10  C   UNL     1      45.187   4.630  11.638  0.00  0.00    +0.000 A 
ATOM     11  C   UNL     1      45.774   5.575  10.800  0.00  0.00    +0.000 A 
ATOM     12  C   UNL     1      45.717   5.378   9.425  0.00  0.00    +0.000 A 
ATOM     13  C   UNL     1      45.070   4.257   8.920  0.00  0.00    +0.000 A 
ATOM     14  C   UNL     1      44.496   3.374   9.816  0.00  0.00    +0.000 A 
ATOM     15  N   UNL     1      44.533   3.537  11.154  0.00  0.00    +0.000 NA
ENDBRANCH   9  10
ENDBRANCH   8   9
ENDBRANCH   5   8
ENDBRANCH   1   2
BRANCH   1  16
ATOM     16  N   UNL     1      50.405   5.376  18.196  0.00  0.00    +0.000 N 
ATOM     17  C   UNL     1      51.614   5.282  17.570  0.00  0.00    +0.000 C 
ATOM     18  O   UNL     1      51.935   6.005  16.633  0.00  0.00    +0.000 OA
ATOM     19  H   UNL     1      50.173   4.701  18.913  0.00  0.00    +0.000 HD
BRANCH  17  20
ATOM     20  C   UNL     1      52.534   4.278  18.127  0.00  0.00    +0.000 A 
ATOM     21  C   UNL     1      53.638   4.676  18.868  0.00  0.00    +0.000 A 
ATOM     22  S   UNL     1      54.583   3.373  19.439  0.00  0.00    +0.000 S 
ATOM     23  C   UNL     1      53.580   2.233  18.673  0.00  0.00    +0.000 A 
ATOM     24  N   UNL     1      53.855   0.901  18.732  0.00  0.00    +0.000 NA
ATOM     25  C   UNL     1      53.040   0.156  18.061  0.00  0.00    +0.000 A 
ATOM     26  N   UNL     1      51.964   0.620  17.351  0.00  0.00    +0.000 N 
ATOM     27  C   UNL     1      51.586   1.944  17.358  0.00  0.00    +0.000 A 
ATOM     28  O   UNL     1      50.516   2.290  16.876  0.00  0.00    +0.000 OA
ATOM     29  C   UNL     1      52.515   2.833  18.027  0.00  0.00    +0.000 A 
ATOM     30  H   UNL     1      51.332  -0.018  16.887  0.00  0.00    +0.000 HD
ENDBRANCH  17  20
ENDBRANCH   1  16
BRANCH   1  31
ATOM     31  C   UNL     1      48.410   6.619  19.001  0.00  0.00    +0.000 C 
BRANCH  31  32
ATOM     32  N   UNL     1      47.176   7.332  18.643  0.00  0.00    +0.000 NA
ATOM     33  H   UNL     1      46.783   6.913  17.801  0.00  0.00    +0.000 HD
ATOM     34  H   UNL     1      47.400   8.297  18.397  0.00  0.00    +0.000 HD
ENDBRANCH  31  32
ENDBRANCH   1  31
TORSDOF 8
ENDMDL
MODEL 9
REMARK VINA RESULT:    -6.667      3.745      8.398
REMARK INTER + INTRA:         -10.857
REMARK INTER:                  -9.608
REMARK INTRA:                  -1.249
REMARK UNBOUND:                -1.266
REMARK  Name = 
REMARK  8 active torsions:
REMARK  status: ('A' for Active; 'I' for Inactive)
REMARK    1  A    between atoms: N_1  and  C_2
REMARK    2  A    between atoms: C_2  and  C_3
REMARK    3  A    between atoms: C_3  and  N_4
REMARK    4  A    between atoms: C_3  and  C_17
REMARK    5  A    between atoms: C_5  and  C_7
REMARK    6  A    between atoms: C_20  and  O_21
REMARK    7  A    between atoms: O_21  and  C_22
REMARK    8  A    between atoms: C_22  and  C_23
REMARK                            x       y       z     vdW  Elec       q    Type
REMARK                         _______ _______ _______ _____ _____    ______ ____
ROOT
ATOM      1  C   UNL     1      48.269   7.420  13.539  0.00  0.00    +0.000 C 
ENDROOT
BRANCH   1   2
ATOM      2  C   UNL     1      48.588   6.650  14.819  0.00  0.00    +0.000 A 
ATOM      3  C   UNL     1      47.813   5.553  15.215  0.00  0.00    +0.000 A 
ATOM      4  C   UNL     1      48.169   4.799  16.337  0.00  0.00    +0.000 A 
ATOM      5  C   UNL     1      49.316   5.119  17.065  0.00  0.00    +0.000 A 
ATOM      6  C   UNL     1      50.052   6.252  16.721  0.00  0.00    +0.000 A 
ATOM      7  C   UNL     1      49.700   7.001  15.602  0.00  0.00    +0.000 A 
BRANCH   5   8
ATOM      8  O   UNL     1      49.650   4.262  18.081  0.00  0.00    +0.000 OA
BRANCH   8   9
ATOM      9  C   UNL     1      49.770   2.891  17.674  0.00  0.00    +0.000 C 
BRANCH   9  10
ATOM     10  C   UNL     1      51.199   2.407  17.719  0.00  0.00    +0.000 A 
ATOM     11  C   UNL     1      52.245   3.257  18.067  0.00  0.00    +0.000 A 
ATOM     12  C   UNL     1      53.544   2.760  18.058  0.00  0.00    +0.000 A 
ATOM     13  C   UNL     1      53.768   1.439  17.693  0.00  0.00    +0.000 A 
ATOM     14  C   UNL     1      52.679   0.663  17.343  0.00  0.00    +0.000 A 
ATOM     15  N   UNL     1      51.409   1.114  17.341  0.00  0.00    +0.000 NA
ENDBRANCH   9  10
ENDBRANCH   8   9
ENDBRANCH   5   8
ENDBRANCH   1   2
BRANCH   1  16
ATOM     16  N   UNL     1      47.524   6.529  12.656  0.00  0.00    +0.000 N 
ATOM     17  C   UNL     1      46.438   6.896  11.915  0.00  0.00    +0.000 C 
ATOM     18  O   UNL     1      46.024   8.049  11.870  0.00  0.00    +0.000 OA
ATOM     19  H   UNL     1      47.770   5.549  12.709  0.00  0.00    +0.000 HD
BRANCH  17  20
ATOM     20  C   UNL     1      45.821   5.817  11.127  0.00  0.00    +0.000 A 
ATOM     21  C   UNL     1      45.958   5.793   9.746  0.00  0.00    +0.000 A 
ATOM     22  S   UNL     1      45.183   4.463   9.007  0.00  0.00    +0.000 S 
ATOM     23  C   UNL     1      44.593   3.901  10.500  0.00  0.00    +0.000 A 
ATOM     24  N   UNL     1      43.802   2.796  10.574  0.00  0.00    +0.000 NA
ATOM     25  C   UNL     1      43.383   2.515  11.764  0.00  0.00    +0.000 A 
ATOM     26  N   UNL     1      43.699   3.229  12.889  0.00  0.00    +0.000 N 
ATOM     27  C   UNL     1      44.585   4.284  12.876  0.00  0.00    +0.000 A 
ATOM     28  O   UNL     1      44.991   4.771  13.921  0.00  0.00    +0.000 OA
ATOM     29  C   UNL     1      45.017   4.690  11.553  0.00  0.00    +0.000 A 
ATOM     30  H   UNL     1      43.382   2.930  13.802  0.00  0.00    +0.000 HD
ENDBRANCH  17  20
ENDBRANCH   1  16
BRANCH   1  31
ATOM     31  C   UNL     1      49.564   7.936  12.847  0.00  0.00    +0.000 C 
BRANCH  31  32
ATOM     32  N   UNL     1      50.120   7.023  11.839  0.00  0.00    +0.000 NA
ATOM     33  H   UNL     1      49.500   6.219  11.742  0.00  0.00    +0.000 HD
ATOM     34  H   UNL     1      51.011   6.651  12.172  0.00  0.00    +0.000 HD
ENDBRANCH  31  32
ENDBRANCH   1  31
TORSDOF 8
ENDMDL
