MODEL 1
REMARK VINA RESULT:    -7.893      0.000      0.000
REMARK INTER + INTRA:         -12.970
REMARK INTER:                 -11.584
REMARK INTRA:                  -1.386
REMARK UNBOUND:                -1.386
REMARK  Name = 
REMARK  9 active torsions:
REMARK  status: ('A' for Active; 'I' for Inactive)
REMARK    1  A    between atoms: C_1  and  O_2
REMARK    2  A    between atoms: O_2  and  C_3
REMARK    3  A    between atoms: C_5  and  C_6
REMARK    4  A    between atoms: C_6  and  N_7
REMARK    5  A    between atoms: N_7  and  C_8
REMARK    6  A    between atoms: C_8  and  C_9
REMARK    7  A    between atoms: C_17  and  C_18
REMARK    8  A    between atoms: C_18  and  N_19
REMARK    9  A    between atoms: C_20  and  C_22
REMARK                            x       y       z     vdW  Elec       q    Type
REMARK                         _______ _______ _______ _____ _____    ______ ____
ROOT
ATOM      1  C   UNL     1      46.626   5.164  13.006  0.00  0.00    +0.000 A 
ATOM      2  C   UNL     1      45.529   4.546  12.394  0.00  0.00    +0.000 A 
ATOM      3  C   UNL     1      44.617   5.289  11.631  0.00  0.00    +0.000 A 
ATOM      4  C   UNL     1      44.803   6.672  11.507  0.00  0.00    +0.000 A 
ATOM      5  C   UNL     1      45.898   7.294  12.105  0.00  0.00    +0.000 A 
ATOM      6  C   UNL     1      46.818   6.549  12.860  0.00  0.00    +0.000 A 
ENDROOT
BRANCH   1   8
ATOM      7  C   UNL     1      47.059   3.896  14.976  0.00  0.00    +0.000 C 
ATOM      8  O   UNL     1      47.541   4.511  13.790  0.00  0.00    +0.000 OA
ENDBRANCH   1   8
BRANCH   3   9
ATOM      9  C   UNL     1      43.467   4.610  10.926  0.00  0.00    +0.000 C 
BRANCH   9  10
ATOM     10  N   UNL     1      43.979   3.565  10.044  0.00  0.00    +0.000 NA
ATOM     11  H   UNL     1      43.212   2.936   9.803  0.00  0.00    +0.000 HD
BRANCH  10  12
ATOM     12  C   UNL     1      44.581   4.097   8.834  0.00  0.00    +0.000 C 
BRANCH  12  13
ATOM     13  C   UNL     1      45.537   3.112   8.242  0.00  0.00    +0.000 A 
ATOM     14  C   UNL     1      45.561   1.784   8.608  0.00  0.00    +0.000 A 
ATOM     15  N   UNL     1      46.434   0.883   8.098  0.00  0.00    +0.000 NA
ATOM     16  C   UNL     1      47.297   1.362   7.187  0.00  0.00    +0.000 A 
ATOM     17  N   UNL     1      47.364   2.626   6.749  0.00  0.00    +0.000 NA
ATOM     18  C   UNL     1      46.472   3.479   7.290  0.00  0.00    +0.000 A 
ENDBRANCH  12  13
ENDBRANCH  10  12
ENDBRANCH   9  10
ENDBRANCH   3   9
BRANCH   6  19
ATOM     19  C   UNL     1      48.013   7.241  13.462  0.00  0.00    +0.000 C 
BRANCH  19  20
ATOM     20  N   UNL     1      47.942   7.315  14.904  0.00  0.00    +0.000 N 
ATOM     21  C   UNL     1      49.045   7.003  15.653  0.00  0.00    +0.000 C 
ATOM     22  O   UNL     1      50.109   6.684  15.124  0.00  0.00    +0.000 OA
ATOM     23  H   UNL     1      47.081   7.635  15.340  0.00  0.00    +0.000 HD
BRANCH  21  24
ATOM     24  C   UNL     1      48.916   7.013  17.113  0.00  0.00    +0.000 A 
ATOM     25  C   UNL     1      48.317   8.100  17.737  0.00  0.00    +0.000 A 
ATOM     26  S   UNL     1      48.525   8.109  19.430  0.00  0.00    +0.000 S 
ATOM     27  C   UNL     1      49.397   6.649  19.378  0.00  0.00    +0.000 A 
ATOM     28  N   UNL     1      49.999   6.148  20.489  0.00  0.00    +0.000 NA
ATOM     29  C   UNL     1      50.605   5.022  20.301  0.00  0.00    +0.000 A 
ATOM     30  N   UNL     1      50.614   4.327  19.119  0.00  0.00    +0.000 N 
ATOM     31  C   UNL     1      49.959   4.764  17.989  0.00  0.00    +0.000 A 
ATOM     32  O   UNL     1      49.827   4.052  17.000  0.00  0.00    +0.000 OA
ATOM     33  C   UNL     1      49.394   6.092  18.110  0.00  0.00    +0.000 A 
ATOM     34  H   UNL     1      51.020   3.403  19.071  0.00  0.00    +0.000 HD
ENDBRANCH  21  24
ENDBRANCH  19  20
ENDBRANCH   6  19
TORSDOF 8
ENDMDL
MODEL 2
REMARK VINA RESULT:    -7.864      1.672      2.446
REMARK INTER + INTRA:         -12.927
REMARK INTER:                 -11.835
REMARK INTRA:                  -1.092
REMARK UNBOUND:                -1.386
REMARK  Name = 
REMARK  9 active torsions:
REMARK  status: ('A' for Active; 'I' for Inactive)
REMARK    1  A    between atoms: C_1  and  O_2
REMARK    2  A    between atoms: O_2  and  C_3
REMARK    3  A    between atoms: C_5  and  C_6
REMARK    4  A    between atoms: C_6  and  N_7
REMARK    5  A    between atoms: N_7  and  C_8
REMARK    6  A    between atoms: C_8  and  C_9
REMARK    7  A    between atoms: C_17  and  C_18
REMARK    8  A    between atoms: C_18  and  N_19
REMARK    9  A    between atoms: C_20  and  C_22
REMARK                            x       y       z     vdW  Elec       q    Type
REMARK                         _______ _______ _______ _____ _____    ______ ____
ROOT
ATOM      1  C   UNL     1      45.311   7.925  11.965  0.00  0.00    +0.000 A 
ATOM      2  C   UNL     1      44.373   7.113  11.317  0.00  0.00    +0.000 A 
ATOM      3  C   UNL     1      44.549   5.723  11.250  0.00  0.00    +0.000 A 
ATOM      4  C   UNL     1      45.695   5.155  11.822  0.00  0.00    +0.000 A 
ATOM      5  C   UNL     1      46.629   5.956  12.477  0.00  0.00    +0.000 A 
ATOM      6  C   UNL     1      46.448   7.346  12.555  0.00  0.00    +0.000 A 
ENDROOT
BRANCH   1   8
ATOM      7  C   UNL     1      44.151   9.915  11.354  0.00  0.00    +0.000 C 
ATOM      8  O   UNL     1      45.223   9.291  12.046  0.00  0.00    +0.000 OA
ENDBRANCH   1   8
BRANCH   3   9
ATOM      9  C   UNL     1      43.507   4.843  10.600  0.00  0.00    +0.000 C 
BRANCH   9  10
ATOM     10  N   UNL     1      44.160   3.724   9.928  0.00  0.00    +0.000 NA
ATOM     11  H   UNL     1      43.521   2.927   9.925  0.00  0.00    +0.000 HD
BRANCH  10  12
ATOM     12  C   UNL     1      44.560   4.041   8.569  0.00  0.00    +0.000 C 
BRANCH  12  13
ATOM     13  C   UNL     1      45.586   3.070   8.079  0.00  0.00    +0.000 A 
ATOM     14  C   UNL     1      45.598   1.745   8.456  0.00  0.00    +0.000 A 
ATOM     15  N   UNL     1      46.531   0.857   8.039  0.00  0.00    +0.000 NA
ATOM     16  C   UNL     1      47.470   1.345   7.212  0.00  0.00    +0.000 A 
ATOM     17  N   UNL     1      47.556   2.608   6.773  0.00  0.00    +0.000 NA
ATOM     18  C   UNL     1      46.602   3.447   7.219  0.00  0.00    +0.000 A 
ENDBRANCH  12  13
ENDBRANCH  10  12
ENDBRANCH   9  10
ENDBRANCH   3   9
BRANCH   6  19
ATOM     19  C   UNL     1      47.453   8.181  13.303  0.00  0.00    +0.000 C 
BRANCH  19  20
ATOM     20  N   UNL     1      47.594   7.773  14.683  0.00  0.00    +0.000 N 
ATOM     21  C   UNL     1      48.678   7.027  15.062  0.00  0.00    +0.000 C 
ATOM     22  O   UNL     1      49.554   6.715  14.256  0.00  0.00    +0.000 OA
ATOM     23  H   UNL     1      46.901   8.080  15.361  0.00  0.00    +0.000 HD
BRANCH  21  24
ATOM     24  C   UNL     1      48.750   6.565  16.451  0.00  0.00    +0.000 A 
ATOM     25  C   UNL     1      49.367   7.364  17.405  0.00  0.00    +0.000 A 
ATOM     26  S   UNL     1      49.648   6.561  18.883  0.00  0.00    +0.000 S 
ATOM     27  C   UNL     1      48.929   5.134  18.298  0.00  0.00    +0.000 A 
ATOM     28  N   UNL     1      48.957   3.984  19.023  0.00  0.00    +0.000 NA
ATOM     29  C   UNL     1      48.352   2.990  18.461  0.00  0.00    +0.000 A 
ATOM     30  N   UNL     1      47.675   3.058  17.270  0.00  0.00    +0.000 N 
ATOM     31  C   UNL     1      47.564   4.220  16.539  0.00  0.00    +0.000 A 
ATOM     32  O   UNL     1      46.812   4.309  15.575  0.00  0.00    +0.000 OA
ATOM     33  C   UNL     1      48.352   5.320  17.054  0.00  0.00    +0.000 A 
ATOM     34  H   UNL     1      47.138   2.269  16.941  0.00  0.00    +0.000 HD
ENDBRANCH  21  24
ENDBRANCH  19  20
ENDBRANCH   6  19
TORSDOF 8
ENDMDL
MODEL 3
REMARK VINA RESULT:    -7.661      1.824      2.854
REMARK INTER + INTRA:         -12.630
REMARK INTER:                 -11.154
REMARK INTRA:                  -1.476
REMARK UNBOUND:                -1.386
REMARK  Name = 
REMARK  9 active torsions:
REMARK  status: ('A' for Active; 'I' for Inactive)
REMARK    1  A    between atoms: C_1  and  O_2
REMARK    2  A    between atoms: O_2  and  C_3
REMARK    3  A    between atoms: C_5  and  C_6
REMARK    4  A    between atoms: C_6  and  N_7
REMARK    5  A    between atoms: N_7  and  C_8
REMARK    6  A    between atoms: C_8  and  C_9
REMARK    7  A    between atoms: C_17  and  C_18
REMARK    8  A    between atoms: C_18  and  N_19
REMARK    9  A    between atoms: C_20  and  C_22
REMARK                            x       y       z     vdW  Elec       q    Type
REMARK                         _______ _______ _______ _____ _____    ______ ____
ROOT
ATOM      1  C   UNL     1      46.671   4.748  13.288  0.00  0.00    +0.000 A 
ATOM      2  C   UNL     1      45.596   4.020  12.764  0.00  0.00    +0.000 A 
ATOM      3  C   UNL     1      44.764   4.572  11.780  0.00  0.00    +0.000 A 
ATOM      4  C   UNL     1      45.007   5.880  11.340  0.00  0.00    +0.000 A 
ATOM      5  C   UNL     1      46.081   6.608  11.850  0.00  0.00    +0.000 A 
ATOM      6  C   UNL     1      46.922   6.053  12.827  0.00  0.00    +0.000 A 
ENDROOT
BRANCH   1   8
ATOM      7  C   UNL     1      46.933   4.018  15.540  0.00  0.00    +0.000 C 
ATOM      8  O   UNL     1      47.509   4.288  14.270  0.00  0.00    +0.000 OA
ENDBRANCH   1   8
BRANCH   3   9
ATOM      9  C   UNL     1      43.639   3.764  11.177  0.00  0.00    +0.000 C 
BRANCH   9  10
ATOM     10  N   UNL     1      43.912   3.520   9.764  0.00  0.00    +0.000 NA
ATOM     11  H   UNL     1      44.464   4.297   9.399  0.00  0.00    +0.000 HD
BRANCH  10  12
ATOM     12  C   UNL     1      44.611   2.268   9.535  0.00  0.00    +0.000 C 
BRANCH  12  13
ATOM     13  C   UNL     1      45.569   2.398   8.395  0.00  0.00    +0.000 A 
ATOM     14  C   UNL     1      45.683   3.547   7.644  0.00  0.00    +0.000 A 
ATOM     15  N   UNL     1      46.530   3.674   6.596  0.00  0.00    +0.000 NA
ATOM     16  C   UNL     1      47.280   2.595   6.319  0.00  0.00    +0.000 A 
ATOM     17  N   UNL     1      47.262   1.429   6.981  0.00  0.00    +0.000 NA
ATOM     18  C   UNL     1      46.400   1.359   8.014  0.00  0.00    +0.000 A 
ENDBRANCH  12  13
ENDBRANCH  10  12
ENDBRANCH   9  10
ENDBRANCH   3   9
BRANCH   6  19
ATOM     19  C   UNL     1      48.098   6.848  13.329  0.00  0.00    +0.000 C 
BRANCH  19  20
ATOM     20  N   UNL     1      47.916   7.305  14.689  0.00  0.00    +0.000 N 
ATOM     21  C   UNL     1      48.928   7.145  15.598  0.00  0.00    +0.000 C 
ATOM     22  O   UNL     1      50.004   6.641  15.277  0.00  0.00    +0.000 OA
ATOM     23  H   UNL     1      47.050   7.775  14.940  0.00  0.00    +0.000 HD
BRANCH  21  24
ATOM     24  C   UNL     1      48.683   7.549  16.985  0.00  0.00    +0.000 A 
ATOM     25  C   UNL     1      48.652   6.583  17.982  0.00  0.00    +0.000 A 
ATOM     26  S   UNL     1      48.049   7.161  19.469  0.00  0.00    +0.000 S 
ATOM     27  C   UNL     1      47.837   8.724  18.829  0.00  0.00    +0.000 A 
ATOM     28  N   UNL     1      47.218   9.699  19.545  0.00  0.00    +0.000 NA
ATOM     29  C   UNL     1      47.150  10.839  18.939  0.00  0.00    +0.000 A 
ATOM     30  N   UNL     1      47.694  11.103  17.708  0.00  0.00    +0.000 N 
ATOM     31  C   UNL     1      48.389  10.163  16.980  0.00  0.00    +0.000 A 
ATOM     32  O   UNL     1      49.019  10.460  15.971  0.00  0.00    +0.000 OA
ATOM     33  C   UNL     1      48.361   8.832  17.552  0.00  0.00    +0.000 A 
ATOM     34  H   UNL     1      47.694  12.043  17.339  0.00  0.00    +0.000 HD
ENDBRANCH  21  24
ENDBRANCH  19  20
ENDBRANCH   6  19
TORSDOF 8
ENDMDL
MODEL 4
REMARK VINA RESULT:    -7.496      1.963      2.730
REMARK INTER + INTRA:         -12.388
REMARK INTER:                 -11.222
REMARK INTRA:                  -1.166
REMARK UNBOUND:                -1.386
REMARK  Name = 
REMARK  9 active torsions:
REMARK  status: ('A' for Active; 'I' for Inactive)
REMARK    1  A    between atoms: C_1  and  O_2
REMARK    2  A    between atoms: O_2  and  C_3
REMARK    3  A    between atoms: C_5  and  C_6
REMARK    4  A    between atoms: C_6  and  N_7
REMARK    5  A    between atoms: N_7  and  C_8
REMARK    6  A    between atoms: C_8  and  C_9
REMARK    7  A    between atoms: C_17  and  C_18
REMARK    8  A    between atoms: C_18  and  N_19
REMARK    9  A    between atoms: C_20  and  C_22
REMARK                            x       y       z     vdW  Elec       q    Type
REMARK                         _______ _______ _______ _____ _____    ______ ____
ROOT
ATOM      1  C   UNL     1      46.216   6.660  12.579  0.00  0.00    +0.000 A 
ATOM      2  C   UNL     1      45.362   5.909  11.762  0.00  0.00    +0.000 A 
ATOM      3  C   UNL     1      45.236   4.523  11.933  0.00  0.00    +0.000 A 
ATOM      4  C   UNL     1      45.998   3.889  12.923  0.00  0.00    +0.000 A 
ATOM      5  C   UNL     1      46.843   4.629  13.747  0.00  0.00    +0.000 A 
ATOM      6  C   UNL     1      46.962   6.019  13.584  0.00  0.00    +0.000 A 
ENDROOT
BRANCH   1   8
ATOM      7  C   UNL     1      45.259   8.836  12.425  0.00  0.00    +0.000 C 
ATOM      8  O   UNL     1      46.414   8.010  12.454  0.00  0.00    +0.000 OA
ENDBRANCH   1   8
BRANCH   3   9
ATOM      9  C   UNL     1      44.272   3.726  11.086  0.00  0.00    +0.000 C 
BRANCH   9  10
ATOM     10  N   UNL     1      44.935   2.525  10.585  0.00  0.00    +0.000 NA
ATOM     11  H   UNL     1      44.724   1.749  11.214  0.00  0.00    +0.000 HD
BRANCH  10  12
ATOM     12  C   UNL     1      44.535   2.186   9.231  0.00  0.00    +0.000 C 
BRANCH  12  13
ATOM     13  C   UNL     1      45.715   2.193   8.314  0.00  0.00    +0.000 A 
ATOM     14  C   UNL     1      46.423   1.054   8.002  0.00  0.00    +0.000 A 
ATOM     15  N   UNL     1      47.507   1.045   7.190  0.00  0.00    +0.000 NA
ATOM     16  C   UNL     1      47.864   2.237   6.685  0.00  0.00    +0.000 A 
ATOM     17  N   UNL     1      47.251   3.407   6.911  0.00  0.00    +0.000 NA
ATOM     18  C   UNL     1      46.180   3.356   7.726  0.00  0.00    +0.000 A 
ENDBRANCH  12  13
ENDBRANCH  10  12
ENDBRANCH   9  10
ENDBRANCH   3   9
BRANCH   6  19
ATOM     19  C   UNL     1      47.852   6.799  14.516  0.00  0.00    +0.000 C 
BRANCH  19  20
ATOM     20  N   UNL     1      48.708   5.944  15.308  0.00  0.00    +0.000 N 
ATOM     21  C   UNL     1      49.031   6.309  16.588  0.00  0.00    +0.000 C 
ATOM     22  O   UNL     1      48.588   7.341  17.091  0.00  0.00    +0.000 OA
ATOM     23  H   UNL     1      49.026   5.063  14.914  0.00  0.00    +0.000 HD
BRANCH  21  24
ATOM     24  C   UNL     1      49.962   5.459  17.336  0.00  0.00    +0.000 A 
ATOM     25  C   UNL     1      50.974   6.049  18.083  0.00  0.00    +0.000 A 
ATOM     26  S   UNL     1      52.149   4.938  18.628  0.00  0.00    +0.000 S 
ATOM     27  C   UNL     1      51.323   3.638  17.905  0.00  0.00    +0.000 A 
ATOM     28  N   UNL     1      51.864   2.391  17.873  0.00  0.00    +0.000 NA
ATOM     29  C   UNL     1      51.113   1.502  17.311  0.00  0.00    +0.000 A 
ATOM     30  N   UNL     1      49.850   1.736  16.831  0.00  0.00    +0.000 N 
ATOM     31  C   UNL     1      49.238   2.968  16.906  0.00  0.00    +0.000 A 
ATOM     32  O   UNL     1      48.052   3.120  16.637  0.00  0.00    +0.000 OA
ATOM     33  C   UNL     1      50.099   4.028  17.390  0.00  0.00    +0.000 A 
ATOM     34  H   UNL     1      49.279   0.973  16.498  0.00  0.00    +0.000 HD
ENDBRANCH  21  24
ENDBRANCH  19  20
ENDBRANCH   6  19
TORSDOF 8
ENDMDL
MODEL 5
REMARK VINA RESULT:    -7.053      2.400      3.509
REMARK INTER + INTRA:         -11.737
REMARK INTER:                 -10.547
REMARK INTRA:                  -1.190
REMARK UNBOUND:                -1.386
REMARK  Name = 
REMARK  9 active torsions:
REMARK  status: ('A' for Active; 'I' for Inactive)
REMARK    1  A    between atoms: C_1  and  O_2
REMARK    2  A    between atoms: O_2  and  C_3
REMARK    3  A    between atoms: C_5  and  C_6
REMARK    4  A    between atoms: C_6  and  N_7
REMARK    5  A    between atoms: N_7  and  C_8
REMARK    6  A    between atoms: C_8  and  C_9
REMARK    7  A    between atoms: C_17  and  C_18
REMARK    8  A    between atoms: C_18  and  N_19
REMARK    9  A    between atoms: C_20  and  C_22
REMARK                            x       y       z     vdW  Elec       q    Type
REMARK                         _______ _______ _______ _____ _____    ______ ____
ROOT
ATOM      1  C   UNL     1      47.974   6.526  13.861  0.00  0.00    +0.000 A 
ATOM      2  C   UNL     1      47.081   5.877  13.000  0.00  0.00    +0.000 A 
ATOM      3  C   UNL     1      46.411   4.712  13.402  0.00  0.00    +0.000 A 
ATOM      4  C   UNL     1      46.665   4.188  14.676  0.00  0.00    +0.000 A 
ATOM      5  C   UNL     1      47.545   4.833  15.543  0.00  0.00    +0.000 A 
ATOM      6  C   UNL     1      48.209   6.005  15.146  0.00  0.00    +0.000 A 
ENDROOT
BRANCH   1   8
ATOM      7  C   UNL     1      48.468   8.199  12.238  0.00  0.00    +0.000 C 
ATOM      8  O   UNL     1      48.688   7.648  13.529  0.00  0.00    +0.000 OA
ENDBRANCH   1   8
BRANCH   3   9
ATOM      9  C   UNL     1      45.406   4.047  12.492  0.00  0.00    +0.000 C 
BRANCH   9  10
ATOM     10  N   UNL     1      44.898   5.018  11.527  0.00  0.00    +0.000 NA
ATOM     11  H   UNL     1      45.691   5.495  11.095  0.00  0.00    +0.000 HD
BRANCH  10  12
ATOM     12  C   UNL     1      44.070   4.409  10.501  0.00  0.00    +0.000 C 
BRANCH  12  13
ATOM     13  C   UNL     1      44.916   3.794   9.434  0.00  0.00    +0.000 A 
ATOM     14  C   UNL     1      45.043   2.432   9.274  0.00  0.00    +0.000 A 
ATOM     15  N   UNL     1      45.822   1.858   8.327  0.00  0.00    +0.000 NA
ATOM     16  C   UNL     1      46.481   2.709   7.524  0.00  0.00    +0.000 A 
ATOM     17  N   UNL     1      46.432   4.047   7.579  0.00  0.00    +0.000 NA
ATOM     18  C   UNL     1      45.642   4.562   8.540  0.00  0.00    +0.000 A 
ENDBRANCH  12  13
ENDBRANCH  10  12
ENDBRANCH   9  10
ENDBRANCH   3   9
BRANCH   6  19
ATOM     19  C   UNL     1      49.123   6.702  16.118  0.00  0.00    +0.000 C 
BRANCH  19  20
ATOM     20  N   UNL     1      49.797   5.779  17.003  0.00  0.00    +0.000 N 
ATOM     21  C   UNL     1      51.165   5.708  16.993  0.00  0.00    +0.000 C 
ATOM     22  O   UNL     1      51.839   6.432  16.262  0.00  0.00    +0.000 OA
ATOM     23  H   UNL     1      49.244   5.223  17.650  0.00  0.00    +0.000 HD
BRANCH  21  24
ATOM     24  C   UNL     1      51.812   4.707  17.847  0.00  0.00    +0.000 A 
ATOM     25  C   UNL     1      52.743   5.117  18.793  0.00  0.00    +0.000 A 
ATOM     26  S   UNL     1      53.627   3.828  19.477  0.00  0.00    +0.000 S 
ATOM     27  C   UNL     1      52.772   2.687  18.547  0.00  0.00    +0.000 A 
ATOM     28  N   UNL     1      53.127   1.375  18.544  0.00  0.00    +0.000 NA
ATOM     29  C   UNL     1      52.374   0.625  17.810  0.00  0.00    +0.000 A 
ATOM     30  N   UNL     1      51.267   1.059  17.126  0.00  0.00    +0.000 N 
ATOM     31  C   UNL     1      50.833   2.365  17.158  0.00  0.00    +0.000 A 
ATOM     32  O   UNL     1      49.750   2.701  16.691  0.00  0.00    +0.000 OA
ATOM     33  C   UNL     1      51.731   3.270  17.845  0.00  0.00    +0.000 A 
ATOM     34  H   UNL     1      50.665   0.399  16.655  0.00  0.00    +0.000 HD
ENDBRANCH  21  24
ENDBRANCH  19  20
ENDBRANCH   6  19
TORSDOF 8
ENDMDL
MODEL 6
REMARK VINA RESULT:    -6.816      3.446      8.779
REMARK INTER + INTRA:         -11.390
REMARK INTER:                  -9.833
REMARK INTRA:                  -1.557
REMARK UNBOUND:                -1.386
REMARK  Name = 
REMARK  9 active torsions:
REMARK  status: ('A' for Active; 'I' for Inactive)
REMARK    1  A    between atoms: C_1  and  O_2
REMARK    2  A    between atoms: O_2  and  C_3
REMARK    3  A    between atoms: C_5  and  C_6
REMARK    4  A    between atoms: C_6  and  N_7
REMARK    5  A    between atoms: N_7  and  C_8
REMARK    6  A    between atoms: C_8  and  C_9
REMARK    7  A    between atoms: C_17  and  C_18
REMARK    8  A    between atoms: C_18  and  N_19
REMARK    9  A    between atoms: C_20  and  C_22
REMARK                            x       y       z     vdW  Elec       q    Type
REMARK                         _______ _______ _______ _____ _____    ______ ____
ROOT
ATOM      1  C   UNL     1      49.271   4.901  17.536  0.00  0.00    +0.000 A 
ATOM      2  C   UNL     1      50.655   4.951  17.737  0.00  0.00    +0.000 A 
ATOM      3  C   UNL     1      51.435   3.787  17.668  0.00  0.00    +0.000 A 
ATOM      4  C   UNL     1      50.806   2.561  17.417  0.00  0.00    +0.000 A 
ATOM      5  C   UNL     1      49.429   2.504  17.207  0.00  0.00    +0.000 A 
ATOM      6  C   UNL     1      48.648   3.670  17.265  0.00  0.00    +0.000 A 
ENDROOT
BRANCH   1   8
ATOM      7  C   UNL     1      48.872   7.184  16.983  0.00  0.00    +0.000 C 
ATOM      8  O   UNL     1      48.440   5.988  17.617  0.00  0.00    +0.000 OA
ENDBRANCH   1   8
BRANCH   3   9
ATOM      9  C   UNL     1      52.936   3.853  17.830  0.00  0.00    +0.000 C 
BRANCH   9  10
ATOM     10  N   UNL     1      53.373   5.246  17.794  0.00  0.00    +0.000 NA
ATOM     11  H   UNL     1      53.667   5.520  18.732  0.00  0.00    +0.000 HD
BRANCH  10  12
ATOM     12  C   UNL     1      54.455   5.469  16.852  0.00  0.00    +0.000 C 
BRANCH  12  13
ATOM     13  C   UNL     1      54.044   6.444  15.796  0.00  0.00    +0.000 A 
ATOM     14  C   UNL     1      52.877   7.171  15.866  0.00  0.00    +0.000 A 
ATOM     15  N   UNL     1      52.478   8.042  14.909  0.00  0.00    +0.000 NA
ATOM     16  C   UNL     1      53.305   8.168  13.857  0.00  0.00    +0.000 A 
ATOM     17  N   UNL     1      54.465   7.521  13.682  0.00  0.00    +0.000 NA
ATOM     18  C   UNL     1      54.811   6.668  14.666  0.00  0.00    +0.000 A 
ENDBRANCH  12  13
ENDBRANCH  10  12
ENDBRANCH   9  10
ENDBRANCH   3   9
BRANCH   6  19
ATOM     19  C   UNL     1      47.170   3.583  16.993  0.00  0.00    +0.000 C 
BRANCH  19  20
ATOM     20  N   UNL     1      46.752   4.458  15.920  0.00  0.00    +0.000 N 
ATOM     21  C   UNL     1      46.933   4.068  14.620  0.00  0.00    +0.000 C 
ATOM     22  O   UNL     1      47.422   2.975  14.340  0.00  0.00    +0.000 OA
ATOM     23  H   UNL     1      46.294   5.336  16.149  0.00  0.00    +0.000 HD
BRANCH  21  24
ATOM     24  C   UNL     1      46.570   5.011  13.558  0.00  0.00    +0.000 A 
ATOM     25  C   UNL     1      47.397   6.097  13.297  0.00  0.00    +0.000 A 
ATOM     26  S   UNL     1      46.688   7.257  12.267  0.00  0.00    +0.000 S 
ATOM     27  C   UNL     1      45.269   6.330  12.121  0.00  0.00    +0.000 A 
ATOM     28  N   UNL     1      44.175   6.814  11.475  0.00  0.00    +0.000 NA
ATOM     29  C   UNL     1      43.182   5.988  11.424  0.00  0.00    +0.000 A 
ATOM     30  N   UNL     1      43.205   4.706  11.912  0.00  0.00    +0.000 N 
ATOM     31  C   UNL     1      44.315   4.154  12.511  0.00  0.00    +0.000 A 
ATOM     32  O   UNL     1      44.380   2.960  12.779  0.00  0.00    +0.000 OA
ATOM     33  C   UNL     1      45.399   5.090  12.724  0.00  0.00    +0.000 A 
ATOM     34  H   UNL     1      42.429   4.082  11.746  0.00  0.00    +0.000 HD
ENDBRANCH  21  24
ENDBRANCH  19  20
ENDBRANCH   6  19
TORSDOF 8
ENDMDL
MODEL 7
REMARK VINA RESULT:    -6.800      4.040      9.341
REMARK INTER + INTRA:         -11.365
REMARK INTER:                 -10.215
REMARK INTRA:                  -1.150
REMARK UNBOUND:                -1.386
REMARK  Name = 
REMARK  9 active torsions:
REMARK  status: ('A' for Active; 'I' for Inactive)
REMARK    1  A    between atoms: C_1  and  O_2
REMARK    2  A    between atoms: O_2  and  C_3
REMARK    3  A    between atoms: C_5  and  C_6
REMARK    4  A    between atoms: C_6  and  N_7
REMARK    5  A    between atoms: N_7  and  C_8
REMARK    6  A    between atoms: C_8  and  C_9
REMARK    7  A    between atoms: C_17  and  C_18
REMARK    8  A    between atoms: C_18  and  N_19
REMARK    9  A    between atoms: C_20  and  C_22
REMARK                            x       y       z     vdW  Elec       q    Type
REMARK                         _______ _______ _______ _____ _____    ______ ____
ROOT
ATOM      1  C   UNL     1      49.279   4.629  17.749  0.00  0.00    +0.000 A 
ATOM      2  C   UNL     1      50.654   4.539  17.996  0.00  0.00    +0.000 A 
ATOM      3  C   UNL     1      51.348   3.340  17.779  0.00  0.00    +0.000 A 
ATOM      4  C   UNL     1      50.640   2.217  17.333  0.00  0.00    +0.000 A 
ATOM      5  C   UNL     1      49.273   2.299  17.076  0.00  0.00    +0.000 A 
ATOM      6  C   UNL     1      48.579   3.502  17.281  0.00  0.00    +0.000 A 
ENDROOT
BRANCH   1   8
ATOM      7  C   UNL     1      48.923   6.938  17.285  0.00  0.00    +0.000 C 
ATOM      8  O   UNL     1      48.528   5.754  17.964  0.00  0.00    +0.000 OA
ENDBRANCH   1   8
BRANCH   3   9
ATOM      9  C   UNL     1      52.841   3.263  17.993  0.00  0.00    +0.000 C 
BRANCH   9  10
ATOM     10  N   UNL     1      53.149   2.182  18.924  0.00  0.00    +0.000 NA
ATOM     11  H   UNL     1      52.572   1.374  18.689  0.00  0.00    +0.000 HD
BRANCH  10  12
ATOM     12  C   UNL     1      54.552   1.808  18.906  0.00  0.00    +0.000 C 
BRANCH  12  13
ATOM     13  C   UNL     1      54.765   0.595  18.059  0.00  0.00    +0.000 A 
ATOM     14  C   UNL     1      55.153   0.665  16.739  0.00  0.00    +0.000 A 
ATOM     15  N   UNL     1      55.329  -0.423  15.952  0.00  0.00    +0.000 NA
ATOM     16  C   UNL     1      55.105  -1.609  16.541  0.00  0.00    +0.000 A 
ATOM     17  N   UNL     1      54.732  -1.802  17.813  0.00  0.00    +0.000 NA
ATOM     18  C   UNL     1      54.571  -0.685  18.550  0.00  0.00    +0.000 A 
ENDBRANCH  12  13
ENDBRANCH  10  12
ENDBRANCH   9  10
ENDBRANCH   3   9
BRANCH   6  19
ATOM     19  C   UNL     1      47.110   3.573  16.956  0.00  0.00    +0.000 C 
BRANCH  19  20
ATOM     20  N   UNL     1      46.826   4.487  15.872  0.00  0.00    +0.000 N 
ATOM     21  C   UNL     1      47.006   4.078  14.578  0.00  0.00    +0.000 C 
ATOM     22  O   UNL     1      47.381   2.937  14.312  0.00  0.00    +0.000 OA
ATOM     23  H   UNL     1      46.460   5.410  16.089  0.00  0.00    +0.000 HD
BRANCH  21  24
ATOM     24  C   UNL     1      46.784   5.053  13.507  0.00  0.00    +0.000 A 
ATOM     25  C   UNL     1      47.727   6.048  13.283  0.00  0.00    +0.000 A 
ATOM     26  S   UNL     1      47.182   7.276  12.232  0.00  0.00    +0.000 S 
ATOM     27  C   UNL     1      45.682   6.499  12.026  0.00  0.00    +0.000 A 
ATOM     28  N   UNL     1      44.670   7.093  11.340  0.00  0.00    +0.000 NA
ATOM     29  C   UNL     1      43.600   6.374  11.247  0.00  0.00    +0.000 A 
ATOM     30  N   UNL     1      43.472   5.097  11.730  0.00  0.00    +0.000 N 
ATOM     31  C   UNL     1      44.495   4.433  12.369  0.00  0.00    +0.000 A 
ATOM     32  O   UNL     1      44.427   3.238  12.635  0.00  0.00    +0.000 OA
ATOM     33  C   UNL     1      45.661   5.253  12.629  0.00  0.00    +0.000 A 
ATOM     34  H   UNL     1      42.643   4.556  11.532  0.00  0.00    +0.000 HD
ENDBRANCH  21  24
ENDBRANCH  19  20
ENDBRANCH   6  19
TORSDOF 8
ENDMDL
MODEL 8
REMARK VINA RESULT:    -6.705      4.471      9.093
REMARK INTER + INTRA:         -11.226
REMARK INTER:                  -9.692
REMARK INTRA:                  -1.534
REMARK UNBOUND:                -1.386
REMARK  Name = 
REMARK  9 active torsions:
REMARK  status: ('A' for Active; 'I' for Inactive)
REMARK    1  A    between atoms: C_1  and  O_2
REMARK    2  A    between atoms: O_2  and  C_3
REMARK    3  A    between atoms: C_5  and  C_6
REMARK    4  A    between atoms: C_6  and  N_7
REMARK    5  A    between atoms: N_7  and  C_8
REMARK    6  A    between atoms: C_8  and  C_9
REMARK    7  A    between atoms: C_17  and  C_18
REMARK    8  A    between atoms: C_18  and  N_19
REMARK    9  A    between atoms: C_20  and  C_22
REMARK                            x       y       z     vdW  Elec       q    Type
REMARK                         _______ _______ _______ _____ _____    ______ ____
ROOT
ATOM      1  C   UNL     1      49.473   4.286  17.899  0.00  0.00    +0.000 A 
ATOM      2  C   UNL     1      50.822   4.026  18.165  0.00  0.00    +0.000 A 
ATOM      3  C   UNL     1      51.418   2.823  17.759  0.00  0.00    +0.000 A 
ATOM      4  C   UNL     1      50.635   1.866  17.099  0.00  0.00    +0.000 A 
ATOM      5  C   UNL     1      49.293   2.121  16.822  0.00  0.00    +0.000 A 
ATOM      6  C   UNL     1      48.698   3.329  17.218  0.00  0.00    +0.000 A 
ENDROOT
BRANCH   1   8
ATOM      7  C   UNL     1      49.605   6.489  18.796  0.00  0.00    +0.000 C 
ATOM      8  O   UNL     1      48.815   5.422  18.290  0.00  0.00    +0.000 OA
ENDBRANCH   1   8
BRANCH   3   9
ATOM      9  C   UNL     1      52.887   2.569  17.998  0.00  0.00    +0.000 C 
BRANCH   9  10
ATOM     10  N   UNL     1      53.075   1.215  18.511  0.00  0.00    +0.000 NA
ATOM     11  H   UNL     1      52.526   0.571  17.941  0.00  0.00    +0.000 HD
BRANCH  10  12
ATOM     12  C   UNL     1      54.468   0.806  18.516  0.00  0.00    +0.000 C 
BRANCH  12  13
ATOM     13  C   UNL     1      54.606  -0.605  18.041  0.00  0.00    +0.000 A 
ATOM     14  C   UNL     1      54.356  -1.692  18.848  0.00  0.00    +0.000 A 
ATOM     15  N   UNL     1      54.496  -2.975  18.441  0.00  0.00    +0.000 NA
ATOM     16  C   UNL     1      54.898  -3.141  17.170  0.00  0.00    +0.000 A 
ATOM     17  N   UNL     1      55.164  -2.165  16.291  0.00  0.00    +0.000 NA
ATOM     18  C   UNL     1      55.008  -0.908  16.751  0.00  0.00    +0.000 A 
ENDBRANCH  12  13
ENDBRANCH  10  12
ENDBRANCH   9  10
ENDBRANCH   3   9
BRANCH   6  19
ATOM     19  C   UNL     1      47.257   3.594  16.869  0.00  0.00    +0.000 C 
BRANCH  19  20
ATOM     20  N   UNL     1      47.111   4.627  15.868  0.00  0.00    +0.000 N 
ATOM     21  C   UNL     1      47.109   4.288  14.541  0.00  0.00    +0.000 C 
ATOM     22  O   UNL     1      47.204   3.116  14.179  0.00  0.00    +0.000 OA
ATOM     23  H   UNL     1      46.974   5.589  16.168  0.00  0.00    +0.000 HD
BRANCH  21  24
ATOM     24  C   UNL     1      47.037   5.366  13.551  0.00  0.00    +0.000 A 
ATOM     25  C   UNL     1      45.949   5.430  12.689  0.00  0.00    +0.000 A 
ATOM     26  S   UNL     1      46.164   6.535  11.407  0.00  0.00    +0.000 S 
ATOM     27  C   UNL     1      47.703   6.976  11.984  0.00  0.00    +0.000 A 
ATOM     28  N   UNL     1      48.512   7.800  11.267  0.00  0.00    +0.000 NA
ATOM     29  C   UNL     1      49.640   8.065  11.840  0.00  0.00    +0.000 A 
ATOM     30  N   UNL     1      50.005   7.625  13.087  0.00  0.00    +0.000 N 
ATOM     31  C   UNL     1      49.186   6.847  13.875  0.00  0.00    +0.000 A 
ATOM     32  O   UNL     1      49.448   6.612  15.049  0.00  0.00    +0.000 OA
ATOM     33  C   UNL     1      47.977   6.402  13.213  0.00  0.00    +0.000 A 
ATOM     34  H   UNL     1      50.857   7.955  13.517  0.00  0.00    +0.000 HD
ENDBRANCH  21  24
ENDBRANCH  19  20
ENDBRANCH   6  19
TORSDOF 8
ENDMDL
MODEL 9
REMARK VINA RESULT:    -6.684      3.488      8.729
REMARK INTER + INTRA:         -11.196
REMARK INTER:                  -9.676
REMARK INTRA:                  -1.520
REMARK UNBOUND:                -1.386
REMARK  Name = 
REMARK  9 active torsions:
REMARK  status: ('A' for Active; 'I' for Inactive)
REMARK    1  A    between atoms: C_1  and  O_2
REMARK    2  A    between atoms: O_2  and  C_3
REMARK    3  A    between atoms: C_5  and  C_6
REMARK    4  A    between atoms: C_6  and  N_7
REMARK    5  A    between atoms: N_7  and  C_8
REMARK    6  A    between atoms: C_8  and  C_9
REMARK    7  A    between atoms: C_17  and  C_18
REMARK    8  A    between atoms: C_18  and  N_19
REMARK    9  A    between atoms: C_20  and  C_22
REMARK                            x       y       z     vdW  Elec       q    Type
REMARK                         _______ _______ _______ _____ _____    ______ ____
ROOT
ATOM      1  C   UNL     1      49.566   3.869  17.430  0.00  0.00    +0.000 A 
ATOM      2  C   UNL     1      50.603   4.523  18.106  0.00  0.00    +0.000 A 
ATOM      3  C   UNL     1      50.364   5.709  18.816  0.00  0.00    +0.000 A 
ATOM      4  C   UNL     1      49.071   6.249  18.821  0.00  0.00    +0.000 A 
ATOM      5  C   UNL     1      48.032   5.599  18.158  0.00  0.00    +0.000 A 
ATOM      6  C   UNL     1      48.267   4.406  17.456  0.00  0.00    +0.000 A 
ENDROOT
BRANCH   1   8
ATOM      7  C   UNL     1      50.722   1.808  17.124  0.00  0.00    +0.000 C 
ATOM      8  O   UNL     1      49.727   2.725  16.692  0.00  0.00    +0.000 OA
ENDBRANCH   1   8
BRANCH   3   9
ATOM      9  C   UNL     1      51.473   6.381  19.591  0.00  0.00    +0.000 C 
BRANCH   9  10
ATOM     10  N   UNL     1      51.679   7.733  19.080  0.00  0.00    +0.000 NA
ATOM     11  H   UNL     1      52.225   8.260  19.763  0.00  0.00    +0.000 HD
BRANCH  10  12
ATOM     12  C   UNL     1      52.350   7.750  17.792  0.00  0.00    +0.000 C 
BRANCH  12  13
ATOM     13  C   UNL     1      51.392   8.113  16.703  0.00  0.00    +0.000 A 
ATOM     14  C   UNL     1      50.617   9.251  16.739  0.00  0.00    +0.000 A 
ATOM     15  N   UNL     1      49.730   9.584  15.772  0.00  0.00    +0.000 NA
ATOM     16  C   UNL     1      49.645   8.726  14.742  0.00  0.00    +0.000 A 
ATOM     17  N   UNL     1      50.349   7.596  14.594  0.00  0.00    +0.000 NA
ATOM     18  C   UNL     1      51.216   7.315  15.586  0.00  0.00    +0.000 A 
ENDBRANCH  12  13
ENDBRANCH  10  12
ENDBRANCH   9  10
ENDBRANCH   3   9
BRANCH   6  19
ATOM     19  C   UNL     1      47.116   3.705  16.784  0.00  0.00    +0.000 C 
BRANCH  19  20
ATOM     20  N   UNL     1      46.551   4.481  15.703  0.00  0.00    +0.000 N 
ATOM     21  C   UNL     1      46.778   4.102  14.406  0.00  0.00    +0.000 C 
ATOM     22  O   UNL     1      47.433   3.096  14.138  0.00  0.00    +0.000 OA
ATOM     23  H   UNL     1      45.960   5.278  15.924  0.00  0.00    +0.000 HD
BRANCH  21  24
ATOM     24  C   UNL     1      46.255   4.954  13.335  0.00  0.00    +0.000 A 
ATOM     25  C   UNL     1      46.994   6.054  12.916  0.00  0.00    +0.000 A 
ATOM     26  S   UNL     1      46.120   7.110  11.901  0.00  0.00    +0.000 S 
ATOM     27  C   UNL     1      44.742   6.115  11.972  0.00  0.00    +0.000 A 
ATOM     28  N   UNL     1      43.562   6.507  11.422  0.00  0.00    +0.000 NA
ATOM     29  C   UNL     1      42.612   5.638  11.534  0.00  0.00    +0.000 A 
ATOM     30  N   UNL     1      42.751   4.395  12.095  0.00  0.00    +0.000 N 
ATOM     31  C   UNL     1      43.946   3.932  12.601  0.00  0.00    +0.000 A 
ATOM     32  O   UNL     1      44.099   2.763  12.935  0.00  0.00    +0.000 OA
ATOM     33  C   UNL     1      44.999   4.926  12.633  0.00  0.00    +0.000 A 
ATOM     34  H   UNL     1      41.994   3.728  12.057  0.00  0.00    +0.000 HD
ENDBRANCH  21  24
ENDBRANCH  19  20
ENDBRANCH   6  19
TORSDOF 8
ENDMDL
