MODEL 1
REMARK VINA RESULT:    -7.912      0.000      0.000
REMARK INTER + INTRA:         -10.876
REMARK INTER:                 -10.456
REMARK INTRA:                  -0.420
REMARK UNBOUND:                -0.420
REMARK  Name = 
REMARK  6 active torsions:
REMARK  status: ('A' for Active; 'I' for Inactive)
REMARK    1  A    between atoms: N_1  and  C_2
REMARK    2  A    between atoms: C_2  and  C_3
REMARK    3  A    between atoms: C_6  and  C_7
REMARK    4  A    between atoms: C_7  and  O_8
REMARK    5  A    between atoms: O_8  and  C_9
REMARK    6  A    between atoms: C_12  and  C_13
REMARK                            x       y       z     vdW  Elec       q    Type
REMARK                         _______ _______ _______ _____ _____    ______ ____
ROOT
ATOM      1  O   UNL     1      43.459   3.631  10.366  0.00  0.00    +0.000 OA
ENDROOT
BRANCH   1   2
ATOM      2  C   UNL     1      44.449   3.409   9.448  0.00  0.00    +0.000 A 
ATOM      3  C   UNL     1      45.118   4.385   8.710  0.00  0.00    +0.000 A 
ATOM      4  C   UNL     1      46.098   4.012   7.781  0.00  0.00    +0.000 A 
ATOM      5  C   UNL     1      46.425   2.664   7.598  0.00  0.00    +0.000 A 
ATOM      6  C   UNL     1      45.755   1.686   8.339  0.00  0.00    +0.000 A 
ATOM      7  C   UNL     1      44.774   2.062   9.260  0.00  0.00    +0.000 A 
BRANCH   5   8
ATOM      8  C   UNL     1      47.459   2.321   6.586  0.00  0.00    +0.000 C 
ATOM      9  N   UNL     1      47.444   3.014   5.409  0.00  0.00    +0.000 N 
ATOM     10  O   UNL     1      48.276   1.429   6.780  0.00  0.00    +0.000 OA
ATOM     11  H   UNL     1      46.660   3.578   5.116  0.00  0.00    +0.000 HD
ATOM     12  H   UNL     1      48.092   2.700   4.697  0.00  0.00    +0.000 HD
ENDBRANCH   5   8
ENDBRANCH   1   2
BRANCH   1  13
ATOM     13  C   UNL     1      43.385   4.940  10.933  0.00  0.00    +0.000 C 
BRANCH  13  17
ATOM     14  C   UNL     1      46.587   4.411  12.995  0.00  0.00    +0.000 C 
ATOM     15  C   UNL     1      45.676   3.279  12.491  0.00  0.00    +0.000 C 
ATOM     16  C   UNL     1      44.210   3.481  12.875  0.00  0.00    +0.000 C 
ATOM     17  C   UNL     1      43.657   4.853  12.447  0.00  0.00    +0.000 C 
ATOM     18  C   UNL     1      44.584   5.993  12.895  0.00  0.00    +0.000 C 
ATOM     19  C   UNL     1      46.046   5.763  12.498  0.00  0.00    +0.000 C 
BRANCH  14  20
ATOM     20  C   UNL     1      46.758   4.432  14.529  0.00  0.00    +0.000 C 
BRANCH  20  21
ATOM     21  N   UNL     1      47.533   3.300  15.022  0.00  0.00    +0.000 NA
ATOM     22  H   UNL     1      47.335   3.165  16.013  0.00  0.00    +0.000 HD
ATOM     23  H   UNL     1      48.528   3.513  14.958  0.00  0.00    +0.000 HD
ENDBRANCH  20  21
ENDBRANCH  14  20
ENDBRANCH  13  17
ENDBRANCH   1  13
TORSDOF 6
ENDMDL
MODEL 2
REMARK VINA RESULT:    -7.547      1.778      2.441
REMARK INTER + INTRA:         -10.394
REMARK INTER:                 -10.297
REMARK INTRA:                  -0.097
REMARK UNBOUND:                -0.420
REMARK  Name = 
REMARK  6 active torsions:
REMARK  status: ('A' for Active; 'I' for Inactive)
REMARK    1  A    between atoms: N_1  and  C_2
REMARK    2  A    between atoms: C_2  and  C_3
REMARK    3  A    between atoms: C_6  and  C_7
REMARK    4  A    between atoms: C_7  and  O_8
REMARK    5  A    between atoms: O_8  and  C_9
REMARK    6  A    between atoms: C_12  and  C_13
REMARK                            x       y       z     vdW  Elec       q    Type
REMARK                         _______ _______ _______ _____ _____    ______ ____
ROOT
ATOM      1  O   UNL     1      43.569   3.724  10.356  0.00  0.00    +0.000 OA
ENDROOT
BRANCH   1   2
ATOM      2  C   UNL     1      44.494   3.282   9.451  0.00  0.00    +0.000 A 
ATOM      3  C   UNL     1      44.924   1.964   9.292  0.00  0.00    +0.000 A 
ATOM      4  C   UNL     1      45.900   1.655   8.337  0.00  0.00    +0.000 A 
ATOM      5  C   UNL     1      46.441   2.659   7.526  0.00  0.00    +0.000 A 
ATOM      6  C   UNL     1      46.009   3.979   7.683  0.00  0.00    +0.000 A 
ATOM      7  C   UNL     1      45.039   4.283   8.642  0.00  0.00    +0.000 A 
BRANCH   5   8
ATOM      8  C   UNL     1      47.489   2.281   6.541  0.00  0.00    +0.000 C 
ATOM      9  N   UNL     1      47.493   2.933   5.342  0.00  0.00    +0.000 N 
ATOM     10  O   UNL     1      48.301   1.394   6.778  0.00  0.00    +0.000 OA
ATOM     11  H   UNL     1      46.715   3.488   5.018  0.00  0.00    +0.000 HD
ATOM     12  H   UNL     1      48.151   2.595   4.651  0.00  0.00    +0.000 HD
ENDBRANCH   5   8
ENDBRANCH   1   2
BRANCH   1  13
ATOM     13  C   UNL     1      43.552   3.080  11.631  0.00  0.00    +0.000 C 
BRANCH  13  17
ATOM     14  C   UNL     1      45.190   6.559  11.690  0.00  0.00    +0.000 C 
ATOM     15  C   UNL     1      45.922   5.243  12.006  0.00  0.00    +0.000 C 
ATOM     16  C   UNL     1      45.210   4.407  13.069  0.00  0.00    +0.000 C 
ATOM     17  C   UNL     1      43.730   4.138  12.736  0.00  0.00    +0.000 C 
ATOM     18  C   UNL     1      42.997   5.435  12.364  0.00  0.00    +0.000 C 
ATOM     19  C   UNL     1      43.734   6.252  11.298  0.00  0.00    +0.000 C 
BRANCH  14  20
ATOM     20  C   UNL     1      45.231   7.583  12.844  0.00  0.00    +0.000 C 
BRANCH  20  21
ATOM     21  N   UNL     1      44.770   8.905  12.436  0.00  0.00    +0.000 NA
ATOM     22  H   UNL     1      44.574   9.462  13.267  0.00  0.00    +0.000 HD
ATOM     23  H   UNL     1      43.887   8.820  11.936  0.00  0.00    +0.000 HD
ENDBRANCH  20  21
ENDBRANCH  14  20
ENDBRANCH  13  17
ENDBRANCH   1  13
TORSDOF 6
ENDMDL
MODEL 3
REMARK VINA RESULT:    -6.858      1.225      1.412
REMARK INTER + INTRA:          -9.483
REMARK INTER:                  -8.910
REMARK INTRA:                  -0.573
REMARK UNBOUND:                -0.420
REMARK  Name = 
REMARK  6 active torsions:
REMARK  status: ('A' for Active; 'I' for Inactive)
REMARK    1  A    between atoms: N_1  and  C_2
REMARK    2  A    between atoms: C_2  and  C_3
REMARK    3  A    between atoms: C_6  and  C_7
REMARK    4  A    between atoms: C_7  and  O_8
REMARK    5  A    between atoms: O_8  and  C_9
REMARK    6  A    between atoms: C_12  and  C_13
REMARK                            x       y       z     vdW  Elec       q    Type
REMARK                         _______ _______ _______ _____ _____    ______ ____
ROOT
ATOM      1  O   UNL     1      44.229   4.583  10.824  0.00  0.00    +0.000 OA
ENDROOT
BRANCH   1   2
ATOM      2  C   UNL     1      44.941   4.044   9.788  0.00  0.00    +0.000 A 
ATOM      3  C   UNL     1      45.654   4.756   8.823  0.00  0.00    +0.000 A 
ATOM      4  C   UNL     1      46.321   4.073   7.798  0.00  0.00    +0.000 A 
ATOM      5  C   UNL     1      46.290   2.675   7.741  0.00  0.00    +0.000 A 
ATOM      6  C   UNL     1      45.577   1.961   8.708  0.00  0.00    +0.000 A 
ATOM      7  C   UNL     1      44.908   2.648   9.726  0.00  0.00    +0.000 A 
BRANCH   5   8
ATOM      8  C   UNL     1      46.998   2.000   6.621  0.00  0.00    +0.000 C 
ATOM      9  N   UNL     1      47.380   2.770   5.560  0.00  0.00    +0.000 N 
ATOM     10  O   UNL     1      47.204   0.792   6.628  0.00  0.00    +0.000 OA
ATOM     11  H   UNL     1      47.027   3.703   5.407  0.00  0.00    +0.000 HD
ATOM     12  H   UNL     1      47.772   2.278   4.768  0.00  0.00    +0.000 HD
ENDBRANCH   5   8
ENDBRANCH   1   2
BRANCH   1  13
ATOM     13  C   UNL     1      44.347   5.992  11.026  0.00  0.00    +0.000 C 
BRANCH  13  17
ATOM     14  C   UNL     1      47.626   6.058  13.035  0.00  0.00    +0.000 C 
ATOM     15  C   UNL     1      46.746   4.811  12.839  0.00  0.00    +0.000 C 
ATOM     16  C   UNL     1      45.285   5.050  13.219  0.00  0.00    +0.000 C 
ATOM     17  C   UNL     1      44.666   6.267  12.508  0.00  0.00    +0.000 C 
ATOM     18  C   UNL     1      45.560   7.509  12.646  0.00  0.00    +0.000 C 
ATOM     19  C   UNL     1      47.017   7.240  12.260  0.00  0.00    +0.000 C 
BRANCH  14  20
ATOM     20  C   UNL     1      47.839   6.439  14.516  0.00  0.00    +0.000 C 
BRANCH  20  21
ATOM     21  N   UNL     1      47.947   5.273  15.384  0.00  0.00    +0.000 NA
ATOM     22  H   UNL     1      48.505   4.559  14.918  0.00  0.00    +0.000 HD
ATOM     23  H   UNL     1      47.024   4.865  15.526  0.00  0.00    +0.000 HD
ENDBRANCH  20  21
ENDBRANCH  14  20
ENDBRANCH  13  17
ENDBRANCH   1  13
TORSDOF 6
ENDMDL
MODEL 4
REMARK VINA RESULT:    -6.708      2.279      3.119
REMARK INTER + INTRA:          -9.286
REMARK INTER:                  -9.119
REMARK INTRA:                  -0.167
REMARK UNBOUND:                -0.420
REMARK  Name = 
REMARK  6 active torsions:
REMARK  status: ('A' for Active; 'I' for Inactive)
REMARK    1  A    between atoms: N_1  and  C_2
REMARK    2  A    between atoms: C_2  and  C_3
REMARK    3  A    between atoms: C_6  and  C_7
REMARK    4  A    between atoms: C_7  and  O_8
REMARK    5  A    between atoms: O_8  and  C_9
REMARK    6  A    between atoms: C_12  and  C_13
REMARK                            x       y       z     vdW  Elec       q    Type
REMARK                         _______ _______ _______ _____ _____    ______ ____
ROOT
ATOM      1  O   UNL     1      43.802   4.539  10.239  0.00  0.00    +0.000 OA
ENDROOT
BRANCH   1   2
ATOM      2  C   UNL     1      44.620   3.773   9.455  0.00  0.00    +0.000 A 
ATOM      3  C   UNL     1      44.807   2.395   9.563  0.00  0.00    +0.000 A 
ATOM      4  C   UNL     1      45.699   1.739   8.705  0.00  0.00    +0.000 A 
ATOM      5  C   UNL     1      46.397   2.455   7.726  0.00  0.00    +0.000 A 
ATOM      6  C   UNL     1      46.208   3.835   7.616  0.00  0.00    +0.000 A 
ATOM      7  C   UNL     1      45.322   4.487   8.479  0.00  0.00    +0.000 A 
BRANCH   5   8
ATOM      8  C   UNL     1      47.346   1.714   6.854  0.00  0.00    +0.000 C 
ATOM      9  N   UNL     1      48.446   2.386   6.405  0.00  0.00    +0.000 N 
ATOM     10  O   UNL     1      47.138   0.553   6.521  0.00  0.00    +0.000 OA
ATOM     11  H   UNL     1      48.533   3.390   6.456  0.00  0.00    +0.000 HD
ATOM     12  H   UNL     1      49.028   1.896   5.737  0.00  0.00    +0.000 HD
ENDBRANCH   5   8
ENDBRANCH   1   2
BRANCH   1  13
ATOM     13  C   UNL     1      44.403   5.190  11.359  0.00  0.00    +0.000 C 
BRANCH  13  17
ATOM     14  C   UNL     1      46.384   7.950  13.161  0.00  0.00    +0.000 C 
ATOM     15  C   UNL     1      44.925   8.086  12.692  0.00  0.00    +0.000 C 
ATOM     16  C   UNL     1      44.739   7.729  11.218  0.00  0.00    +0.000 C 
ATOM     17  C   UNL     1      45.297   6.340  10.857  0.00  0.00    +0.000 C 
ATOM     18  C   UNL     1      46.736   6.166  11.368  0.00  0.00    +0.000 C 
ATOM     19  C   UNL     1      46.892   6.532  12.847  0.00  0.00    +0.000 C 
BRANCH  14  20
ATOM     20  C   UNL     1      47.331   9.007  12.554  0.00  0.00    +0.000 C 
BRANCH  20  21
ATOM     21  N   UNL     1      46.806  10.362  12.671  0.00  0.00    +0.000 NA
ATOM     22  H   UNL     1      47.455  10.927  13.218  0.00  0.00    +0.000 HD
ATOM     23  H   UNL     1      45.932  10.346  13.194  0.00  0.00    +0.000 HD
ENDBRANCH  20  21
ENDBRANCH  14  20
ENDBRANCH  13  17
ENDBRANCH   1  13
TORSDOF 6
ENDMDL
MODEL 5
REMARK VINA RESULT:    -5.894      2.147      6.307
REMARK INTER + INTRA:          -8.210
REMARK INTER:                  -7.615
REMARK INTRA:                  -0.594
REMARK UNBOUND:                -0.420
REMARK  Name = 
REMARK  6 active torsions:
REMARK  status: ('A' for Active; 'I' for Inactive)
REMARK    1  A    between atoms: N_1  and  C_2
REMARK    2  A    between atoms: C_2  and  C_3
REMARK    3  A    between atoms: C_6  and  C_7
REMARK    4  A    between atoms: C_7  and  O_8
REMARK    5  A    between atoms: O_8  and  C_9
REMARK    6  A    between atoms: C_12  and  C_13
REMARK                            x       y       z     vdW  Elec       q    Type
REMARK                         _______ _______ _______ _____ _____    ______ ____
ROOT
ATOM      1  O   UNL     1      44.747   4.752   9.530  0.00  0.00    +0.000 OA
ENDROOT
BRANCH   1   2
ATOM      2  C   UNL     1      45.286   4.821  10.785  0.00  0.00    +0.000 A 
ATOM      3  C   UNL     1      45.964   5.912  11.329  0.00  0.00    +0.000 A 
ATOM      4  C   UNL     1      46.490   5.836  12.625  0.00  0.00    +0.000 A 
ATOM      5  C   UNL     1      46.327   4.674  13.389  0.00  0.00    +0.000 A 
ATOM      6  C   UNL     1      45.646   3.581  12.844  0.00  0.00    +0.000 A 
ATOM      7  C   UNL     1      45.129   3.660  11.548  0.00  0.00    +0.000 A 
BRANCH   5   8
ATOM      8  C   UNL     1      46.921   4.638  14.751  0.00  0.00    +0.000 C 
ATOM      9  N   UNL     1      47.577   5.755  15.183  0.00  0.00    +0.000 N 
ATOM     10  O   UNL     1      46.857   3.636  15.452  0.00  0.00    +0.000 OA
ATOM     11  H   UNL     1      47.855   6.501  14.563  0.00  0.00    +0.000 HD
ATOM     12  H   UNL     1      48.056   5.677  16.071  0.00  0.00    +0.000 HD
ENDBRANCH   5   8
ENDBRANCH   1   2
BRANCH   1  13
ATOM     13  C   UNL     1      45.658   4.787   8.431  0.00  0.00    +0.000 C 
BRANCH  13  17
ATOM     14  C   UNL     1      47.196   1.344   7.680  0.00  0.00    +0.000 C 
ATOM     15  C   UNL     1      47.601   2.653   6.980  0.00  0.00    +0.000 C 
ATOM     16  C   UNL     1      46.406   3.410   6.400  0.00  0.00    +0.000 C 
ATOM     17  C   UNL     1      45.295   3.670   7.435  0.00  0.00    +0.000 C 
ATOM     18  C   UNL     1      44.917   2.382   8.183  0.00  0.00    +0.000 C 
ATOM     19  C   UNL     1      46.133   1.644   8.751  0.00  0.00    +0.000 C 
BRANCH  14  20
ATOM     20  C   UNL     1      46.689   0.254   6.711  0.00  0.00    +0.000 C 
BRANCH  20  21
ATOM     21  N   UNL     1      46.632  -1.064   7.331  0.00  0.00    +0.000 NA
ATOM     22  H   UNL     1      47.554  -1.304   7.693  0.00  0.00    +0.000 HD
ATOM     23  H   UNL     1      46.413  -1.765   6.625  0.00  0.00    +0.000 HD
ENDBRANCH  20  21
ENDBRANCH  14  20
ENDBRANCH  13  17
ENDBRANCH   1  13
TORSDOF 6
ENDMDL
MODEL 6
REMARK VINA RESULT:    -5.838      4.296      8.272
REMARK INTER + INTRA:          -8.135
REMARK INTER:                  -7.677
REMARK INTRA:                  -0.458
REMARK UNBOUND:                -0.420
REMARK  Name = 
REMARK  6 active torsions:
REMARK  status: ('A' for Active; 'I' for Inactive)
REMARK    1  A    between atoms: N_1  and  C_2
REMARK    2  A    between atoms: C_2  and  C_3
REMARK    3  A    between atoms: C_6  and  C_7
REMARK    4  A    between atoms: C_7  and  O_8
REMARK    5  A    between atoms: O_8  and  C_9
REMARK    6  A    between atoms: C_12  and  C_13
REMARK                            x       y       z     vdW  Elec       q    Type
REMARK                         _______ _______ _______ _____ _____    ______ ____
ROOT
ATOM      1  O   UNL     1      47.430   3.234  14.519  0.00  0.00    +0.000 OA
ENDROOT
BRANCH   1   2
ATOM      2  C   UNL     1      47.724   3.738  15.756  0.00  0.00    +0.000 A 
ATOM      3  C   UNL     1      47.959   5.079  16.062  0.00  0.00    +0.000 A 
ATOM      4  C   UNL     1      48.275   5.454  17.374  0.00  0.00    +0.000 A 
ATOM      5  C   UNL     1      48.343   4.493  18.389  0.00  0.00    +0.000 A 
ATOM      6  C   UNL     1      48.106   3.149  18.083  0.00  0.00    +0.000 A 
ATOM      7  C   UNL     1      47.797   2.780  16.771  0.00  0.00    +0.000 A 
BRANCH   5   8
ATOM      8  C   UNL     1      48.702   4.941  19.760  0.00  0.00    +0.000 C 
ATOM      9  N   UNL     1      48.633   4.017  20.764  0.00  0.00    +0.000 N 
ATOM     10  O   UNL     1      49.016   6.102  19.994  0.00  0.00    +0.000 OA
ATOM     11  H   UNL     1      48.160   3.132  20.662  0.00  0.00    +0.000 HD
ATOM     12  H   UNL     1      48.787   4.365  21.702  0.00  0.00    +0.000 HD
ENDBRANCH   5   8
ENDBRANCH   1   2
BRANCH   1  13
ATOM     13  C   UNL     1      47.109   4.177  13.495  0.00  0.00    +0.000 C 
BRANCH  13  17
ATOM     14  C   UNL     1      44.547   5.198  10.814  0.00  0.00    +0.000 C 
ATOM     15  C   UNL     1      45.385   6.186  11.644  0.00  0.00    +0.000 C 
ATOM     16  C   UNL     1      45.277   5.939  13.149  0.00  0.00    +0.000 C 
ATOM     17  C   UNL     1      45.601   4.487  13.547  0.00  0.00    +0.000 C 
ATOM     18  C   UNL     1      44.814   3.484  12.690  0.00  0.00    +0.000 C 
ATOM     19  C   UNL     1      44.939   3.757  11.188  0.00  0.00    +0.000 C 
BRANCH  14  20
ATOM     20  C   UNL     1      43.024   5.397  10.966  0.00  0.00    +0.000 C 
BRANCH  20  21
ATOM     21  N   UNL     1      42.644   6.804  10.994  0.00  0.00    +0.000 NA
ATOM     22  H   UNL     1      41.635   6.875  11.125  0.00  0.00    +0.000 HD
ATOM     23  H   UNL     1      42.843   7.230  10.091  0.00  0.00    +0.000 HD
ENDBRANCH  20  21
ENDBRANCH  14  20
ENDBRANCH  13  17
ENDBRANCH   1  13
TORSDOF 6
ENDMDL
MODEL 7
REMARK VINA RESULT:    -5.731      3.640      5.996
REMARK INTER + INTRA:          -7.994
REMARK INTER:                  -7.424
REMARK INTRA:                  -0.571
REMARK UNBOUND:                -0.420
REMARK  Name = 
REMARK  6 active torsions:
REMARK  status: ('A' for Active; 'I' for Inactive)
REMARK    1  A    between atoms: N_1  and  C_2
REMARK    2  A    between atoms: C_2  and  C_3
REMARK    3  A    between atoms: C_6  and  C_7
REMARK    4  A    between atoms: C_7  and  O_8
REMARK    5  A    between atoms: O_8  and  C_9
REMARK    6  A    between atoms: C_12  and  C_13
REMARK                            x       y       z     vdW  Elec       q    Type
REMARK                         _______ _______ _______ _____ _____    ______ ____
ROOT
ATOM      1  O   UNL     1      48.368   5.951  14.009  0.00  0.00    +0.000 OA
ENDROOT
BRANCH   1   2
ATOM      2  C   UNL     1      47.307   5.463  13.297  0.00  0.00    +0.000 A 
ATOM      3  C   UNL     1      46.624   4.274  13.553  0.00  0.00    +0.000 A 
ATOM      4  C   UNL     1      45.565   3.881  12.724  0.00  0.00    +0.000 A 
ATOM      5  C   UNL     1      45.175   4.682  11.645  0.00  0.00    +0.000 A 
ATOM      6  C   UNL     1      45.859   5.874  11.389  0.00  0.00    +0.000 A 
ATOM      7  C   UNL     1      46.918   6.259  12.216  0.00  0.00    +0.000 A 
BRANCH   5   8
ATOM      8  C   UNL     1      44.059   4.210  10.784  0.00  0.00    +0.000 C 
ATOM      9  N   UNL     1      43.923   4.786   9.554  0.00  0.00    +0.000 N 
ATOM     10  O   UNL     1      43.266   3.360  11.172  0.00  0.00    +0.000 OA
ATOM     11  H   UNL     1      44.395   5.639   9.294  0.00  0.00    +0.000 HD
ATOM     12  H   UNL     1      43.102   4.521   9.024  0.00  0.00    +0.000 HD
ENDBRANCH   5   8
ENDBRANCH   1   2
BRANCH   1  13
ATOM     13  C   UNL     1      48.084   6.508  15.293  0.00  0.00    +0.000 C 
BRANCH  13  17
ATOM     14  C   UNL     1      47.718   5.505  18.988  0.00  0.00    +0.000 C 
ATOM     15  C   UNL     1      48.130   6.904  18.499  0.00  0.00    +0.000 C 
ATOM     16  C   UNL     1      49.304   6.871  17.521  0.00  0.00    +0.000 C 
ATOM     17  C   UNL     1      49.068   5.927  16.326  0.00  0.00    +0.000 C 
ATOM     18  C   UNL     1      48.603   4.540  16.794  0.00  0.00    +0.000 C 
ATOM     19  C   UNL     1      47.427   4.605  17.774  0.00  0.00    +0.000 C 
BRANCH  14  20
ATOM     20  C   UNL     1      48.761   4.840  19.912  0.00  0.00    +0.000 C 
BRANCH  20  21
ATOM     21  N   UNL     1      48.313   3.551  20.425  0.00  0.00    +0.000 NA
ATOM     22  H   UNL     1      47.553   3.203  19.841  0.00  0.00    +0.000 HD
ATOM     23  H   UNL     1      47.920   3.672  21.358  0.00  0.00    +0.000 HD
ENDBRANCH  20  21
ENDBRANCH  14  20
ENDBRANCH  13  17
ENDBRANCH   1  13
TORSDOF 6
ENDMDL
MODEL 8
REMARK VINA RESULT:    -5.727      3.564      5.653
REMARK INTER + INTRA:          -7.988
REMARK INTER:                  -7.511
REMARK INTRA:                  -0.477
REMARK UNBOUND:                -0.420
REMARK  Name = 
REMARK  6 active torsions:
REMARK  status: ('A' for Active; 'I' for Inactive)
REMARK    1  A    between atoms: N_1  and  C_2
REMARK    2  A    between atoms: C_2  and  C_3
REMARK    3  A    between atoms: C_6  and  C_7
REMARK    4  A    between atoms: C_7  and  O_8
REMARK    5  A    between atoms: O_8  and  C_9
REMARK    6  A    between atoms: C_12  and  C_13
REMARK                            x       y       z     vdW  Elec       q    Type
REMARK                         _______ _______ _______ _____ _____    ______ ____
ROOT
ATOM      1  O   UNL     1      47.783   4.842  14.381  0.00  0.00    +0.000 OA
ENDROOT
BRANCH   1   2
ATOM      2  C   UNL     1      46.844   4.936  13.391  0.00  0.00    +0.000 A 
ATOM      3  C   UNL     1      46.500   6.092  12.691  0.00  0.00    +0.000 A 
ATOM      4  C   UNL     1      45.497   6.049  11.714  0.00  0.00    +0.000 A 
ATOM      5  C   UNL     1      44.845   4.846  11.421  0.00  0.00    +0.000 A 
ATOM      6  C   UNL     1      45.190   3.687  12.121  0.00  0.00    +0.000 A 
ATOM      7  C   UNL     1      46.187   3.736  13.099  0.00  0.00    +0.000 A 
BRANCH   5   8
ATOM      8  C   UNL     1      43.775   4.859  10.389  0.00  0.00    +0.000 C 
ATOM      9  N   UNL     1      44.100   4.420   9.137  0.00  0.00    +0.000 N 
ATOM     10  O   UNL     1      42.650   5.277  10.636  0.00  0.00    +0.000 OA
ATOM     11  H   UNL     1      45.053   4.295   8.832  0.00  0.00    +0.000 HD
ATOM     12  H   UNL     1      43.387   4.527   8.426  0.00  0.00    +0.000 HD
ENDBRANCH   5   8
ENDBRANCH   1   2
BRANCH   1  13
ATOM     13  C   UNL     1      47.640   3.765  15.308  0.00  0.00    +0.000 C 
BRANCH  13  17
ATOM     14  C   UNL     1      49.522   4.182  18.636  0.00  0.00    +0.000 C 
ATOM     15  C   UNL     1      48.709   2.937  18.242  0.00  0.00    +0.000 C 
ATOM     16  C   UNL     1      47.285   3.272  17.800  0.00  0.00    +0.000 C 
ATOM     17  C   UNL     1      47.232   4.330  16.682  0.00  0.00    +0.000 C 
ATOM     18  C   UNL     1      48.084   5.558  17.035  0.00  0.00    +0.000 C 
ATOM     19  C   UNL     1      49.504   5.192  17.475  0.00  0.00    +0.000 C 
BRANCH  14  20
ATOM     20  C   UNL     1      49.036   4.853  19.939  0.00  0.00    +0.000 C 
BRANCH  20  21
ATOM     21  N   UNL     1      48.563   3.887  20.923  0.00  0.00    +0.000 NA
ATOM     22  H   UNL     1      48.724   2.944  20.570  0.00  0.00    +0.000 HD
ATOM     23  H   UNL     1      47.554   3.979  21.036  0.00  0.00    +0.000 HD
ENDBRANCH  20  21
ENDBRANCH  14  20
ENDBRANCH  13  17
ENDBRANCH   1  13
TORSDOF 6
ENDMDL
MODEL 9
REMARK VINA RESULT:    -5.599      3.347      4.387
REMARK INTER + INTRA:          -7.820
REMARK INTER:                  -7.039
REMARK INTRA:                  -0.780
REMARK UNBOUND:                -0.420
REMARK  Name = 
REMARK  6 active torsions:
REMARK  status: ('A' for Active; 'I' for Inactive)
REMARK    1  A    between atoms: N_1  and  C_2
REMARK    2  A    between atoms: C_2  and  C_3
REMARK    3  A    between atoms: C_6  and  C_7
REMARK    4  A    between atoms: C_7  and  O_8
REMARK    5  A    between atoms: O_8  and  C_9
REMARK    6  A    between atoms: C_12  and  C_13
REMARK                            x       y       z     vdW  Elec       q    Type
REMARK                         _______ _______ _______ _____ _____    ______ ____
ROOT
ATOM      1  O   UNL     1      45.022   6.674  12.880  0.00  0.00    +0.000 OA
ENDROOT
BRANCH   1   2
ATOM      2  C   UNL     1      44.941   5.681  11.943  0.00  0.00    +0.000 A 
ATOM      3  C   UNL     1      44.392   4.413  12.135  0.00  0.00    +0.000 A 
ATOM      4  C   UNL     1      44.396   3.481  11.090  0.00  0.00    +0.000 A 
ATOM      5  C   UNL     1      44.935   3.817   9.843  0.00  0.00    +0.000 A 
ATOM      6  C   UNL     1      45.484   5.088   9.650  0.00  0.00    +0.000 A 
ATOM      7  C   UNL     1      45.483   6.013  10.698  0.00  0.00    +0.000 A 
BRANCH   5   8
ATOM      8  C   UNL     1      44.933   2.784   8.774  0.00  0.00    +0.000 C 
ATOM      9  N   UNL     1      44.730   1.487   9.149  0.00  0.00    +0.000 N 
ATOM     10  O   UNL     1      45.139   3.074   7.601  0.00  0.00    +0.000 OA
ATOM     11  H   UNL     1      44.794   1.179  10.108  0.00  0.00    +0.000 HD
ATOM     12  H   UNL     1      44.828   0.790   8.422  0.00  0.00    +0.000 HD
ENDBRANCH   5   8
ENDBRANCH   1   2
BRANCH   1  13
ATOM     13  C   UNL     1      45.620   7.905  12.468  0.00  0.00    +0.000 C 
BRANCH  13  17
ATOM     14  C   UNL     1      49.450   7.849  12.125  0.00  0.00    +0.000 C 
ATOM     15  C   UNL     1      48.600   6.667  12.623  0.00  0.00    +0.000 C 
ATOM     16  C   UNL     1      47.661   7.051  13.766  0.00  0.00    +0.000 C 
ATOM     17  C   UNL     1      46.766   8.260  13.434  0.00  0.00    +0.000 C 
ATOM     18  C   UNL     1      47.593   9.431  12.882  0.00  0.00    +0.000 C 
ATOM     19  C   UNL     1      48.525   9.017  11.740  0.00  0.00    +0.000 C 
BRANCH  14  20
ATOM     20  C   UNL     1      50.513   8.319  13.141  0.00  0.00    +0.000 C 
BRANCH  20  21
ATOM     21  N   UNL     1      51.875   8.090  12.672  0.00  0.00    +0.000 NA
ATOM     22  H   UNL     1      52.354   7.471  13.325  0.00  0.00    +0.000 HD
ATOM     23  H   UNL     1      52.392   8.968  12.680  0.00  0.00    +0.000 HD
ENDBRANCH  20  21
ENDBRANCH  14  20
ENDBRANCH  13  17
ENDBRANCH   1  13
TORSDOF 6
ENDMDL
