MODEL 1
REMARK VINA RESULT:    -7.685      0.000      0.000
REMARK INTER + INTRA:         -10.824
REMARK INTER:                 -10.156
REMARK INTRA:                  -0.668
REMARK UNBOUND:                -0.668
REMARK  Name = 
REMARK  7 active torsions:
REMARK  status: ('A' for Active; 'I' for Inactive)
REMARK    1  A    between atoms: C_1  and  O_2
REMARK    2  A    between atoms: O_2  and  C_3
REMARK    3  A    between atoms: N_10  and  C_11
REMARK    4  A    between atoms: C_11  and  C_12
REMARK    5  A    between atoms: C_15  and  C_16
REMARK    6  A    between atoms: C_16  and  C_17
REMARK    7  A    between atoms: C_17  and  N_18
REMARK                            x       y       z     vdW  Elec       q    Type
REMARK                         _______ _______ _______ _____ _____    ______ ____
ROOT
ATOM      1  C   UNL     1      43.790   4.789  10.330  0.00  0.00    +0.000 C 
ENDROOT
BRANCH   1   9
ATOM      2  C   UNL     1      47.235   4.604  14.353  0.00  0.00    +0.000 A 
ATOM      3  C   UNL     1      46.612   3.527  13.723  0.00  0.00    +0.000 A 
ATOM      4  C   UNL     1      45.761   3.719  12.623  0.00  0.00    +0.000 A 
ATOM      5  C   UNL     1      45.531   5.031  12.173  0.00  0.00    +0.000 A 
ATOM      6  C   UNL     1      46.154   6.122  12.794  0.00  0.00    +0.000 A 
ATOM      7  C   UNL     1      45.748   7.291  12.097  0.00  0.00    +0.000 A 
ATOM      8  C   UNL     1      44.884   6.905  11.100  0.00  0.00    +0.000 A 
ATOM      9  N   UNL     1      44.737   5.538  11.164  0.00  0.00    +0.000 N 
ATOM     10  C   UNL     1      47.001   5.901  13.902  0.00  0.00    +0.000 A 
BRANCH   2  12
ATOM     11  C   UNL     1      47.558   3.733  16.526  0.00  0.00    +0.000 C 
ATOM     12  O   UNL     1      48.068   4.497  15.439  0.00  0.00    +0.000 OA
ENDBRANCH   2  12
ENDBRANCH   1   9
BRANCH   1  13
ATOM     13  C   UNL     1      44.499   3.852   9.395  0.00  0.00    +0.000 A 
ATOM     14  C   UNL     1      44.363   2.468   9.501  0.00  0.00    +0.000 A 
ATOM     15  C   UNL     1      45.201   1.631   8.768  0.00  0.00    +0.000 A 
ATOM     16  C   UNL     1      46.149   2.204   7.926  0.00  0.00    +0.000 A 
ATOM     17  N   UNL     1      46.216   3.539   7.717  0.00  0.00    +0.000 NA
ATOM     18  C   UNL     1      45.396   4.328   8.446  0.00  0.00    +0.000 A 
BRANCH  16  19
ATOM     19  C   UNL     1      47.242   1.366   7.309  0.00  0.00    +0.000 C 
BRANCH  19  20
ATOM     20  C   UNL     1      48.296   2.263   6.643  0.00  0.00    +0.000 C 
BRANCH  20  21
ATOM     21  N   UNL     1      48.398   2.008   5.204  0.00  0.00    +0.000 NA
ATOM     22  H   UNL     1      48.562   1.015   5.037  0.00  0.00    +0.000 HD
ATOM     23  H   UNL     1      49.208   2.501   4.836  0.00  0.00    +0.000 HD
ENDBRANCH  20  21
ENDBRANCH  19  20
ENDBRANCH  16  19
ENDBRANCH   1  13
TORSDOF 6
ENDMDL
MODEL 2
REMARK VINA RESULT:    -7.305      1.621      2.634
REMARK INTER + INTRA:         -10.322
REMARK INTER:                  -9.690
REMARK INTRA:                  -0.632
REMARK UNBOUND:                -0.668
REMARK  Name = 
REMARK  7 active torsions:
REMARK  status: ('A' for Active; 'I' for Inactive)
REMARK    1  A    between atoms: C_1  and  O_2
REMARK    2  A    between atoms: O_2  and  C_3
REMARK    3  A    between atoms: N_10  and  C_11
REMARK    4  A    between atoms: C_11  and  C_12
REMARK    5  A    between atoms: C_15  and  C_16
REMARK    6  A    between atoms: C_16  and  C_17
REMARK    7  A    between atoms: C_17  and  N_18
REMARK                            x       y       z     vdW  Elec       q    Type
REMARK                         _______ _______ _______ _____ _____    ______ ____
ROOT
ATOM      1  C   UNL     1      43.933   3.768  11.439  0.00  0.00    +0.000 C 
ENDROOT
BRANCH   1   9
ATOM      2  C   UNL     1      46.706   7.904  13.253  0.00  0.00    +0.000 A 
ATOM      3  C   UNL     1      45.535   7.938  12.498  0.00  0.00    +0.000 A 
ATOM      4  C   UNL     1      44.869   6.757  12.133  0.00  0.00    +0.000 A 
ATOM      5  C   UNL     1      45.418   5.526  12.532  0.00  0.00    +0.000 A 
ATOM      6  C   UNL     1      46.592   5.478  13.297  0.00  0.00    +0.000 A 
ATOM      7  C   UNL     1      46.866   4.110  13.561  0.00  0.00    +0.000 A 
ATOM      8  C   UNL     1      45.890   3.361  12.946  0.00  0.00    +0.000 A 
ATOM      9  N   UNL     1      45.028   4.221  12.305  0.00  0.00    +0.000 N 
ATOM     10  C   UNL     1      47.244   6.681  13.644  0.00  0.00    +0.000 A 
BRANCH   2  12
ATOM     11  C   UNL     1      48.314   8.815  14.727  0.00  0.00    +0.000 C 
ATOM     12  O   UNL     1      47.419   9.013  13.637  0.00  0.00    +0.000 OA
ENDBRANCH   2  12
ENDBRANCH   1   9
BRANCH   1  13
ATOM     13  C   UNL     1      44.413   3.488  10.044  0.00  0.00    +0.000 A 
ATOM     14  C   UNL     1      44.738   2.197   9.627  0.00  0.00    +0.000 A 
ATOM     15  C   UNL     1      45.385   2.005   8.408  0.00  0.00    +0.000 A 
ATOM     16  C   UNL     1      45.677   3.117   7.623  0.00  0.00    +0.000 A 
ATOM     17  N   UNL     1      45.262   4.362   7.953  0.00  0.00    +0.000 NA
ATOM     18  C   UNL     1      44.642   4.520   9.143  0.00  0.00    +0.000 A 
BRANCH  16  19
ATOM     19  C   UNL     1      46.593   3.001   6.429  0.00  0.00    +0.000 C 
BRANCH  19  20
ATOM     20  C   UNL     1      47.875   2.244   6.807  0.00  0.00    +0.000 C 
BRANCH  20  21
ATOM     21  N   UNL     1      48.605   1.785   5.622  0.00  0.00    +0.000 NA
ATOM     22  H   UNL     1      49.606   1.925   5.754  0.00  0.00    +0.000 HD
ATOM     23  H   UNL     1      48.335   2.358   4.825  0.00  0.00    +0.000 HD
ENDBRANCH  20  21
ENDBRANCH  19  20
ENDBRANCH  16  19
ENDBRANCH   1  13
TORSDOF 6
ENDMDL
MODEL 3
REMARK VINA RESULT:    -6.732      3.285      6.388
REMARK INTER + INTRA:          -9.565
REMARK INTER:                  -8.740
REMARK INTRA:                  -0.825
REMARK UNBOUND:                -0.668
REMARK  Name = 
REMARK  7 active torsions:
REMARK  status: ('A' for Active; 'I' for Inactive)
REMARK    1  A    between atoms: C_1  and  O_2
REMARK    2  A    between atoms: O_2  and  C_3
REMARK    3  A    between atoms: N_10  and  C_11
REMARK    4  A    between atoms: C_11  and  C_12
REMARK    5  A    between atoms: C_15  and  C_16
REMARK    6  A    between atoms: C_16  and  C_17
REMARK    7  A    between atoms: C_17  and  N_18
REMARK                            x       y       z     vdW  Elec       q    Type
REMARK                         _______ _______ _______ _____ _____    ______ ____
ROOT
ATOM      1  C   UNL     1      43.257   5.928  11.179  0.00  0.00    +0.000 C 
ENDROOT
BRANCH   1   9
ATOM      2  C   UNL     1      45.987   2.618   8.070  0.00  0.00    +0.000 A 
ATOM      3  C   UNL     1      45.978   4.011   8.018  0.00  0.00    +0.000 A 
ATOM      4  C   UNL     1      45.249   4.769   8.949  0.00  0.00    +0.000 A 
ATOM      5  C   UNL     1      44.507   4.092   9.932  0.00  0.00    +0.000 A 
ATOM      6  C   UNL     1      44.511   2.693   9.998  0.00  0.00    +0.000 A 
ATOM      7  C   UNL     1      43.702   2.321  11.105  0.00  0.00    +0.000 A 
ATOM      8  C   UNL     1      43.209   3.474  11.668  0.00  0.00    +0.000 A 
ATOM      9  N   UNL     1      43.679   4.543  10.942  0.00  0.00    +0.000 N 
ATOM     10  C   UNL     1      45.249   1.955   9.046  0.00  0.00    +0.000 A 
BRANCH   2  12
ATOM     11  C   UNL     1      46.808   0.453   7.597  0.00  0.00    +0.000 C 
ATOM     12  O   UNL     1      46.664   1.809   7.190  0.00  0.00    +0.000 OA
ENDBRANCH   2  12
ENDBRANCH   1   9
BRANCH   1  13
ATOM     13  C   UNL     1      44.335   6.726  11.854  0.00  0.00    +0.000 A 
ATOM     14  C   UNL     1      44.588   8.054  11.510  0.00  0.00    +0.000 A 
ATOM     15  C   UNL     1      45.730   8.690  11.994  0.00  0.00    +0.000 A 
ATOM     16  C   UNL     1      46.586   7.981  12.831  0.00  0.00    +0.000 A 
ATOM     17  N   UNL     1      46.296   6.735  13.273  0.00  0.00    +0.000 NA
ATOM     18  C   UNL     1      45.186   6.141  12.784  0.00  0.00    +0.000 A 
BRANCH  16  19
ATOM     19  C   UNL     1      47.953   8.522  13.176  0.00  0.00    +0.000 C 
BRANCH  19  20
ATOM     20  C   UNL     1      48.823   7.421  13.802  0.00  0.00    +0.000 C 
BRANCH  20  21
ATOM     21  N   UNL     1      49.468   6.591  12.781  0.00  0.00    +0.000 NA
ATOM     22  H   UNL     1      50.457   6.475  13.000  0.00  0.00    +0.000 HD
ATOM     23  H   UNL     1      49.424   7.073  11.886  0.00  0.00    +0.000 HD
ENDBRANCH  20  21
ENDBRANCH  19  20
ENDBRANCH  16  19
ENDBRANCH   1  13
TORSDOF 6
ENDMDL
MODEL 4
REMARK VINA RESULT:    -6.715      1.854      2.490
REMARK INTER + INTRA:          -9.542
REMARK INTER:                  -9.356
REMARK INTRA:                  -0.187
REMARK UNBOUND:                -0.668
REMARK  Name = 
REMARK  7 active torsions:
REMARK  status: ('A' for Active; 'I' for Inactive)
REMARK    1  A    between atoms: C_1  and  O_2
REMARK    2  A    between atoms: O_2  and  C_3
REMARK    3  A    between atoms: N_10  and  C_11
REMARK    4  A    between atoms: C_11  and  C_12
REMARK    5  A    between atoms: C_15  and  C_16
REMARK    6  A    between atoms: C_16  and  C_17
REMARK    7  A    between atoms: C_17  and  N_18
REMARK                            x       y       z     vdW  Elec       q    Type
REMARK                         _______ _______ _______ _____ _____    ______ ____
ROOT
ATOM      1  C   UNL     1      44.830   4.694  11.697  0.00  0.00    +0.000 C 
ENDROOT
BRANCH   1   9
ATOM      2  C   UNL     1      48.175   7.950  14.206  0.00  0.00    +0.000 A 
ATOM      3  C   UNL     1      48.260   6.562  14.109  0.00  0.00    +0.000 A 
ATOM      4  C   UNL     1      47.330   5.826  13.358  0.00  0.00    +0.000 A 
ATOM      5  C   UNL     1      46.291   6.518  12.712  0.00  0.00    +0.000 A 
ATOM      6  C   UNL     1      46.196   7.914  12.796  0.00  0.00    +0.000 A 
ATOM      7  C   UNL     1      45.074   8.307  12.021  0.00  0.00    +0.000 A 
ATOM      8  C   UNL     1      44.500   7.169  11.507  0.00  0.00    +0.000 A 
ATOM      9  N   UNL     1      45.226   6.085  11.946  0.00  0.00    +0.000 N 
ATOM     10  C   UNL     1      47.142   8.628  13.564  0.00  0.00    +0.000 A 
BRANCH   2  12
ATOM     11  C   UNL     1      48.965  10.132  14.656  0.00  0.00    +0.000 C 
ATOM     12  O   UNL     1      49.037   8.737  14.930  0.00  0.00    +0.000 OA
ENDBRANCH   2  12
ENDBRANCH   1   9
BRANCH   1  13
ATOM     13  C   UNL     1      45.046   4.308  10.262  0.00  0.00    +0.000 A 
ATOM     14  C   UNL     1      44.690   3.048   9.781  0.00  0.00    +0.000 A 
ATOM     15  C   UNL     1      45.104   2.649   8.512  0.00  0.00    +0.000 A 
ATOM     16  C   UNL     1      45.854   3.533   7.744  0.00  0.00    +0.000 A 
ATOM     17  N   UNL     1      46.106   4.801   8.143  0.00  0.00    +0.000 NA
ATOM     18  C   UNL     1      45.698   5.160   9.379  0.00  0.00    +0.000 A 
BRANCH  16  19
ATOM     19  C   UNL     1      46.541   3.070   6.482  0.00  0.00    +0.000 C 
BRANCH  19  20
ATOM     20  C   UNL     1      47.600   2.005   6.806  0.00  0.00    +0.000 C 
BRANCH  20  21
ATOM     21  N   UNL     1      48.547   1.825   5.703  0.00  0.00    +0.000 NA
ATOM     22  H   UNL     1      48.323   0.974   5.187  0.00  0.00    +0.000 HD
ATOM     23  H   UNL     1      49.480   1.694   6.086  0.00  0.00    +0.000 HD
ENDBRANCH  20  21
ENDBRANCH  19  20
ENDBRANCH  16  19
ENDBRANCH   1  13
TORSDOF 6
ENDMDL
MODEL 5
REMARK VINA RESULT:    -6.009      1.970      2.864
REMARK INTER + INTRA:          -8.610
REMARK INTER:                  -7.756
REMARK INTRA:                  -0.854
REMARK UNBOUND:                -0.668
REMARK  Name = 
REMARK  7 active torsions:
REMARK  status: ('A' for Active; 'I' for Inactive)
REMARK    1  A    between atoms: C_1  and  O_2
REMARK    2  A    between atoms: O_2  and  C_3
REMARK    3  A    between atoms: N_10  and  C_11
REMARK    4  A    between atoms: C_11  and  C_12
REMARK    5  A    between atoms: C_15  and  C_16
REMARK    6  A    between atoms: C_16  and  C_17
REMARK    7  A    between atoms: C_17  and  N_18
REMARK                            x       y       z     vdW  Elec       q    Type
REMARK                         _______ _______ _______ _____ _____    ______ ____
ROOT
ATOM      1  C   UNL     1      44.386   5.109  10.638  0.00  0.00    +0.000 C 
ENDROOT
BRANCH   1   9
ATOM      2  C   UNL     1      48.587   7.123  13.163  0.00  0.00    +0.000 A 
ATOM      3  C   UNL     1      48.191   7.373  11.850  0.00  0.00    +0.000 A 
ATOM      4  C   UNL     1      47.015   6.813  11.326  0.00  0.00    +0.000 A 
ATOM      5  C   UNL     1      46.245   5.974  12.150  0.00  0.00    +0.000 A 
ATOM      6  C   UNL     1      46.629   5.718  13.473  0.00  0.00    +0.000 A 
ATOM      7  C   UNL     1      45.640   4.873  14.042  0.00  0.00    +0.000 A 
ATOM      8  C   UNL     1      44.703   4.612  13.071  0.00  0.00    +0.000 A 
ATOM      9  N   UNL     1      45.084   5.262  11.920  0.00  0.00    +0.000 N 
ATOM     10  C   UNL     1      47.819   6.289  13.973  0.00  0.00    +0.000 A 
BRANCH   2  12
ATOM     11  C   UNL     1      50.546   8.416  12.892  0.00  0.00    +0.000 C 
ATOM     12  O   UNL     1      49.728   7.622  13.743  0.00  0.00    +0.000 OA
ENDBRANCH   2  12
ENDBRANCH   1   9
BRANCH   1  13
ATOM     13  C   UNL     1      45.163   4.248   9.685  0.00  0.00    +0.000 A 
ATOM     14  C   UNL     1      45.764   4.776   8.543  0.00  0.00    +0.000 A 
ATOM     15  C   UNL     1      46.284   3.921   7.574  0.00  0.00    +0.000 A 
ATOM     16  C   UNL     1      46.204   2.547   7.782  0.00  0.00    +0.000 A 
ATOM     17  N   UNL     1      45.736   2.018   8.936  0.00  0.00    +0.000 NA
ATOM     18  C   UNL     1      45.233   2.870   9.856  0.00  0.00    +0.000 A 
BRANCH  16  19
ATOM     19  C   UNL     1      46.513   1.577   6.668  0.00  0.00    +0.000 C 
BRANCH  19  20
ATOM     20  C   UNL     1      47.416   0.443   7.178  0.00  0.00    +0.000 C 
BRANCH  20  21
ATOM     21  N   UNL     1      46.647  -0.760   7.503  0.00  0.00    +0.000 NA
ATOM     22  H   UNL     1      46.962  -1.541   6.928  0.00  0.00    +0.000 HD
ATOM     23  H   UNL     1      45.670  -0.603   7.267  0.00  0.00    +0.000 HD
ENDBRANCH  20  21
ENDBRANCH  19  20
ENDBRANCH  16  19
ENDBRANCH   1  13
TORSDOF 6
ENDMDL
MODEL 6
REMARK VINA RESULT:    -5.707      4.256      7.819
REMARK INTER + INTRA:          -8.211
REMARK INTER:                  -7.693
REMARK INTRA:                  -0.518
REMARK UNBOUND:                -0.668
REMARK  Name = 
REMARK  7 active torsions:
REMARK  status: ('A' for Active; 'I' for Inactive)
REMARK    1  A    between atoms: C_1  and  O_2
REMARK    2  A    between atoms: O_2  and  C_3
REMARK    3  A    between atoms: N_10  and  C_11
REMARK    4  A    between atoms: C_11  and  C_12
REMARK    5  A    between atoms: C_15  and  C_16
REMARK    6  A    between atoms: C_16  and  C_17
REMARK    7  A    between atoms: C_17  and  N_18
REMARK                            x       y       z     vdW  Elec       q    Type
REMARK                         _______ _______ _______ _____ _____    ______ ____
ROOT
ATOM      1  C   UNL     1      47.139   3.957  16.419  0.00  0.00    +0.000 C 
ENDROOT
BRANCH   1   9
ATOM      2  C   UNL     1      45.985   5.564  11.502  0.00  0.00    +0.000 A 
ATOM      3  C   UNL     1      45.381   4.531  12.217  0.00  0.00    +0.000 A 
ATOM      4  C   UNL     1      45.749   4.250  13.543  0.00  0.00    +0.000 A 
ATOM      5  C   UNL     1      46.759   5.026  14.138  0.00  0.00    +0.000 A 
ATOM      6  C   UNL     1      47.372   6.070  13.432  0.00  0.00    +0.000 A 
ATOM      7  C   UNL     1      48.315   6.673  14.307  0.00  0.00    +0.000 A 
ATOM      8  C   UNL     1      48.281   5.985  15.497  0.00  0.00    +0.000 A 
ATOM      9  N   UNL     1      47.354   4.974  15.383  0.00  0.00    +0.000 N 
ATOM     10  C   UNL     1      46.986   6.327  12.098  0.00  0.00    +0.000 A 
BRANCH   2  12
ATOM     11  C   UNL     1      45.343   4.794   9.362  0.00  0.00    +0.000 C 
ATOM     12  O   UNL     1      45.689   5.891  10.201  0.00  0.00    +0.000 OA
ENDBRANCH   2  12
ENDBRANCH   1   9
BRANCH   1  13
ATOM     13  C   UNL     1      48.439   3.407  16.931  0.00  0.00    +0.000 A 
ATOM     14  C   UNL     1      49.175   4.064  17.917  0.00  0.00    +0.000 A 
ATOM     15  C   UNL     1      50.472   3.646  18.206  0.00  0.00    +0.000 A 
ATOM     16  C   UNL     1      50.998   2.562  17.510  0.00  0.00    +0.000 A 
ATOM     17  N   UNL     1      50.258   1.838  16.639  0.00  0.00    +0.000 NA
ATOM     18  C   UNL     1      49.006   2.268  16.372  0.00  0.00    +0.000 A 
BRANCH  16  19
ATOM     19  C   UNL     1      52.467   2.228  17.595  0.00  0.00    +0.000 C 
BRANCH  19  20
ATOM     20  C   UNL     1      52.683   0.715  17.434  0.00  0.00    +0.000 C 
BRANCH  20  21
ATOM     21  N   UNL     1      51.887  -0.053  18.394  0.00  0.00    +0.000 NA
ATOM     22  H   UNL     1      51.864  -1.035  18.122  0.00  0.00    +0.000 HD
ATOM     23  H   UNL     1      50.925   0.277  18.366  0.00  0.00    +0.000 HD
ENDBRANCH  20  21
ENDBRANCH  19  20
ENDBRANCH  16  19
ENDBRANCH   1  13
TORSDOF 6
ENDMDL
MODEL 7
REMARK VINA RESULT:    -5.539      3.226      4.492
REMARK INTER + INTRA:          -7.989
REMARK INTER:                  -7.389
REMARK INTRA:                  -0.600
REMARK UNBOUND:                -0.668
REMARK  Name = 
REMARK  7 active torsions:
REMARK  status: ('A' for Active; 'I' for Inactive)
REMARK    1  A    between atoms: C_1  and  O_2
REMARK    2  A    between atoms: O_2  and  C_3
REMARK    3  A    between atoms: N_10  and  C_11
REMARK    4  A    between atoms: C_11  and  C_12
REMARK    5  A    between atoms: C_15  and  C_16
REMARK    6  A    between atoms: C_16  and  C_17
REMARK    7  A    between atoms: C_17  and  N_18
REMARK                            x       y       z     vdW  Elec       q    Type
REMARK                         _______ _______ _______ _____ _____    ______ ____
ROOT
ATOM      1  C   UNL     1      46.285   6.060  13.173  0.00  0.00    +0.000 C 
ENDROOT
BRANCH   1   9
ATOM      2  C   UNL     1      49.857   9.528  11.358  0.00  0.00    +0.000 A 
ATOM      3  C   UNL     1      50.024   8.155  11.530  0.00  0.00    +0.000 A 
ATOM      4  C   UNL     1      48.966   7.342  11.967  0.00  0.00    +0.000 A 
ATOM      5  C   UNL     1      47.728   7.944  12.247  0.00  0.00    +0.000 A 
ATOM      6  C   UNL     1      47.544   9.323  12.074  0.00  0.00    +0.000 A 
ATOM      7  C   UNL     1      46.194   9.613  12.406  0.00  0.00    +0.000 A 
ATOM      8  C   UNL     1      45.596   8.436  12.792  0.00  0.00    +0.000 A 
ATOM      9  N   UNL     1      46.534   7.432  12.716  0.00  0.00    +0.000 N 
ATOM     10  C   UNL     1      48.627  10.118  11.639  0.00  0.00    +0.000 A 
BRANCH   2  12
ATOM     11  C   UNL     1      52.173   9.992  11.271  0.00  0.00    +0.000 C 
ATOM     12  O   UNL     1      50.845  10.390  10.948  0.00  0.00    +0.000 OA
ENDBRANCH   2  12
ENDBRANCH   1   9
BRANCH   1  13
ATOM     13  C   UNL     1      45.637   5.231  12.101  0.00  0.00    +0.000 A 
ATOM     14  C   UNL     1      45.169   3.941  12.355  0.00  0.00    +0.000 A 
ATOM     15  C   UNL     1      44.780   3.125  11.295  0.00  0.00    +0.000 A 
ATOM     16  C   UNL     1      44.853   3.629  10.000  0.00  0.00    +0.000 A 
ATOM     17  N   UNL     1      45.188   4.914   9.744  0.00  0.00    +0.000 NA
ATOM     18  C   UNL     1      45.566   5.682  10.789  0.00  0.00    +0.000 A 
BRANCH  16  19
ATOM     19  C   UNL     1      44.692   2.719   8.806  0.00  0.00    +0.000 C 
BRANCH  19  20
ATOM     20  C   UNL     1      45.984   2.689   7.976  0.00  0.00    +0.000 C 
BRANCH  20  21
ATOM     21  N   UNL     1      46.148   3.908   7.181  0.00  0.00    +0.000 NA
ATOM     22  H   UNL     1      47.044   4.346   7.395  0.00  0.00    +0.000 HD
ATOM     23  H   UNL     1      45.429   4.577   7.447  0.00  0.00    +0.000 HD
ENDBRANCH  20  21
ENDBRANCH  19  20
ENDBRANCH  16  19
ENDBRANCH   1  13
TORSDOF 6
ENDMDL
MODEL 8
REMARK VINA RESULT:    -5.480      3.562      6.864
REMARK INTER + INTRA:          -7.910
REMARK INTER:                  -7.050
REMARK INTRA:                  -0.860
REMARK UNBOUND:                -0.668
REMARK  Name = 
REMARK  7 active torsions:
REMARK  status: ('A' for Active; 'I' for Inactive)
REMARK    1  A    between atoms: C_1  and  O_2
REMARK    2  A    between atoms: O_2  and  C_3
REMARK    3  A    between atoms: N_10  and  C_11
REMARK    4  A    between atoms: C_11  and  C_12
REMARK    5  A    between atoms: C_15  and  C_16
REMARK    6  A    between atoms: C_16  and  C_17
REMARK    7  A    between atoms: C_17  and  N_18
REMARK                            x       y       z     vdW  Elec       q    Type
REMARK                         _______ _______ _______ _____ _____    ______ ____
ROOT
ATOM      1  C   UNL     1      45.499   7.805  11.890  0.00  0.00    +0.000 C 
ENDROOT
BRANCH   1   9
ATOM      2  C   UNL     1      44.838   3.198   9.355  0.00  0.00    +0.000 A 
ATOM      3  C   UNL     1      45.474   4.342   8.876  0.00  0.00    +0.000 A 
ATOM      4  C   UNL     1      45.630   5.481   9.683  0.00  0.00    +0.000 A 
ATOM      5  C   UNL     1      45.114   5.453  10.990  0.00  0.00    +0.000 A 
ATOM      6  C   UNL     1      44.477   4.307  11.486  0.00  0.00    +0.000 A 
ATOM      7  C   UNL     1      44.101   4.582  12.828  0.00  0.00    +0.000 A 
ATOM      8  C   UNL     1      44.485   5.871  13.115  0.00  0.00    +0.000 A 
ATOM      9  N   UNL     1      45.077   6.403  11.992  0.00  0.00    +0.000 N 
ATOM     10  C   UNL     1      44.328   3.179  10.651  0.00  0.00    +0.000 A 
BRANCH   2  12
ATOM     11  C   UNL     1      45.815   1.325   8.296  0.00  0.00    +0.000 C 
ATOM     12  O   UNL     1      44.637   2.053   8.624  0.00  0.00    +0.000 OA
ENDBRANCH   2  12
ENDBRANCH   1   9
BRANCH   1  13
ATOM     13  C   UNL     1      46.902   7.997  12.388  0.00  0.00    +0.000 A 
ATOM     14  C   UNL     1      47.991   7.389  11.762  0.00  0.00    +0.000 A 
ATOM     15  C   UNL     1      49.242   7.408  12.376  0.00  0.00    +0.000 A 
ATOM     16  C   UNL     1      49.376   8.054  13.602  0.00  0.00    +0.000 A 
ATOM     17  N   UNL     1      48.363   8.752  14.164  0.00  0.00    +0.000 NA
ATOM     18  C   UNL     1      47.160   8.712  13.551  0.00  0.00    +0.000 A 
BRANCH  16  19
ATOM     19  C   UNL     1      50.628   7.890  14.429  0.00  0.00    +0.000 C 
BRANCH  19  20
ATOM     20  C   UNL     1      51.595   9.058  14.176  0.00  0.00    +0.000 C 
BRANCH  20  21
ATOM     21  N   UNL     1      50.914  10.353  14.249  0.00  0.00    +0.000 NA
ATOM     22  H   UNL     1      51.555  11.064  14.602  0.00  0.00    +0.000 HD
ATOM     23  H   UNL     1      50.153  10.290  14.921  0.00  0.00    +0.000 HD
ENDBRANCH  20  21
ENDBRANCH  19  20
ENDBRANCH  16  19
ENDBRANCH   1  13
TORSDOF 6
ENDMDL
MODEL 9
REMARK VINA RESULT:    -5.347      4.337      7.730
REMARK INTER + INTRA:          -7.734
REMARK INTER:                  -6.918
REMARK INTRA:                  -0.816
REMARK UNBOUND:                -0.668
REMARK  Name = 
REMARK  7 active torsions:
REMARK  status: ('A' for Active; 'I' for Inactive)
REMARK    1  A    between atoms: C_1  and  O_2
REMARK    2  A    between atoms: O_2  and  C_3
REMARK    3  A    between atoms: N_10  and  C_11
REMARK    4  A    between atoms: C_11  and  C_12
REMARK    5  A    between atoms: C_15  and  C_16
REMARK    6  A    between atoms: C_16  and  C_17
REMARK    7  A    between atoms: C_17  and  N_18
REMARK                            x       y       z     vdW  Elec       q    Type
REMARK                         _______ _______ _______ _____ _____    ______ ____
ROOT
ATOM      1  C   UNL     1      48.589   5.187  17.764  0.00  0.00    +0.000 C 
ENDROOT
BRANCH   1   9
ATOM      2  C   UNL     1      52.435   1.541  17.684  0.00  0.00    +0.000 A 
ATOM      3  C   UNL     1      51.093   1.362  17.348  0.00  0.00    +0.000 A 
ATOM      4  C   UNL     1      50.191   2.437  17.358  0.00  0.00    +0.000 A 
ATOM      5  C   UNL     1      50.663   3.707  17.733  0.00  0.00    +0.000 A 
ATOM      6  C   UNL     1      52.010   3.902  18.067  0.00  0.00    +0.000 A 
ATOM      7  C   UNL     1      52.174   5.281  18.364  0.00  0.00    +0.000 A 
ATOM      8  C   UNL     1      50.947   5.887  18.232  0.00  0.00    +0.000 A 
ATOM      9  N   UNL     1      50.030   4.926  17.872  0.00  0.00    +0.000 N 
ATOM     10  C   UNL     1      52.895   2.802  18.054  0.00  0.00    +0.000 A 
BRANCH   2  12
ATOM     11  C   UNL     1      54.535   0.812  18.487  0.00  0.00    +0.000 C 
ATOM     12  O   UNL     1      53.374   0.539  17.710  0.00  0.00    +0.000 OA
ENDBRANCH   2  12
ENDBRANCH   1   9
BRANCH   1  13
ATOM     13  C   UNL     1      48.119   5.105  16.340  0.00  0.00    +0.000 A 
ATOM     14  C   UNL     1      48.420   6.101  15.411  0.00  0.00    +0.000 A 
ATOM     15  C   UNL     1      47.788   6.104  14.170  0.00  0.00    +0.000 A 
ATOM     16  C   UNL     1      46.876   5.094  13.880  0.00  0.00    +0.000 A 
ATOM     17  N   UNL     1      46.662   4.054  14.719  0.00  0.00    +0.000 NA
ATOM     18  C   UNL     1      47.284   4.078  15.918  0.00  0.00    +0.000 A 
BRANCH  16  19
ATOM     19  C   UNL     1      45.979   5.185  12.670  0.00  0.00    +0.000 C 
BRANCH  19  20
ATOM     20  C   UNL     1      44.729   4.312  12.861  0.00  0.00    +0.000 C 
BRANCH  20  21
ATOM     21  N   UNL     1      44.982   2.914  12.501  0.00  0.00    +0.000 NA
ATOM     22  H   UNL     1      45.367   2.862  11.558  0.00  0.00    +0.000 HD
ATOM     23  H   UNL     1      44.097   2.412  12.480  0.00  0.00    +0.000 HD
ENDBRANCH  20  21
ENDBRANCH  19  20
ENDBRANCH  16  19
ENDBRANCH   1  13
TORSDOF 6
ENDMDL
