MODEL 1
REMARK VINA RESULT:    -7.285      0.000      0.000
REMARK INTER + INTRA:         -10.559
REMARK INTER:                  -9.840
REMARK INTRA:                  -0.719
REMARK UNBOUND:                -0.719
REMARK  Name = 
REMARK  8 active torsions:
REMARK  status: ('A' for Active; 'I' for Inactive)
REMARK    1  A    between atoms: C_1  and  N_2
REMARK    2  A    between atoms: N_2  and  C_3
REMARK    3  A    between atoms: C_4  and  C_6
REMARK    4  A    between atoms: C_6  and  C_7
REMARK    5  A    between atoms: C_7  and  C_8
REMARK    6  A    between atoms: C_11  and  O_12
REMARK    7  A    between atoms: O_12  and  C_13
REMARK    8  A    between atoms: C_13  and  C_14
REMARK                            x       y       z     vdW  Elec       q    Type
REMARK                         _______ _______ _______ _____ _____    ______ ____
ROOT
ATOM      1  C   UNL     1      46.749   5.339  13.607  0.00  0.00    +0.000 A 
ATOM      2  C   UNL     1      46.726   6.263  12.556  0.00  0.00    +0.000 A 
ATOM      3  C   UNL     1      45.896   6.052  11.459  0.00  0.00    +0.000 A 
ATOM      4  C   UNL     1      45.088   4.932  11.455  0.00  0.00    +0.000 A 
ATOM      5  N   UNL     1      45.084   4.010  12.438  0.00  0.00    +0.000 NA
ATOM      6  C   UNL     1      45.915   4.230  13.483  0.00  0.00    +0.000 A 
ENDROOT
BRANCH   1   7
ATOM      7  C   UNL     1      47.610   5.478  14.843  0.00  0.00    +0.000 C 
BRANCH   7   8
ATOM      8  C   UNL     1      47.243   4.537  15.990  0.00  0.00    +0.000 C 
BRANCH   8  12
ATOM      9  C   UNL     1      50.085   2.533  17.528  0.00  0.00    +0.000 C 
ATOM     10  N   UNL     1      49.107   3.578  17.284  0.00  0.00    +0.000 N 
ATOM     11  C   UNL     1      49.050   4.706  18.203  0.00  0.00    +0.000 C 
ATOM     12  C   UNL     1      48.255   3.426  16.190  0.00  0.00    +0.000 C 
ATOM     13  O   UNL     1      48.316   2.456  15.436  0.00  0.00    +0.000 OA
ENDBRANCH   8  12
ENDBRANCH   7   8
ENDBRANCH   1   7
BRANCH   4  14
ATOM     14  O   UNL     1      44.278   4.759  10.352  0.00  0.00    +0.000 OA
BRANCH  14  15
ATOM     15  C   UNL     1      44.138   3.382  10.011  0.00  0.00    +0.000 C 
BRANCH  15  16
ATOM     16  C   UNL     1      45.129   3.062   8.915  0.00  0.00    +0.000 A 
ATOM     17  C   UNL     1      45.540   4.067   8.027  0.00  0.00    +0.000 A 
ATOM     18  C   UNL     1      46.461   3.785   7.016  0.00  0.00    +0.000 A 
ATOM     19  C   UNL     1      46.966   2.495   6.881  0.00  0.00    +0.000 A 
ATOM     20 CL   UNL     1      48.104   2.148   5.640  0.00  0.00    +0.000 Cl
ATOM     21  C   UNL     1      46.552   1.481   7.744  0.00  0.00    +0.000 A 
ATOM     22  C   UNL     1      45.631   1.762   8.757  0.00  0.00    +0.000 A 
ENDBRANCH  15  16
ENDBRANCH  14  15
ENDBRANCH   4  14
TORSDOF 6
ENDMDL
MODEL 2
REMARK VINA RESULT:    -7.111      3.735      8.447
REMARK INTER + INTRA:         -10.324
REMARK INTER:                  -9.784
REMARK INTRA:                  -0.539
REMARK UNBOUND:                -0.719
REMARK  Name = 
REMARK  8 active torsions:
REMARK  status: ('A' for Active; 'I' for Inactive)
REMARK    1  A    between atoms: C_1  and  N_2
REMARK    2  A    between atoms: N_2  and  C_3
REMARK    3  A    between atoms: C_4  and  C_6
REMARK    4  A    between atoms: C_6  and  C_7
REMARK    5  A    between atoms: C_7  and  C_8
REMARK    6  A    between atoms: C_11  and  O_12
REMARK    7  A    between atoms: O_12  and  C_13
REMARK    8  A    between atoms: C_13  and  C_14
REMARK                            x       y       z     vdW  Elec       q    Type
REMARK                         _______ _______ _______ _____ _____    ______ ____
ROOT
ATOM      1  C   UNL     1      44.889   4.286  10.646  0.00  0.00    +0.000 A 
ATOM      2  C   UNL     1      45.496   5.464  11.094  0.00  0.00    +0.000 A 
ATOM      3  C   UNL     1      45.938   5.565  12.411  0.00  0.00    +0.000 A 
ATOM      4  C   UNL     1      45.785   4.470  13.239  0.00  0.00    +0.000 A 
ATOM      5  N   UNL     1      45.198   3.319  12.854  0.00  0.00    +0.000 NA
ATOM      6  C   UNL     1      44.760   3.256  11.576  0.00  0.00    +0.000 A 
ENDROOT
BRANCH   1   7
ATOM      7  C   UNL     1      44.380   4.074   9.238  0.00  0.00    +0.000 C 
BRANCH   7   8
ATOM      8  C   UNL     1      44.947   2.846   8.528  0.00  0.00    +0.000 C 
BRANCH   8  12
ATOM      9  C   UNL     1      48.117   2.326   6.494  0.00  0.00    +0.000 C 
ATOM     10  N   UNL     1      46.955   2.075   7.328  0.00  0.00    +0.000 N 
ATOM     11  C   UNL     1      46.676   0.706   7.737  0.00  0.00    +0.000 C 
ATOM     12  C   UNL     1      46.155   3.165   7.669  0.00  0.00    +0.000 C 
ATOM     13  O   UNL     1      46.407   4.310   7.299  0.00  0.00    +0.000 OA
ENDBRANCH   8  12
ENDBRANCH   7   8
ENDBRANCH   1   7
BRANCH   4  14
ATOM     14  O   UNL     1      46.238   4.607  14.534  0.00  0.00    +0.000 OA
BRANCH  14  15
ATOM     15  C   UNL     1      47.253   3.654  14.841  0.00  0.00    +0.000 C 
BRANCH  15  16
ATOM     16  C   UNL     1      47.769   3.941  16.232  0.00  0.00    +0.000 A 
ATOM     17  C   UNL     1      47.792   2.922  17.195  0.00  0.00    +0.000 A 
ATOM     18  C   UNL     1      48.274   3.173  18.481  0.00  0.00    +0.000 A 
ATOM     19  C   UNL     1      48.723   4.448  18.813  0.00  0.00    +0.000 A 
ATOM     20 CL   UNL     1      49.323   4.758  20.395  0.00  0.00    +0.000 Cl
ATOM     21  C   UNL     1      48.688   5.477  17.873  0.00  0.00    +0.000 A 
ATOM     22  C   UNL     1      48.207   5.226  16.585  0.00  0.00    +0.000 A 
ENDBRANCH  15  16
ENDBRANCH  14  15
ENDBRANCH   4  14
TORSDOF 6
ENDMDL
MODEL 3
REMARK VINA RESULT:    -6.801      1.328      1.984
REMARK INTER + INTRA:          -9.905
REMARK INTER:                  -9.349
REMARK INTRA:                  -0.556
REMARK UNBOUND:                -0.719
REMARK  Name = 
REMARK  8 active torsions:
REMARK  status: ('A' for Active; 'I' for Inactive)
REMARK    1  A    between atoms: C_1  and  N_2
REMARK    2  A    between atoms: N_2  and  C_3
REMARK    3  A    between atoms: C_4  and  C_6
REMARK    4  A    between atoms: C_6  and  C_7
REMARK    5  A    between atoms: C_7  and  C_8
REMARK    6  A    between atoms: C_11  and  O_12
REMARK    7  A    between atoms: O_12  and  C_13
REMARK    8  A    between atoms: C_13  and  C_14
REMARK                            x       y       z     vdW  Elec       q    Type
REMARK                         _______ _______ _______ _____ _____    ______ ____
ROOT
ATOM      1  C   UNL     1      46.780   5.535  13.306  0.00  0.00    +0.000 A 
ATOM      2  C   UNL     1      45.978   4.391  13.378  0.00  0.00    +0.000 A 
ATOM      3  C   UNL     1      45.082   4.101  12.351  0.00  0.00    +0.000 A 
ATOM      4  C   UNL     1      45.033   4.952  11.265  0.00  0.00    +0.000 A 
ATOM      5  N   UNL     1      45.779   6.070  11.157  0.00  0.00    +0.000 NA
ATOM      6  C   UNL     1      46.626   6.338  12.177  0.00  0.00    +0.000 A 
ENDROOT
BRANCH   1   7
ATOM      7  C   UNL     1      47.785   5.937  14.362  0.00  0.00    +0.000 C 
BRANCH   7   8
ATOM      8  C   UNL     1      47.801   5.048  15.605  0.00  0.00    +0.000 C 
BRANCH   8  12
ATOM      9  C   UNL     1      49.883   5.174  18.783  0.00  0.00    +0.000 C 
ATOM     10  N   UNL     1      49.047   4.691  17.700  0.00  0.00    +0.000 N 
ATOM     11  C   UNL     1      48.683   3.282  17.678  0.00  0.00    +0.000 C 
ATOM     12  C   UNL     1      48.660   5.607  16.722  0.00  0.00    +0.000 C 
ATOM     13  O   UNL     1      48.993   6.791  16.757  0.00  0.00    +0.000 OA
ENDBRANCH   8  12
ENDBRANCH   7   8
ENDBRANCH   1   7
BRANCH   4  14
ATOM     14  O   UNL     1      44.136   4.629  10.268  0.00  0.00    +0.000 OA
BRANCH  14  15
ATOM     15  C   UNL     1      44.130   3.229   9.999  0.00  0.00    +0.000 C 
BRANCH  15  16
ATOM     16  C   UNL     1      45.115   2.956   8.886  0.00  0.00    +0.000 A 
ATOM     17  C   UNL     1      45.655   1.671   8.727  0.00  0.00    +0.000 A 
ATOM     18  C   UNL     1      46.559   1.405   7.697  0.00  0.00    +0.000 A 
ATOM     19  C   UNL     1      46.937   2.426   6.828  0.00  0.00    +0.000 A 
ATOM     20 CL   UNL     1      48.046   2.097   5.556  0.00  0.00    +0.000 Cl
ATOM     21  C   UNL     1      46.424   3.712   6.985  0.00  0.00    +0.000 A 
ATOM     22  C   UNL     1      45.517   3.979   8.014  0.00  0.00    +0.000 A 
ENDBRANCH  15  16
ENDBRANCH  14  15
ENDBRANCH   4  14
TORSDOF 6
ENDMDL
MODEL 4
REMARK VINA RESULT:    -6.739      2.673      4.071
REMARK INTER + INTRA:          -9.822
REMARK INTER:                  -8.986
REMARK INTRA:                  -0.836
REMARK UNBOUND:                -0.719
REMARK  Name = 
REMARK  8 active torsions:
REMARK  status: ('A' for Active; 'I' for Inactive)
REMARK    1  A    between atoms: C_1  and  N_2
REMARK    2  A    between atoms: N_2  and  C_3
REMARK    3  A    between atoms: C_4  and  C_6
REMARK    4  A    between atoms: C_6  and  C_7
REMARK    5  A    between atoms: C_7  and  C_8
REMARK    6  A    between atoms: C_11  and  O_12
REMARK    7  A    between atoms: O_12  and  C_13
REMARK    8  A    between atoms: C_13  and  C_14
REMARK                            x       y       z     vdW  Elec       q    Type
REMARK                         _______ _______ _______ _____ _____    ______ ____
ROOT
ATOM      1  C   UNL     1      46.924   5.500  13.581  0.00  0.00    +0.000 A 
ATOM      2  C   UNL     1      46.944   4.102  13.604  0.00  0.00    +0.000 A 
ATOM      3  C   UNL     1      45.988   3.377  12.895  0.00  0.00    +0.000 A 
ATOM      4  C   UNL     1      45.051   4.076  12.160  0.00  0.00    +0.000 A 
ATOM      5  N   UNL     1      44.987   5.421  12.116  0.00  0.00    +0.000 NA
ATOM      6  C   UNL     1      45.915   6.099  12.829  0.00  0.00    +0.000 A 
ENDROOT
BRANCH   1   7
ATOM      7  C   UNL     1      47.917   6.377  14.310  0.00  0.00    +0.000 C 
BRANCH   7   8
ATOM      8  C   UNL     1      49.036   6.943  13.437  0.00  0.00    +0.000 C 
BRANCH   8  12
ATOM      9  C   UNL     1      49.292  10.109  11.346  0.00  0.00    +0.000 C 
ATOM     10  N   UNL     1      49.543   8.781  11.877  0.00  0.00    +0.000 N 
ATOM     11  C   UNL     1      50.594   7.977  11.269  0.00  0.00    +0.000 C 
ATOM     12  C   UNL     1      48.742   8.341  12.930  0.00  0.00    +0.000 C 
ATOM     13  O   UNL     1      47.852   9.037  13.417  0.00  0.00    +0.000 OA
ENDBRANCH   8  12
ENDBRANCH   7   8
ENDBRANCH   1   7
BRANCH   4  14
ATOM     14  O   UNL     1      44.123   3.324  11.470  0.00  0.00    +0.000 OA
BRANCH  14  15
ATOM     15  C   UNL     1      43.829   3.890  10.195  0.00  0.00    +0.000 C 
BRANCH  15  16
ATOM     16  C   UNL     1      44.853   3.385   9.204  0.00  0.00    +0.000 A 
ATOM     17  C   UNL     1      45.148   2.015   9.139  0.00  0.00    +0.000 A 
ATOM     18  C   UNL     1      46.086   1.535   8.222  0.00  0.00    +0.000 A 
ATOM     19  C   UNL     1      46.741   2.425   7.375  0.00  0.00    +0.000 A 
ATOM     20 CL   UNL     1      47.892   1.835   6.242  0.00  0.00    +0.000 Cl
ATOM     21  C   UNL     1      46.472   3.791   7.442  0.00  0.00    +0.000 A 
ATOM     22  C   UNL     1      45.533   4.272   8.358  0.00  0.00    +0.000 A 
ENDBRANCH  15  16
ENDBRANCH  14  15
ENDBRANCH   4  14
TORSDOF 6
ENDMDL
MODEL 5
REMARK VINA RESULT:    -6.556      2.668      3.430
REMARK INTER + INTRA:          -9.574
REMARK INTER:                  -8.877
REMARK INTRA:                  -0.698
REMARK UNBOUND:                -0.719
REMARK  Name = 
REMARK  8 active torsions:
REMARK  status: ('A' for Active; 'I' for Inactive)
REMARK    1  A    between atoms: C_1  and  N_2
REMARK    2  A    between atoms: N_2  and  C_3
REMARK    3  A    between atoms: C_4  and  C_6
REMARK    4  A    between atoms: C_6  and  C_7
REMARK    5  A    between atoms: C_7  and  C_8
REMARK    6  A    between atoms: C_11  and  O_12
REMARK    7  A    between atoms: O_12  and  C_13
REMARK    8  A    between atoms: C_13  and  C_14
REMARK                            x       y       z     vdW  Elec       q    Type
REMARK                         _______ _______ _______ _____ _____    ______ ____
ROOT
ATOM      1  C   UNL     1      46.908   5.486  13.609  0.00  0.00    +0.000 A 
ATOM      2  C   UNL     1      46.870   4.088  13.618  0.00  0.00    +0.000 A 
ATOM      3  C   UNL     1      45.885   3.411  12.903  0.00  0.00    +0.000 A 
ATOM      4  C   UNL     1      44.977   4.155  12.174  0.00  0.00    +0.000 A 
ATOM      5  N   UNL     1      44.970   5.503  12.143  0.00  0.00    +0.000 NA
ATOM      6  C   UNL     1      45.926   6.134  12.863  0.00  0.00    +0.000 A 
ENDROOT
BRANCH   1   7
ATOM      7  C   UNL     1      47.938   6.314  14.346  0.00  0.00    +0.000 C 
BRANCH   7   8
ATOM      8  C   UNL     1      48.823   7.182  13.453  0.00  0.00    +0.000 C 
BRANCH   8  12
ATOM      9  C   UNL     1      51.942   9.231  14.180  0.00  0.00    +0.000 C 
ATOM     10  N   UNL     1      50.741   8.725  13.541  0.00  0.00    +0.000 N 
ATOM     11  C   UNL     1      50.280   9.369  12.318  0.00  0.00    +0.000 C 
ATOM     12  C   UNL     1      50.079   7.661  14.153  0.00  0.00    +0.000 C 
ATOM     13  O   UNL     1      50.483   7.144  15.193  0.00  0.00    +0.000 OA
ENDBRANCH   8  12
ENDBRANCH   7   8
ENDBRANCH   1   7
BRANCH   4  14
ATOM     14  O   UNL     1      44.019   3.449  11.477  0.00  0.00    +0.000 OA
BRANCH  14  15
ATOM     15  C   UNL     1      43.782   4.014  10.189  0.00  0.00    +0.000 C 
BRANCH  15  16
ATOM     16  C   UNL     1      44.809   3.456   9.231  0.00  0.00    +0.000 A 
ATOM     17  C   UNL     1      45.516   4.320   8.380  0.00  0.00    +0.000 A 
ATOM     18  C   UNL     1      46.473   3.817   7.497  0.00  0.00    +0.000 A 
ATOM     19  C   UNL     1      46.720   2.448   7.452  0.00  0.00    +0.000 A 
ATOM     20 CL   UNL     1      47.903   1.828   6.369  0.00  0.00    +0.000 Cl
ATOM     21  C   UNL     1      46.013   1.575   8.278  0.00  0.00    +0.000 A 
ATOM     22  C   UNL     1      45.056   2.077   9.163  0.00  0.00    +0.000 A 
ENDBRANCH  15  16
ENDBRANCH  14  15
ENDBRANCH   4  14
TORSDOF 6
ENDMDL
MODEL 6
REMARK VINA RESULT:    -5.729      2.198      2.871
REMARK INTER + INTRA:          -8.457
REMARK INTER:                  -7.865
REMARK INTRA:                  -0.592
REMARK UNBOUND:                -0.719
REMARK  Name = 
REMARK  8 active torsions:
REMARK  status: ('A' for Active; 'I' for Inactive)
REMARK    1  A    between atoms: C_1  and  N_2
REMARK    2  A    between atoms: N_2  and  C_3
REMARK    3  A    between atoms: C_4  and  C_6
REMARK    4  A    between atoms: C_6  and  C_7
REMARK    5  A    between atoms: C_7  and  C_8
REMARK    6  A    between atoms: C_11  and  O_12
REMARK    7  A    between atoms: O_12  and  C_13
REMARK    8  A    between atoms: C_13  and  C_14
REMARK                            x       y       z     vdW  Elec       q    Type
REMARK                         _______ _______ _______ _____ _____    ______ ____
ROOT
ATOM      1  C   UNL     1      47.315   5.346  14.529  0.00  0.00    +0.000 A 
ATOM      2  C   UNL     1      46.363   4.389  14.160  0.00  0.00    +0.000 A 
ATOM      3  C   UNL     1      45.627   4.552  12.989  0.00  0.00    +0.000 A 
ATOM      4  C   UNL     1      45.883   5.659  12.203  0.00  0.00    +0.000 A 
ATOM      5  N   UNL     1      46.782   6.610  12.523  0.00  0.00    +0.000 NA
ATOM      6  C   UNL     1      47.469   6.437  13.676  0.00  0.00    +0.000 A 
ENDROOT
BRANCH   1   7
ATOM      7  C   UNL     1      48.169   5.260  15.774  0.00  0.00    +0.000 C 
BRANCH   7   8
ATOM      8  C   UNL     1      48.920   6.542  16.128  0.00  0.00    +0.000 C 
BRANCH   8  12
ATOM      9  C   UNL     1      49.792   8.104  19.483  0.00  0.00    +0.000 C 
ATOM     10  N   UNL     1      49.840   7.727  18.082  0.00  0.00    +0.000 N 
ATOM     11  C   UNL     1      50.915   8.258  17.256  0.00  0.00    +0.000 C 
ATOM     12  C   UNL     1      48.832   6.893  17.600  0.00  0.00    +0.000 C 
ATOM     13  O   UNL     1      47.927   6.469  18.318  0.00  0.00    +0.000 OA
ENDBRANCH   8  12
ENDBRANCH   7   8
ENDBRANCH   1   7
BRANCH   4  14
ATOM     14  O   UNL     1      45.135   5.784  11.051  0.00  0.00    +0.000 OA
BRANCH  14  15
ATOM     15  C   UNL     1      44.430   4.582  10.748  0.00  0.00    +0.000 C 
BRANCH  15  16
ATOM     16  C   UNL     1      45.136   3.893   9.604  0.00  0.00    +0.000 A 
ATOM     17  C   UNL     1      45.157   2.492   9.534  0.00  0.00    +0.000 A 
ATOM     18  C   UNL     1      45.799   1.845   8.477  0.00  0.00    +0.000 A 
ATOM     19  C   UNL     1      46.434   2.595   7.491  0.00  0.00    +0.000 A 
ATOM     20 CL   UNL     1      47.221   1.799   6.185  0.00  0.00    +0.000 Cl
ATOM     21  C   UNL     1      46.439   3.987   7.557  0.00  0.00    +0.000 A 
ATOM     22  C   UNL     1      45.795   4.636   8.613  0.00  0.00    +0.000 A 
ENDBRANCH  15  16
ENDBRANCH  14  15
ENDBRANCH   4  14
TORSDOF 6
ENDMDL
MODEL 7
REMARK VINA RESULT:    -5.452      4.189      7.173
REMARK INTER + INTRA:          -8.083
REMARK INTER:                  -7.349
REMARK INTRA:                  -0.734
REMARK UNBOUND:                -0.719
REMARK  Name = 
REMARK  8 active torsions:
REMARK  status: ('A' for Active; 'I' for Inactive)
REMARK    1  A    between atoms: C_1  and  N_2
REMARK    2  A    between atoms: N_2  and  C_3
REMARK    3  A    between atoms: C_4  and  C_6
REMARK    4  A    between atoms: C_6  and  C_7
REMARK    5  A    between atoms: C_7  and  C_8
REMARK    6  A    between atoms: C_11  and  O_12
REMARK    7  A    between atoms: O_12  and  C_13
REMARK    8  A    between atoms: C_13  and  C_14
REMARK                            x       y       z     vdW  Elec       q    Type
REMARK                         _______ _______ _______ _____ _____    ______ ____
ROOT
ATOM      1  C   UNL     1      45.072   5.695  12.907  0.00  0.00    +0.000 A 
ATOM      2  C   UNL     1      46.371   5.349  13.297  0.00  0.00    +0.000 A 
ATOM      3  C   UNL     1      47.416   6.255  13.126  0.00  0.00    +0.000 A 
ATOM      4  C   UNL     1      47.126   7.495  12.592  0.00  0.00    +0.000 A 
ATOM      5  N   UNL     1      45.894   7.868  12.193  0.00  0.00    +0.000 NA
ATOM      6  C   UNL     1      44.902   6.962  12.353  0.00  0.00    +0.000 A 
ENDROOT
BRANCH   1   7
ATOM      7  C   UNL     1      43.871   4.788  13.054  0.00  0.00    +0.000 C 
BRANCH   7   8
ATOM      8  C   UNL     1      43.091   4.541  11.763  0.00  0.00    +0.000 C 
BRANCH   8  12
ATOM      9  C   UNL     1      44.605   2.031   9.342  0.00  0.00    +0.000 C 
ATOM     10  N   UNL     1      44.244   3.279   9.990  0.00  0.00    +0.000 N 
ATOM     11  C   UNL     1      44.775   4.522   9.449  0.00  0.00    +0.000 C 
ATOM     12  C   UNL     1      43.425   3.211  11.116  0.00  0.00    +0.000 C 
ATOM     13  O   UNL     1      43.000   2.146  11.560  0.00  0.00    +0.000 OA
ENDBRANCH   8  12
ENDBRANCH   7   8
ENDBRANCH   1   7
BRANCH   4  14
ATOM     14  O   UNL     1      48.186   8.364  12.441  0.00  0.00    +0.000 OA
BRANCH  14  15
ATOM     15  C   UNL     1      49.258   8.047  13.326  0.00  0.00    +0.000 C 
BRANCH  15  16
ATOM     16  C   UNL     1      50.553   8.128  12.552  0.00  0.00    +0.000 A 
ATOM     17  C   UNL     1      51.699   8.665  13.156  0.00  0.00    +0.000 A 
ATOM     18  C   UNL     1      52.903   8.738  12.454  0.00  0.00    +0.000 A 
ATOM     19  C   UNL     1      52.963   8.285  11.138  0.00  0.00    +0.000 A 
ATOM     20 CL   UNL     1      54.447   8.369  10.273  0.00  0.00    +0.000 Cl
ATOM     21  C   UNL     1      51.828   7.767  10.517  0.00  0.00    +0.000 A 
ATOM     22  C   UNL     1      50.623   7.692  11.220  0.00  0.00    +0.000 A 
ENDBRANCH  15  16
ENDBRANCH  14  15
ENDBRANCH   4  14
TORSDOF 6
ENDMDL
MODEL 8
REMARK VINA RESULT:    -5.284      4.074      8.740
REMARK INTER + INTRA:          -7.856
REMARK INTER:                  -7.198
REMARK INTRA:                  -0.658
REMARK UNBOUND:                -0.719
REMARK  Name = 
REMARK  8 active torsions:
REMARK  status: ('A' for Active; 'I' for Inactive)
REMARK    1  A    between atoms: C_1  and  N_2
REMARK    2  A    between atoms: N_2  and  C_3
REMARK    3  A    between atoms: C_4  and  C_6
REMARK    4  A    between atoms: C_6  and  C_7
REMARK    5  A    between atoms: C_7  and  C_8
REMARK    6  A    between atoms: C_11  and  O_12
REMARK    7  A    between atoms: O_12  and  C_13
REMARK    8  A    between atoms: C_13  and  C_14
REMARK                            x       y       z     vdW  Elec       q    Type
REMARK                         _______ _______ _______ _____ _____    ______ ____
ROOT
ATOM      1  C   UNL     1      46.685   6.593  12.020  0.00  0.00    +0.000 A 
ATOM      2  C   UNL     1      46.530   5.878  13.213  0.00  0.00    +0.000 A 
ATOM      3  C   UNL     1      47.542   5.890  14.170  0.00  0.00    +0.000 A 
ATOM      4  C   UNL     1      48.674   6.640  13.918  0.00  0.00    +0.000 A 
ATOM      5  N   UNL     1      48.870   7.336  12.780  0.00  0.00    +0.000 NA
ATOM      6  C   UNL     1      47.880   7.291  11.860  0.00  0.00    +0.000 A 
ENDROOT
BRANCH   1   7
ATOM      7  C   UNL     1      45.646   6.650  10.922  0.00  0.00    +0.000 C 
BRANCH   7   8
ATOM      8  C   UNL     1      44.659   5.483  10.911  0.00  0.00    +0.000 C 
BRANCH   8  12
ATOM      9  C   UNL     1      44.683   2.187   9.016  0.00  0.00    +0.000 C 
ATOM     10  N   UNL     1      44.440   3.191  10.036  0.00  0.00    +0.000 N 
ATOM     11  C   UNL     1      43.654   2.819  11.204  0.00  0.00    +0.000 C 
ATOM     12  C   UNL     1      44.955   4.469   9.823  0.00  0.00    +0.000 C 
ATOM     13  O   UNL     1      45.606   4.760   8.820  0.00  0.00    +0.000 OA
ENDBRANCH   8  12
ENDBRANCH   7   8
ENDBRANCH   1   7
BRANCH   4  14
ATOM     14  O   UNL     1      49.651   6.628  14.890  0.00  0.00    +0.000 OA
BRANCH  14  15
ATOM     15  C   UNL     1      49.344   7.524  15.956  0.00  0.00    +0.000 C 
BRANCH  15  16
ATOM     16  C   UNL     1      49.152   6.713  17.217  0.00  0.00    +0.000 A 
ATOM     17  C   UNL     1      49.907   5.548  17.423  0.00  0.00    +0.000 A 
ATOM     18  C   UNL     1      49.744   4.795  18.587  0.00  0.00    +0.000 A 
ATOM     19  C   UNL     1      48.816   5.196  19.545  0.00  0.00    +0.000 A 
ATOM     20 CL   UNL     1      48.618   4.273  20.982  0.00  0.00    +0.000 Cl
ATOM     21  C   UNL     1      48.045   6.340  19.345  0.00  0.00    +0.000 A 
ATOM     22  C   UNL     1      48.208   7.095  18.181  0.00  0.00    +0.000 A 
ENDBRANCH  15  16
ENDBRANCH  14  15
ENDBRANCH   4  14
TORSDOF 6
ENDMDL
MODEL 9
REMARK VINA RESULT:    -4.968      2.773      3.684
REMARK INTER + INTRA:          -7.429
REMARK INTER:                  -6.698
REMARK INTRA:                  -0.731
REMARK UNBOUND:                -0.719
REMARK  Name = 
REMARK  8 active torsions:
REMARK  status: ('A' for Active; 'I' for Inactive)
REMARK    1  A    between atoms: C_1  and  N_2
REMARK    2  A    between atoms: N_2  and  C_3
REMARK    3  A    between atoms: C_4  and  C_6
REMARK    4  A    between atoms: C_6  and  C_7
REMARK    5  A    between atoms: C_7  and  C_8
REMARK    6  A    between atoms: C_11  and  O_12
REMARK    7  A    between atoms: O_12  and  C_13
REMARK    8  A    between atoms: C_13  and  C_14
REMARK                            x       y       z     vdW  Elec       q    Type
REMARK                         _______ _______ _______ _____ _____    ______ ____
ROOT
ATOM      1  C   UNL     1      49.622   7.501  14.017  0.00  0.00    +0.000 A 
ATOM      2  C   UNL     1      49.750   7.446  12.625  0.00  0.00    +0.000 A 
ATOM      3  C   UNL     1      48.615   7.463  11.818  0.00  0.00    +0.000 A 
ATOM      4  C   UNL     1      47.379   7.560  12.429  0.00  0.00    +0.000 A 
ATOM      5  N   UNL     1      47.208   7.605  13.765  0.00  0.00    +0.000 NA
ATOM      6  C   UNL     1      48.326   7.568  14.525  0.00  0.00    +0.000 A 
ENDROOT
BRANCH   1   7
ATOM      7  C   UNL     1      50.789   7.493  14.979  0.00  0.00    +0.000 C 
BRANCH   7   8
ATOM      8  C   UNL     1      50.418   7.228  16.438  0.00  0.00    +0.000 C 
BRANCH   8  12
ATOM      9  C   UNL     1      51.826   4.006  17.883  0.00  0.00    +0.000 C 
ATOM     10  N   UNL     1      51.687   5.395  17.485  0.00  0.00    +0.000 N 
ATOM     11  C   UNL     1      52.754   6.326  17.825  0.00  0.00    +0.000 C 
ATOM     12  C   UNL     1      50.520   5.764  16.817  0.00  0.00    +0.000 C 
ATOM     13  O   UNL     1      49.628   4.959  16.553  0.00  0.00    +0.000 OA
ENDBRANCH   8  12
ENDBRANCH   7   8
ENDBRANCH   1   7
BRANCH   4  14
ATOM     14  O   UNL     1      46.280   7.577  11.596  0.00  0.00    +0.000 OA
BRANCH  14  15
ATOM     15  C   UNL     1      45.193   6.834  12.145  0.00  0.00    +0.000 C 
BRANCH  15  16
ATOM     16  C   UNL     1      45.062   5.544  11.370  0.00  0.00    +0.000 A 
ATOM     17  C   UNL     1      45.310   5.527   9.989  0.00  0.00    +0.000 A 
ATOM     18  C   UNL     1      45.200   4.339   9.264  0.00  0.00    +0.000 A 
ATOM     19  C   UNL     1      44.830   3.165   9.914  0.00  0.00    +0.000 A 
ATOM     20 CL   UNL     1      44.700   1.700   9.023  0.00  0.00    +0.000 Cl
ATOM     21  C   UNL     1      44.561   3.170  11.282  0.00  0.00    +0.000 A 
ATOM     22  C   UNL     1      44.672   4.358  12.009  0.00  0.00    +0.000 A 
ENDBRANCH  15  16
ENDBRANCH  14  15
ENDBRANCH   4  14
TORSDOF 6
ENDMDL
