MODEL 1
REMARK VINA RESULT:    -8.127      0.000      0.000
REMARK INTER + INTRA:         -10.019
REMARK INTER:                  -9.552
REMARK INTRA:                  -0.467
REMARK UNBOUND:                -0.467
REMARK  Name = 
REMARK  3 active torsions:
REMARK  status: ('A' for Active; 'I' for Inactive)
REMARK    1  A    between atoms: C_2  and  C_4
REMARK    2  A    between atoms: C_7  and  C_8
REMARK    3  A    between atoms: C_8  and  N_9
REMARK                            x       y       z     vdW  Elec       q    Type
REMARK                         _______ _______ _______ _____ _____    ______ ____
ROOT
ATOM      1  C   UNL     1      46.467   2.495   7.658  0.00  0.00    +0.000 A 
ATOM      2  C   UNL     1      45.695   1.865   8.634  0.00  0.00    +0.000 A 
ATOM      3  C   UNL     1      44.957   2.640   9.535  0.00  0.00    +0.000 A 
ATOM      4  C   UNL     1      45.015   4.031   9.437  0.00  0.00    +0.000 A 
ATOM      5  N   UNL     1      45.763   4.654   8.491  0.00  0.00    +0.000 NA
ATOM      6  C   UNL     1      46.472   3.882   7.632  0.00  0.00    +0.000 A 
ENDROOT
BRANCH   1   8
ATOM      7  N   UNL     1      48.332   2.464   6.091  0.00  0.00    +0.000 N 
ATOM      8  C   UNL     1      47.310   1.773   6.681  0.00  0.00    +0.000 C 
ATOM      9  O   UNL     1      47.121   0.590   6.428  0.00  0.00    +0.000 OA
ATOM     10  H   UNL     1      48.961   1.920   5.512  0.00  0.00    +0.000 HD
ATOM     11  H   UNL     1      48.677   3.339   6.454  0.00  0.00    +0.000 HD
ENDBRANCH   1   8
BRANCH   4  12
ATOM     12  C   UNL     1      44.342   4.924  10.449  0.00  0.00    +0.000 C 
BRANCH  12  13
ATOM     13  N   UNL     1      45.030   5.017  11.734  0.00  0.00    +0.000 N 
ATOM     14  C   UNL     1      44.793   4.161  12.789  0.00  0.00    +0.000 A 
ATOM     15  C   UNL     1      45.809   4.326  13.707  0.00  0.00    +0.000 A 
ATOM     16  C   UNL     1      46.678   5.319  13.205  0.00  0.00    +0.000 A 
ATOM     17  N   UNL     1      47.832   5.784  13.743  0.00  0.00    +0.000 NA
ATOM     18  C   UNL     1      48.454   6.731  13.012  0.00  0.00    +0.000 A 
ATOM     19  C   UNL     1      47.998   7.254  11.811  0.00  0.00    +0.000 A 
ATOM     20  C   UNL     1      46.813   6.770  11.264  0.00  0.00    +0.000 A 
ATOM     21  C   UNL     1      46.160   5.767  11.988  0.00  0.00    +0.000 A 
ENDBRANCH  12  13
ENDBRANCH   4  12
TORSDOF 3
ENDMDL
MODEL 2
REMARK VINA RESULT:    -7.803      1.094      1.808
REMARK INTER + INTRA:          -9.639
REMARK INTER:                  -9.218
REMARK INTRA:                  -0.421
REMARK UNBOUND:                -0.467
REMARK  Name = 
REMARK  3 active torsions:
REMARK  status: ('A' for Active; 'I' for Inactive)
REMARK    1  A    between atoms: C_2  and  C_4
REMARK    2  A    between atoms: C_7  and  C_8
REMARK    3  A    between atoms: C_8  and  N_9
REMARK                            x       y       z     vdW  Elec       q    Type
REMARK                         _______ _______ _______ _____ _____    ______ ____
ROOT
ATOM      1  C   UNL     1      46.417   2.471   7.659  0.00  0.00    +0.000 A 
ATOM      2  C   UNL     1      45.621   1.813   8.599  0.00  0.00    +0.000 A 
ATOM      3  C   UNL     1      44.822   2.562   9.469  0.00  0.00    +0.000 A 
ATOM      4  C   UNL     1      44.843   3.955   9.379  0.00  0.00    +0.000 A 
ATOM      5  N   UNL     1      45.613   4.604   8.469  0.00  0.00    +0.000 NA
ATOM      6  C   UNL     1      46.382   3.857   7.639  0.00  0.00    +0.000 A 
ENDROOT
BRANCH   1   8
ATOM      7  N   UNL     1      48.391   2.480   6.233  0.00  0.00    +0.000 N 
ATOM      8  C   UNL     1      47.321   1.778   6.717  0.00  0.00    +0.000 C 
ATOM      9  O   UNL     1      47.141   0.609   6.403  0.00  0.00    +0.000 OA
ATOM     10  H   UNL     1      49.056   1.952   5.679  0.00  0.00    +0.000 HD
ATOM     11  H   UNL     1      48.717   3.335   6.655  0.00  0.00    +0.000 HD
ENDBRANCH   1   8
BRANCH   4  12
ATOM     12  C   UNL     1      44.101   4.823  10.364  0.00  0.00    +0.000 C 
BRANCH  12  13
ATOM     13  N   UNL     1      44.955   5.601  11.256  0.00  0.00    +0.000 N 
ATOM     14  C   UNL     1      44.900   6.976  11.357  0.00  0.00    +0.000 A 
ATOM     15  C   UNL     1      45.596   7.348  12.488  0.00  0.00    +0.000 A 
ATOM     16  C   UNL     1      46.102   6.171  13.082  0.00  0.00    +0.000 A 
ATOM     17  N   UNL     1      46.813   6.040  14.228  0.00  0.00    +0.000 NA
ATOM     18  C   UNL     1      47.142   4.772  14.547  0.00  0.00    +0.000 A 
ATOM     19  C   UNL     1      46.833   3.645  13.799  0.00  0.00    +0.000 A 
ATOM     20  C   UNL     1      46.101   3.788  12.623  0.00  0.00    +0.000 A 
ATOM     21  C   UNL     1      45.724   5.091  12.282  0.00  0.00    +0.000 A 
ENDBRANCH  12  13
ENDBRANCH   4  12
TORSDOF 3
ENDMDL
MODEL 3
REMARK VINA RESULT:    -6.596      2.872      6.479
REMARK INTER + INTRA:          -8.219
REMARK INTER:                  -8.070
REMARK INTRA:                  -0.149
REMARK UNBOUND:                -0.467
REMARK  Name = 
REMARK  3 active torsions:
REMARK  status: ('A' for Active; 'I' for Inactive)
REMARK    1  A    between atoms: C_2  and  C_4
REMARK    2  A    between atoms: C_7  and  C_8
REMARK    3  A    between atoms: C_8  and  N_9
REMARK                            x       y       z     vdW  Elec       q    Type
REMARK                         _______ _______ _______ _____ _____    ______ ____
ROOT
ATOM      1  C   UNL     1      46.606   4.756  14.018  0.00  0.00    +0.000 A 
ATOM      2  C   UNL     1      45.786   5.618  13.289  0.00  0.00    +0.000 A 
ATOM      3  C   UNL     1      45.023   5.113  12.231  0.00  0.00    +0.000 A 
ATOM      4  C   UNL     1      45.105   3.753  11.926  0.00  0.00    +0.000 A 
ATOM      5  N   UNL     1      45.900   2.906  12.629  0.00  0.00    +0.000 NA
ATOM      6  C   UNL     1      46.632   3.420  13.647  0.00  0.00    +0.000 A 
ENDROOT
BRANCH   1   8
ATOM      7  N   UNL     1      47.163   4.757  16.389  0.00  0.00    +0.000 N 
ATOM      8  C   UNL     1      47.476   5.192  15.131  0.00  0.00    +0.000 C 
ATOM      9  O   UNL     1      48.460   5.894  14.934  0.00  0.00    +0.000 OA
ATOM     10  H   UNL     1      47.835   4.977  17.116  0.00  0.00    +0.000 HD
ATOM     11  H   UNL     1      46.534   3.988  16.558  0.00  0.00    +0.000 HD
ENDBRANCH   1   8
BRANCH   4  12
ATOM     12  C   UNL     1      44.405   3.168  10.726  0.00  0.00    +0.000 C 
BRANCH  12  13
ATOM     13  N   UNL     1      45.020   3.493   9.442  0.00  0.00    +0.000 N 
ATOM     14  C   UNL     1      45.242   4.784   9.008  0.00  0.00    +0.000 A 
ATOM     15  C   UNL     1      46.101   4.730   7.932  0.00  0.00    +0.000 A 
ATOM     16  C   UNL     1      46.399   3.370   7.693  0.00  0.00    +0.000 A 
ATOM     17  N   UNL     1      47.228   2.836   6.765  0.00  0.00    +0.000 NA
ATOM     18  C   UNL     1      47.319   1.490   6.795  0.00  0.00    +0.000 A 
ATOM     19  C   UNL     1      46.630   0.655   7.662  0.00  0.00    +0.000 A 
ATOM     20  C   UNL     1      45.780   1.211   8.614  0.00  0.00    +0.000 A 
ATOM     21  C   UNL     1      45.688   2.607   8.622  0.00  0.00    +0.000 A 
ENDBRANCH  12  13
ENDBRANCH   4  12
TORSDOF 3
ENDMDL
MODEL 4
REMARK VINA RESULT:    -6.317      3.187      6.178
REMARK INTER + INTRA:          -7.891
REMARK INTER:                  -7.430
REMARK INTRA:                  -0.462
REMARK UNBOUND:                -0.467
REMARK  Name = 
REMARK  3 active torsions:
REMARK  status: ('A' for Active; 'I' for Inactive)
REMARK    1  A    between atoms: C_2  and  C_4
REMARK    2  A    between atoms: C_7  and  C_8
REMARK    3  A    between atoms: C_8  and  N_9
REMARK                            x       y       z     vdW  Elec       q    Type
REMARK                         _______ _______ _______ _____ _____    ______ ____
ROOT
ATOM      1  C   UNL     1      48.188   6.908  13.761  0.00  0.00    +0.000 A 
ATOM      2  C   UNL     1      47.538   7.816  12.922  0.00  0.00    +0.000 A 
ATOM      3  C   UNL     1      46.243   7.536  12.476  0.00  0.00    +0.000 A 
ATOM      4  C   UNL     1      45.630   6.348  12.878  0.00  0.00    +0.000 A 
ATOM      5  N   UNL     1      46.252   5.459  13.692  0.00  0.00    +0.000 NA
ATOM      6  C   UNL     1      47.509   5.750  14.109  0.00  0.00    +0.000 A 
ENDROOT
BRANCH   1   8
ATOM      7  N   UNL     1      50.447   7.767  13.463  0.00  0.00    +0.000 N 
ATOM      8  C   UNL     1      49.566   7.090  14.261  0.00  0.00    +0.000 C 
ATOM      9  O   UNL     1      49.905   6.677  15.363  0.00  0.00    +0.000 OA
ATOM     10  H   UNL     1      51.350   7.976  13.874  0.00  0.00    +0.000 HD
ATOM     11  H   UNL     1      50.149   8.336  12.686  0.00  0.00    +0.000 HD
ENDBRANCH   1   8
BRANCH   4  12
ATOM     12  C   UNL     1      44.286   5.929  12.336  0.00  0.00    +0.000 C 
BRANCH  12  13
ATOM     13  N   UNL     1      44.248   4.583  11.771  0.00  0.00    +0.000 N 
ATOM     14  C   UNL     1      43.531   3.543  12.326  0.00  0.00    +0.000 A 
ATOM     15  C   UNL     1      43.460   2.530  11.393  0.00  0.00    +0.000 A 
ATOM     16  C   UNL     1      44.165   2.958  10.246  0.00  0.00    +0.000 A 
ATOM     17  N   UNL     1      44.331   2.313   9.066  0.00  0.00    +0.000 NA
ATOM     18  C   UNL     1      45.048   2.993   8.148  0.00  0.00    +0.000 A 
ATOM     19  C   UNL     1      45.621   4.242   8.334  0.00  0.00    +0.000 A 
ATOM     20  C   UNL     1      45.446   4.898   9.549  0.00  0.00    +0.000 A 
ATOM     21  C   UNL     1      44.683   4.227  10.510  0.00  0.00    +0.000 A 
ENDBRANCH  12  13
ENDBRANCH   4  12
TORSDOF 3
ENDMDL
MODEL 5
REMARK VINA RESULT:    -5.954      2.567      6.212
REMARK INTER + INTRA:          -7.466
REMARK INTER:                  -7.005
REMARK INTRA:                  -0.460
REMARK UNBOUND:                -0.467
REMARK  Name = 
REMARK  3 active torsions:
REMARK  status: ('A' for Active; 'I' for Inactive)
REMARK    1  A    between atoms: C_2  and  C_4
REMARK    2  A    between atoms: C_7  and  C_8
REMARK    3  A    between atoms: C_8  and  N_9
REMARK                            x       y       z     vdW  Elec       q    Type
REMARK                         _______ _______ _______ _____ _____    ______ ____
ROOT
ATOM      1  C   UNL     1      46.938   6.262  13.014  0.00  0.00    +0.000 A 
ATOM      2  C   UNL     1      46.974   6.810  11.731  0.00  0.00    +0.000 A 
ATOM      3  C   UNL     1      46.120   6.306  10.743  0.00  0.00    +0.000 A 
ATOM      4  C   UNL     1      45.254   5.261  11.066  0.00  0.00    +0.000 A 
ATOM      5  N   UNL     1      45.212   4.721  12.311  0.00  0.00    +0.000 NA
ATOM      6  C   UNL     1      46.051   5.223  13.249  0.00  0.00    +0.000 A 
ENDROOT
BRANCH   1   8
ATOM      7  N   UNL     1      47.679   7.978  14.576  0.00  0.00    +0.000 N 
ATOM      8  C   UNL     1      47.819   6.696  14.119  0.00  0.00    +0.000 C 
ATOM      9  O   UNL     1      48.626   5.930  14.630  0.00  0.00    +0.000 OA
ATOM     10  H   UNL     1      48.213   8.216  15.404  0.00  0.00    +0.000 HD
ATOM     11  H   UNL     1      46.872   8.544  14.367  0.00  0.00    +0.000 HD
ENDBRANCH   1   8
BRANCH   4  12
ATOM     12  C   UNL     1      44.397   4.592  10.020  0.00  0.00    +0.000 C 
BRANCH  12  13
ATOM     13  N   UNL     1      44.970   3.378   9.447  0.00  0.00    +0.000 N 
ATOM     14  C   UNL     1      44.518   2.108   9.743  0.00  0.00    +0.000 A 
ATOM     15  C   UNL     1      45.051   1.239   8.814  0.00  0.00    +0.000 A 
ATOM     16  C   UNL     1      45.862   1.996   7.940  0.00  0.00    +0.000 A 
ATOM     17  N   UNL     1      46.554   1.578   6.853  0.00  0.00    +0.000 NA
ATOM     18  C   UNL     1      47.227   2.550   6.204  0.00  0.00    +0.000 A 
ATOM     19  C   UNL     1      47.274   3.886   6.575  0.00  0.00    +0.000 A 
ATOM     20  C   UNL     1      46.559   4.308   7.692  0.00  0.00    +0.000 A 
ATOM     21  C   UNL     1      45.830   3.325   8.369  0.00  0.00    +0.000 A 
ENDBRANCH  12  13
ENDBRANCH   4  12
TORSDOF 3
ENDMDL
MODEL 6
REMARK VINA RESULT:    -5.813      2.461      3.121
REMARK INTER + INTRA:          -7.299
REMARK INTER:                  -6.848
REMARK INTRA:                  -0.451
REMARK UNBOUND:                -0.467
REMARK  Name = 
REMARK  3 active torsions:
REMARK  status: ('A' for Active; 'I' for Inactive)
REMARK    1  A    between atoms: C_2  and  C_4
REMARK    2  A    between atoms: C_7  and  C_8
REMARK    3  A    between atoms: C_8  and  N_9
REMARK                            x       y       z     vdW  Elec       q    Type
REMARK                         _______ _______ _______ _____ _____    ______ ____
ROOT
ATOM      1  C   UNL     1      45.614   3.138   8.883  0.00  0.00    +0.000 A 
ATOM      2  C   UNL     1      45.906   4.486   8.670  0.00  0.00    +0.000 A 
ATOM      3  C   UNL     1      45.392   5.449   9.545  0.00  0.00    +0.000 A 
ATOM      4  C   UNL     1      44.593   5.036  10.612  0.00  0.00    +0.000 A 
ATOM      5  N   UNL     1      44.303   3.728  10.828  0.00  0.00    +0.000 NA
ATOM      6  C   UNL     1      44.809   2.814   9.965  0.00  0.00    +0.000 A 
ENDROOT
BRANCH   1   8
ATOM      7  N   UNL     1      46.585   2.390   6.778  0.00  0.00    +0.000 N 
ATOM      8  C   UNL     1      46.077   2.046   8.001  0.00  0.00    +0.000 C 
ATOM      9  O   UNL     1      46.036   0.876   8.359  0.00  0.00    +0.000 OA
ATOM     10  H   UNL     1      46.997   1.637   6.240  0.00  0.00    +0.000 HD
ATOM     11  H   UNL     1      46.872   3.330   6.554  0.00  0.00    +0.000 HD
ENDBRANCH   1   8
BRANCH   4  12
ATOM     12  C   UNL     1      43.910   6.028  11.520  0.00  0.00    +0.000 C 
BRANCH  12  13
ATOM     13  N   UNL     1      44.802   7.006  12.137  0.00  0.00    +0.000 N 
ATOM     14  C   UNL     1      45.859   6.664  12.955  0.00  0.00    +0.000 A 
ATOM     15  C   UNL     1      46.661   7.776  13.102  0.00  0.00    +0.000 A 
ATOM     16  C   UNL     1      46.068   8.827  12.367  0.00  0.00    +0.000 A 
ATOM     17  N   UNL     1      46.519  10.092  12.188  0.00  0.00    +0.000 NA
ATOM     18  C   UNL     1      45.733  10.867  11.413  0.00  0.00    +0.000 A 
ATOM     19  C   UNL     1      44.535  10.477  10.833  0.00  0.00    +0.000 A 
ATOM     20  C   UNL     1      44.079   9.175  11.020  0.00  0.00    +0.000 A 
ATOM     21  C   UNL     1      44.889   8.342  11.799  0.00  0.00    +0.000 A 
ENDBRANCH  12  13
ENDBRANCH   4  12
TORSDOF 3
ENDMDL
MODEL 7
REMARK VINA RESULT:    -5.694      3.051      4.729
REMARK INTER + INTRA:          -7.159
REMARK INTER:                  -6.780
REMARK INTRA:                  -0.379
REMARK UNBOUND:                -0.467
REMARK  Name = 
REMARK  3 active torsions:
REMARK  status: ('A' for Active; 'I' for Inactive)
REMARK    1  A    between atoms: C_2  and  C_4
REMARK    2  A    between atoms: C_7  and  C_8
REMARK    3  A    between atoms: C_8  and  N_9
REMARK                            x       y       z     vdW  Elec       q    Type
REMARK                         _______ _______ _______ _____ _____    ______ ____
ROOT
ATOM      1  C   UNL     1      44.553   4.100  11.362  0.00  0.00    +0.000 A 
ATOM      2  C   UNL     1      45.128   5.005  10.469  0.00  0.00    +0.000 A 
ATOM      3  C   UNL     1      45.670   6.201  10.953  0.00  0.00    +0.000 A 
ATOM      4  C   UNL     1      45.618   6.461  12.323  0.00  0.00    +0.000 A 
ATOM      5  N   UNL     1      45.062   5.588  13.200  0.00  0.00    +0.000 NA
ATOM      6  C   UNL     1      44.540   4.438  12.707  0.00  0.00    +0.000 A 
ENDROOT
BRANCH   1   8
ATOM      7  N   UNL     1      44.466   2.165   9.885  0.00  0.00    +0.000 N 
ATOM      8  C   UNL     1      43.924   2.826  10.953  0.00  0.00    +0.000 C 
ATOM      9  O   UNL     1      42.970   2.361  11.563  0.00  0.00    +0.000 OA
ATOM     10  H   UNL     1      44.089   1.244   9.694  0.00  0.00    +0.000 HD
ATOM     11  H   UNL     1      45.385   2.371   9.527  0.00  0.00    +0.000 HD
ENDBRANCH   1   8
BRANCH   4  12
ATOM     12  C   UNL     1      46.073   7.781  12.895  0.00  0.00    +0.000 C 
BRANCH  12  13
ATOM     13  N   UNL     1      47.499   8.054  12.740  0.00  0.00    +0.000 N 
ATOM     14  C   UNL     1      48.483   7.108  12.944  0.00  0.00    +0.000 A 
ATOM     15  C   UNL     1      49.660   7.598  12.418  0.00  0.00    +0.000 A 
ATOM     16  C   UNL     1      49.389   8.882  11.894  0.00  0.00    +0.000 A 
ATOM     17  N   UNL     1      50.229   9.725  11.247  0.00  0.00    +0.000 NA
ATOM     18  C   UNL     1      49.668  10.885  10.848  0.00  0.00    +0.000 A 
ATOM     19  C   UNL     1      48.351  11.263  11.068  0.00  0.00    +0.000 A 
ATOM     20  C   UNL     1      47.494  10.390  11.733  0.00  0.00    +0.000 A 
ATOM     21  C   UNL     1      48.044   9.168  12.135  0.00  0.00    +0.000 A 
ENDBRANCH  12  13
ENDBRANCH   4  12
TORSDOF 3
ENDMDL
MODEL 8
REMARK VINA RESULT:    -5.653      4.782      7.692
REMARK INTER + INTRA:          -7.111
REMARK INTER:                  -6.766
REMARK INTRA:                  -0.345
REMARK UNBOUND:                -0.467
REMARK  Name = 
REMARK  3 active torsions:
REMARK  status: ('A' for Active; 'I' for Inactive)
REMARK    1  A    between atoms: C_2  and  C_4
REMARK    2  A    between atoms: C_7  and  C_8
REMARK    3  A    between atoms: C_8  and  N_9
REMARK                            x       y       z     vdW  Elec       q    Type
REMARK                         _______ _______ _______ _____ _____    ______ ____
ROOT
ATOM      1  C   UNL     1      48.101   4.903  17.480  0.00  0.00    +0.000 A 
ATOM      2  C   UNL     1      47.251   4.046  16.778  0.00  0.00    +0.000 A 
ATOM      3  C   UNL     1      47.088   4.214  15.399  0.00  0.00    +0.000 A 
ATOM      4  C   UNL     1      47.780   5.242  14.756  0.00  0.00    +0.000 A 
ATOM      5  N   UNL     1      48.608   6.080  15.428  0.00  0.00    +0.000 NA
ATOM      6  C   UNL     1      48.746   5.900  16.765  0.00  0.00    +0.000 A 
ENDROOT
BRANCH   1   8
ATOM      7  N   UNL     1      48.436   3.595  19.507  0.00  0.00    +0.000 N 
ATOM      8  C   UNL     1      48.317   4.834  18.940  0.00  0.00    +0.000 C 
ATOM      9  O   UNL     1      48.417   5.849  19.619  0.00  0.00    +0.000 OA
ATOM     10  H   UNL     1      48.694   3.576  20.487  0.00  0.00    +0.000 HD
ATOM     11  H   UNL     1      48.617   2.765  18.965  0.00  0.00    +0.000 HD
ENDBRANCH   1   8
BRANCH   4  12
ATOM     12  C   UNL     1      47.557   5.553  13.297  0.00  0.00    +0.000 C 
BRANCH  12  13
ATOM     13  N   UNL     1      46.193   5.948  12.959  0.00  0.00    +0.000 N 
ATOM     14  C   UNL     1      45.806   7.257  12.757  0.00  0.00    +0.000 A 
ATOM     15  C   UNL     1      44.563   7.246  12.159  0.00  0.00    +0.000 A 
ATOM     16  C   UNL     1      44.176   5.897  12.008  0.00  0.00    +0.000 A 
ATOM     17  N   UNL     1      43.053   5.398  11.438  0.00  0.00    +0.000 NA
ATOM     18  C   UNL     1      42.974   4.051  11.428  0.00  0.00    +0.000 A 
ATOM     19  C   UNL     1      43.916   3.184  11.961  0.00  0.00    +0.000 A 
ATOM     20  C   UNL     1      45.068   3.704  12.545  0.00  0.00    +0.000 A 
ATOM     21  C   UNL     1      45.187   5.098  12.545  0.00  0.00    +0.000 A 
ENDBRANCH  12  13
ENDBRANCH   4  12
TORSDOF 3
ENDMDL
MODEL 9
REMARK VINA RESULT:    -5.519      3.165      4.715
REMARK INTER + INTRA:          -6.954
REMARK INTER:                  -6.519
REMARK INTRA:                  -0.435
REMARK UNBOUND:                -0.467
REMARK  Name = 
REMARK  3 active torsions:
REMARK  status: ('A' for Active; 'I' for Inactive)
REMARK    1  A    between atoms: C_2  and  C_4
REMARK    2  A    between atoms: C_7  and  C_8
REMARK    3  A    between atoms: C_8  and  N_9
REMARK                            x       y       z     vdW  Elec       q    Type
REMARK                         _______ _______ _______ _____ _____    ______ ____
ROOT
ATOM      1  C   UNL     1      44.453   4.216  11.426  0.00  0.00    +0.000 A 
ATOM      2  C   UNL     1      45.201   5.053  10.597  0.00  0.00    +0.000 A 
ATOM      3  C   UNL     1      45.637   6.291  11.082  0.00  0.00    +0.000 A 
ATOM      4  C   UNL     1      45.309   6.661  12.387  0.00  0.00    +0.000 A 
ATOM      5  N   UNL     1      44.583   5.854  13.201  0.00  0.00    +0.000 NA
ATOM      6  C   UNL     1      44.168   4.661  12.708  0.00  0.00    +0.000 A 
ENDROOT
BRANCH   1   8
ATOM      7  N   UNL     1      44.544   2.265   9.971  0.00  0.00    +0.000 N 
ATOM      8  C   UNL     1      43.916   2.905  11.003  0.00  0.00    +0.000 C 
ATOM      9  O   UNL     1      42.960   2.394  11.573  0.00  0.00    +0.000 OA
ATOM     10  H   UNL     1      44.228   1.322   9.773  0.00  0.00    +0.000 HD
ATOM     11  H   UNL     1      45.467   2.519   9.655  0.00  0.00    +0.000 HD
ENDBRANCH   1   8
BRANCH   4  12
ATOM     12  C   UNL     1      45.643   8.028  12.930  0.00  0.00    +0.000 C 
BRANCH  12  13
ATOM     13  N   UNL     1      47.025   8.448  12.717  0.00  0.00    +0.000 N 
ATOM     14  C   UNL     1      47.384   9.513  11.917  0.00  0.00    +0.000 A 
ATOM     15  C   UNL     1      48.701   9.822  12.185  0.00  0.00    +0.000 A 
ATOM     16  C   UNL     1      49.161   8.911  13.162  0.00  0.00    +0.000 A 
ATOM     17  N   UNL     1      50.375   8.854  13.760  0.00  0.00    +0.000 NA
ATOM     18  C   UNL     1      50.509   7.872  14.675  0.00  0.00    +0.000 A 
ATOM     19  C   UNL     1      49.534   6.944  15.011  0.00  0.00    +0.000 A 
ATOM     20  C   UNL     1      48.288   7.010  14.394  0.00  0.00    +0.000 A 
ATOM     21  C   UNL     1      48.114   8.036  13.459  0.00  0.00    +0.000 A 
ENDBRANCH  12  13
ENDBRANCH   4  12
TORSDOF 3
ENDMDL
