MODEL 1
REMARK VINA RESULT:    -8.316      0.000      0.000
REMARK INTER + INTRA:         -12.098
REMARK INTER:                 -11.233
REMARK INTRA:                  -0.865
REMARK UNBOUND:                -0.865
REMARK  Name = 
REMARK  7 active torsions:
REMARK  status: ('A' for Active; 'I' for Inactive)
REMARK    1  A    between atoms: C_1  and  C_2
REMARK    2  A    between atoms: C_4  and  C_5
REMARK    3  A    between atoms: C_10  and  N_11
REMARK    4  A    between atoms: N_11  and  C_12
REMARK    5  A    between atoms: C_12  and  C_13
REMARK    6  A    between atoms: C_16  and  O_17
REMARK    7  A    between atoms: O_17  and  C_18
REMARK                            x       y       z     vdW  Elec       q    Type
REMARK                         _______ _______ _______ _____ _____    ______ ____
ROOT
ATOM      1  N   UNL     1      43.852   4.857   9.821  0.00  0.00    +0.000 N 
ATOM      2  H   UNL     1      42.937   4.828   9.394  0.00  0.00    +0.000 HD
ENDROOT
BRANCH   1   9
ATOM      3  C   UNL     1      43.941   1.962  10.085  0.00  0.00    +0.000 C 
ATOM      4  C   UNL     1      44.893   2.742   9.224  0.00  0.00    +0.000 A 
ATOM      5  C   UNL     1      45.866   2.035   8.497  0.00  0.00    +0.000 A 
ATOM      6  C   UNL     1      46.734   2.701   7.636  0.00  0.00    +0.000 A 
ATOM      7  C   UNL     1      46.570   4.070   7.533  0.00  0.00    +0.000 A 
ATOM      8  N   UNL     1      45.651   4.790   8.236  0.00  0.00    +0.000 NA
ATOM      9  C   UNL     1      44.832   4.141   9.097  0.00  0.00    +0.000 A 
BRANCH   6  10
ATOM     10  C   UNL     1      47.754   1.907   6.907  0.00  0.00    +0.000 C 
ATOM     11  N   UNL     1      48.731   2.550   6.202  0.00  0.00    +0.000 N 
ATOM     12  O   UNL     1      47.742   0.680   6.937  0.00  0.00    +0.000 OA
ATOM     13  H   UNL     1      48.849   3.546   6.116  0.00  0.00    +0.000 HD
ATOM     14  H   UNL     1      49.412   1.956   5.742  0.00  0.00    +0.000 HD
ENDBRANCH   6  10
ENDBRANCH   1   9
BRANCH   1  15
ATOM     15  C   UNL     1      43.899   5.006  11.287  0.00  0.00    +0.000 C 
ATOM     16  C   UNL     1      42.934   4.247  12.181  0.00  0.00    +0.000 C 
ATOM     17  C   UNL     1      42.745   5.714  12.001  0.00  0.00    +0.000 C 
BRANCH  15  18
ATOM     18  C   UNL     1      45.281   5.381  11.800  0.00  0.00    +0.000 A 
ATOM     19  C   UNL     1      45.950   6.530  11.331  0.00  0.00    +0.000 A 
ATOM     20  C   UNL     1      47.199   6.915  11.844  0.00  0.00    +0.000 A 
ATOM     21  C   UNL     1      47.787   6.172  12.856  0.00  0.00    +0.000 A 
ATOM     22  C   UNL     1      47.173   4.994  13.283  0.00  0.00    +0.000 A 
ATOM     23  C   UNL     1      45.938   4.602  12.759  0.00  0.00    +0.000 A 
BRANCH  21  24
ATOM     24  O   UNL     1      48.969   6.443  13.472  0.00  0.00    +0.000 OA
BRANCH  24  25
ATOM     25  C   UNL     1      48.972   7.185  14.684  0.00  0.00    +0.000 C 
ATOM     26  F   UNL     1      47.899   7.982  14.854  0.00  0.00    +0.000 F 
ATOM     27  F   UNL     1      49.003   6.311  15.718  0.00  0.00    +0.000 F 
ATOM     28  F   UNL     1      50.091   7.938  14.742  0.00  0.00    +0.000 F 
ENDBRANCH  24  25
ENDBRANCH  21  24
ENDBRANCH  15  18
ENDBRANCH   1  15
TORSDOF 6
ENDMDL
MODEL 2
REMARK VINA RESULT:    -7.971      1.337      1.588
REMARK INTER + INTRA:         -11.633
REMARK INTER:                 -10.606
REMARK INTRA:                  -1.027
REMARK UNBOUND:                -0.865
REMARK  Name = 
REMARK  7 active torsions:
REMARK  status: ('A' for Active; 'I' for Inactive)
REMARK    1  A    between atoms: C_1  and  C_2
REMARK    2  A    between atoms: C_4  and  C_5
REMARK    3  A    between atoms: C_10  and  N_11
REMARK    4  A    between atoms: N_11  and  C_12
REMARK    5  A    between atoms: C_12  and  C_13
REMARK    6  A    between atoms: C_16  and  O_17
REMARK    7  A    between atoms: O_17  and  C_18
REMARK                            x       y       z     vdW  Elec       q    Type
REMARK                         _______ _______ _______ _____ _____    ______ ____
ROOT
ATOM      1  N   UNL     1      43.839   4.702   9.956  0.00  0.00    +0.000 N 
ATOM      2  H   UNL     1      42.899   4.569   9.608  0.00  0.00    +0.000 HD
ENDROOT
BRANCH   1   9
ATOM      3  C   UNL     1      43.995   1.798   9.865  0.00  0.00    +0.000 C 
ATOM      4  C   UNL     1      44.920   2.700   9.099  0.00  0.00    +0.000 A 
ATOM      5  C   UNL     1      45.902   2.109   8.284  0.00  0.00    +0.000 A 
ATOM      6  C   UNL     1      46.746   2.894   7.505  0.00  0.00    +0.000 A 
ATOM      7  C   UNL     1      46.551   4.262   7.570  0.00  0.00    +0.000 A 
ATOM      8  N   UNL     1      45.623   4.870   8.362  0.00  0.00    +0.000 NA
ATOM      9  C   UNL     1      44.827   4.101   9.143  0.00  0.00    +0.000 A 
BRANCH   6  10
ATOM     10  C   UNL     1      47.777   2.219   6.677  0.00  0.00    +0.000 C 
ATOM     11  N   UNL     1      48.305   2.866   5.597  0.00  0.00    +0.000 N 
ATOM     12  O   UNL     1      48.172   1.091   6.955  0.00  0.00    +0.000 OA
ATOM     13  H   UNL     1      48.069   3.793   5.282  0.00  0.00    +0.000 HD
ATOM     14  H   UNL     1      49.020   2.364   5.082  0.00  0.00    +0.000 HD
ENDBRANCH   6  10
ENDBRANCH   1   9
BRANCH   1  15
ATOM     15  C   UNL     1      43.995   4.856  11.414  0.00  0.00    +0.000 C 
ATOM     16  C   UNL     1      43.429   3.824  12.374  0.00  0.00    +0.000 C 
ATOM     17  C   UNL     1      42.761   5.152  12.268  0.00  0.00    +0.000 C 
BRANCH  15  18
ATOM     18  C   UNL     1      45.232   5.656  11.795  0.00  0.00    +0.000 A 
ATOM     19  C   UNL     1      45.377   7.006  11.412  0.00  0.00    +0.000 A 
ATOM     20  C   UNL     1      46.486   7.768  11.812  0.00  0.00    +0.000 A 
ATOM     21  C   UNL     1      47.455   7.201  12.626  0.00  0.00    +0.000 A 
ATOM     22  C   UNL     1      47.363   5.848  12.957  0.00  0.00    +0.000 A 
ATOM     23  C   UNL     1      46.267   5.086  12.544  0.00  0.00    +0.000 A 
BRANCH  21  24
ATOM     24  O   UNL     1      48.559   7.825  13.119  0.00  0.00    +0.000 OA
BRANCH  24  25
ATOM     25  C   UNL     1      49.605   8.200  12.234  0.00  0.00    +0.000 C 
ATOM     26  F   UNL     1      49.733   7.406  11.152  0.00  0.00    +0.000 F 
ATOM     27  F   UNL     1      49.360   9.457  11.795  0.00  0.00    +0.000 F 
ATOM     28  F   UNL     1      50.774   8.213  12.909  0.00  0.00    +0.000 F 
ENDBRANCH  24  25
ENDBRANCH  21  24
ENDBRANCH  15  18
ENDBRANCH   1  15
TORSDOF 6
ENDMDL
MODEL 3
REMARK VINA RESULT:    -7.719      1.781      2.436
REMARK INTER + INTRA:         -11.292
REMARK INTER:                  -9.977
REMARK INTRA:                  -1.315
REMARK UNBOUND:                -0.865
REMARK  Name = 
REMARK  7 active torsions:
REMARK  status: ('A' for Active; 'I' for Inactive)
REMARK    1  A    between atoms: C_1  and  C_2
REMARK    2  A    between atoms: C_4  and  C_5
REMARK    3  A    between atoms: C_10  and  N_11
REMARK    4  A    between atoms: N_11  and  C_12
REMARK    5  A    between atoms: C_12  and  C_13
REMARK    6  A    between atoms: C_16  and  O_17
REMARK    7  A    between atoms: O_17  and  C_18
REMARK                            x       y       z     vdW  Elec       q    Type
REMARK                         _______ _______ _______ _____ _____    ______ ____
ROOT
ATOM      1  N   UNL     1      43.768   4.759   9.899  0.00  0.00    +0.000 N 
ATOM      2  H   UNL     1      42.925   4.989   9.391  0.00  0.00    +0.000 HD
ENDROOT
BRANCH   1   9
ATOM      3  C   UNL     1      46.262   5.501   8.600  0.00  0.00    +0.000 C 
ATOM      4  C   UNL     1      45.738   4.094   8.640  0.00  0.00    +0.000 A 
ATOM      5  C   UNL     1      46.501   3.082   8.032  0.00  0.00    +0.000 A 
ATOM      6  C   UNL     1      46.095   1.751   8.092  0.00  0.00    +0.000 A 
ATOM      7  C   UNL     1      44.928   1.494   8.786  0.00  0.00    +0.000 A 
ATOM      8  N   UNL     1      44.154   2.451   9.372  0.00  0.00    +0.000 NA
ATOM      9  C   UNL     1      44.537   3.747   9.281  0.00  0.00    +0.000 A 
BRANCH   6  10
ATOM     10  C   UNL     1      46.929   0.726   7.416  0.00  0.00    +0.000 C 
ATOM     11  N   UNL     1      46.700  -0.598   7.661  0.00  0.00    +0.000 N 
ATOM     12  O   UNL     1      47.815   1.048   6.631  0.00  0.00    +0.000 OA
ATOM     13  H   UNL     1      45.996  -0.979   8.272  0.00  0.00    +0.000 HD
ATOM     14  H   UNL     1      47.286  -1.252   7.155  0.00  0.00    +0.000 HD
ENDBRANCH   6  10
ENDBRANCH   1   9
BRANCH   1  15
ATOM     15  C   UNL     1      43.741   4.956  11.360  0.00  0.00    +0.000 C 
ATOM     16  C   UNL     1      43.070   3.944  12.273  0.00  0.00    +0.000 C 
ATOM     17  C   UNL     1      42.408   5.259  12.046  0.00  0.00    +0.000 C 
BRANCH  15  18
ATOM     18  C   UNL     1      44.913   5.782  11.868  0.00  0.00    +0.000 A 
ATOM     19  C   UNL     1      45.986   5.182  12.559  0.00  0.00    +0.000 A 
ATOM     20  C   UNL     1      47.100   5.928  12.977  0.00  0.00    +0.000 A 
ATOM     21  C   UNL     1      47.173   7.282  12.685  0.00  0.00    +0.000 A 
ATOM     22  C   UNL     1      46.090   7.905  12.062  0.00  0.00    +0.000 A 
ATOM     23  C   UNL     1      44.974   7.165  11.663  0.00  0.00    +0.000 A 
BRANCH  21  24
ATOM     24  O   UNL     1      48.200   8.119  12.991  0.00  0.00    +0.000 OA
BRANCH  24  25
ATOM     25  C   UNL     1      49.285   8.256  12.084  0.00  0.00    +0.000 C 
ATOM     26  F   UNL     1      49.585   9.529  11.760  0.00  0.00    +0.000 F 
ATOM     27  F   UNL     1      50.385   7.705  12.650  0.00  0.00    +0.000 F 
ATOM     28  F   UNL     1      49.009   7.570  10.954  0.00  0.00    +0.000 F 
ENDBRANCH  24  25
ENDBRANCH  21  24
ENDBRANCH  15  18
ENDBRANCH   1  15
TORSDOF 6
ENDMDL
MODEL 4
REMARK VINA RESULT:    -7.536      1.847      2.458
REMARK INTER + INTRA:         -11.045
REMARK INTER:                 -10.962
REMARK INTRA:                  -0.084
REMARK UNBOUND:                -0.865
REMARK  Name = 
REMARK  7 active torsions:
REMARK  status: ('A' for Active; 'I' for Inactive)
REMARK    1  A    between atoms: C_1  and  C_2
REMARK    2  A    between atoms: C_4  and  C_5
REMARK    3  A    between atoms: C_10  and  N_11
REMARK    4  A    between atoms: N_11  and  C_12
REMARK    5  A    between atoms: C_12  and  C_13
REMARK    6  A    between atoms: C_16  and  O_17
REMARK    7  A    between atoms: O_17  and  C_18
REMARK                            x       y       z     vdW  Elec       q    Type
REMARK                         _______ _______ _______ _____ _____    ______ ____
ROOT
ATOM      1  N   UNL     1      44.201   5.100  10.039  0.00  0.00    +0.000 N 
ATOM      2  H   UNL     1      43.286   4.689  10.169  0.00  0.00    +0.000 HD
ENDROOT
BRANCH   1   9
ATOM      3  C   UNL     1      43.959   2.203  10.101  0.00  0.00    +0.000 C 
ATOM      4  C   UNL     1      44.948   2.931   9.237  0.00  0.00    +0.000 A 
ATOM      5  C   UNL     1      45.789   2.172   8.404  0.00  0.00    +0.000 A 
ATOM      6  C   UNL     1      46.682   2.796   7.537  0.00  0.00    +0.000 A 
ATOM      7  C   UNL     1      46.677   4.179   7.537  0.00  0.00    +0.000 A 
ATOM      8  N   UNL     1      45.890   4.946   8.343  0.00  0.00    +0.000 NA
ATOM      9  C   UNL     1      45.047   4.332   9.208  0.00  0.00    +0.000 A 
BRANCH   6  10
ATOM     10  C   UNL     1      47.560   1.946   6.694  0.00  0.00    +0.000 C 
ATOM     11  N   UNL     1      48.656   2.497   6.094  0.00  0.00    +0.000 N 
ATOM     12  O   UNL     1      47.323   0.753   6.536  0.00  0.00    +0.000 OA
ATOM     13  H   UNL     1      48.956   3.456   6.161  0.00  0.00    +0.000 HD
ATOM     14  H   UNL     1      49.230   1.864   5.547  0.00  0.00    +0.000 HD
ENDBRANCH   6  10
ENDBRANCH   1   9
BRANCH   1  15
ATOM     15  C   UNL     1      44.714   5.946  11.132  0.00  0.00    +0.000 C 
ATOM     16  C   UNL     1      43.946   7.170  11.600  0.00  0.00    +0.000 C 
ATOM     17  C   UNL     1      45.198   7.362  10.815  0.00  0.00    +0.000 C 
BRANCH  15  18
ATOM     18  C   UNL     1      45.598   5.181  12.106  0.00  0.00    +0.000 A 
ATOM     19  C   UNL     1      46.734   5.780  12.688  0.00  0.00    +0.000 A 
ATOM     20  C   UNL     1      47.520   5.102  13.633  0.00  0.00    +0.000 A 
ATOM     21  C   UNL     1      47.166   3.823  14.035  0.00  0.00    +0.000 A 
ATOM     22  C   UNL     1      46.085   3.189  13.419  0.00  0.00    +0.000 A 
ATOM     23  C   UNL     1      45.314   3.859  12.465  0.00  0.00    +0.000 A 
BRANCH  21  24
ATOM     24  O   UNL     1      47.806   3.063  14.963  0.00  0.00    +0.000 OA
BRANCH  24  25
ATOM     25  C   UNL     1      47.775   3.453  16.329  0.00  0.00    +0.000 C 
ATOM     26  F   UNL     1      48.892   4.072  16.759  0.00  0.00    +0.000 F 
ATOM     27  F   UNL     1      46.738   4.306  16.504  0.00  0.00    +0.000 F 
ATOM     28  F   UNL     1      47.554   2.365  17.097  0.00  0.00    +0.000 F 
ENDBRANCH  24  25
ENDBRANCH  21  24
ENDBRANCH  15  18
ENDBRANCH   1  15
TORSDOF 6
ENDMDL
MODEL 5
REMARK VINA RESULT:    -7.359      4.387      7.155
REMARK INTER + INTRA:         -10.805
REMARK INTER:                 -10.113
REMARK INTRA:                  -0.693
REMARK UNBOUND:                -0.865
REMARK  Name = 
REMARK  7 active torsions:
REMARK  status: ('A' for Active; 'I' for Inactive)
REMARK    1  A    between atoms: C_1  and  C_2
REMARK    2  A    between atoms: C_4  and  C_5
REMARK    3  A    between atoms: C_10  and  N_11
REMARK    4  A    between atoms: N_11  and  C_12
REMARK    5  A    between atoms: C_12  and  C_13
REMARK    6  A    between atoms: C_16  and  O_17
REMARK    7  A    between atoms: O_17  and  C_18
REMARK                            x       y       z     vdW  Elec       q    Type
REMARK                         _______ _______ _______ _____ _____    ______ ____
ROOT
ATOM      1  N   UNL     1      45.868   4.201  13.354  0.00  0.00    +0.000 N 
ATOM      2  H   UNL     1      45.691   3.558  14.114  0.00  0.00    +0.000 HD
ENDROOT
BRANCH   1   9
ATOM      3  C   UNL     1      47.116   4.149  15.981  0.00  0.00    +0.000 C 
ATOM      4  C   UNL     1      47.478   5.141  14.914  0.00  0.00    +0.000 A 
ATOM      5  C   UNL     1      48.484   6.083  15.195  0.00  0.00    +0.000 A 
ATOM      6  C   UNL     1      48.904   6.986  14.222  0.00  0.00    +0.000 A 
ATOM      7  C   UNL     1      48.292   6.890  12.986  0.00  0.00    +0.000 A 
ATOM      8  N   UNL     1      47.302   6.003  12.684  0.00  0.00    +0.000 NA
ATOM      9  C   UNL     1      46.875   5.149  13.644  0.00  0.00    +0.000 A 
BRANCH   6  10
ATOM     10  C   UNL     1      49.956   7.971  14.579  0.00  0.00    +0.000 C 
ATOM     11  N   UNL     1      51.252   7.732  14.220  0.00  0.00    +0.000 N 
ATOM     12  O   UNL     1      49.679   9.003  15.181  0.00  0.00    +0.000 OA
ATOM     13  H   UNL     1      51.594   6.931  13.715  0.00  0.00    +0.000 HD
ATOM     14  H   UNL     1      51.923   8.450  14.471  0.00  0.00    +0.000 HD
ENDBRANCH   6  10
ENDBRANCH   1   9
BRANCH   1  15
ATOM     15  C   UNL     1      44.739   4.492  12.451  0.00  0.00    +0.000 C 
ATOM     16  C   UNL     1      43.738   5.587  12.778  0.00  0.00    +0.000 C 
ATOM     17  C   UNL     1      43.316   4.164  12.907  0.00  0.00    +0.000 C 
BRANCH  15  18
ATOM     18  C   UNL     1      45.034   4.136  11.001  0.00  0.00    +0.000 A 
ATOM     19  C   UNL     1      44.897   2.814  10.530  0.00  0.00    +0.000 A 
ATOM     20  C   UNL     1      45.108   2.488   9.181  0.00  0.00    +0.000 A 
ATOM     21  C   UNL     1      45.433   3.486   8.274  0.00  0.00    +0.000 A 
ATOM     22  C   UNL     1      45.641   4.787   8.735  0.00  0.00    +0.000 A 
ATOM     23  C   UNL     1      45.448   5.106  10.082  0.00  0.00    +0.000 A 
BRANCH  21  24
ATOM     24  O   UNL     1      45.630   3.327   6.937  0.00  0.00    +0.000 OA
BRANCH  24  25
ATOM     25  C   UNL     1      46.798   2.663   6.476  0.00  0.00    +0.000 C 
ATOM     26  F   UNL     1      46.775   1.324   6.625  0.00  0.00    +0.000 F 
ATOM     27  F   UNL     1      46.945   2.928   5.156  0.00  0.00    +0.000 F 
ATOM     28  F   UNL     1      47.875   3.157   7.124  0.00  0.00    +0.000 F 
ENDBRANCH  24  25
ENDBRANCH  21  24
ENDBRANCH  15  18
ENDBRANCH   1  15
TORSDOF 6
ENDMDL
MODEL 6
REMARK VINA RESULT:    -7.103      4.509      7.179
REMARK INTER + INTRA:         -10.459
REMARK INTER:                 -10.117
REMARK INTRA:                  -0.342
REMARK UNBOUND:                -0.865
REMARK  Name = 
REMARK  7 active torsions:
REMARK  status: ('A' for Active; 'I' for Inactive)
REMARK    1  A    between atoms: C_1  and  C_2
REMARK    2  A    between atoms: C_4  and  C_5
REMARK    3  A    between atoms: C_10  and  N_11
REMARK    4  A    between atoms: N_11  and  C_12
REMARK    5  A    between atoms: C_12  and  C_13
REMARK    6  A    between atoms: C_16  and  O_17
REMARK    7  A    between atoms: O_17  and  C_18
REMARK                            x       y       z     vdW  Elec       q    Type
REMARK                         _______ _______ _______ _____ _____    ______ ____
ROOT
ATOM      1  N   UNL     1      45.490   5.426  12.841  0.00  0.00    +0.000 N 
ATOM      2  H   UNL     1      45.689   5.116  13.783  0.00  0.00    +0.000 HD
ENDROOT
BRANCH   1   9
ATOM      3  C   UNL     1      48.288   6.219  12.872  0.00  0.00    +0.000 C 
ATOM      4  C   UNL     1      47.159   7.182  12.641  0.00  0.00    +0.000 A 
ATOM      5  C   UNL     1      47.473   8.533  12.412  0.00  0.00    +0.000 A 
ATOM      6  C   UNL     1      46.471   9.458  12.132  0.00  0.00    +0.000 A 
ATOM      7  C   UNL     1      45.178   8.970  12.078  0.00  0.00    +0.000 A 
ATOM      8  N   UNL     1      44.835   7.672  12.312  0.00  0.00    +0.000 NA
ATOM      9  C   UNL     1      45.811   6.783  12.618  0.00  0.00    +0.000 A 
BRANCH   6  10
ATOM     10  C   UNL     1      46.857  10.876  11.917  0.00  0.00    +0.000 C 
ATOM     11  N   UNL     1      47.637  11.508  12.842  0.00  0.00    +0.000 N 
ATOM     12  O   UNL     1      46.496  11.485  10.915  0.00  0.00    +0.000 OA
ATOM     13  H   UNL     1      48.001  11.108  13.691  0.00  0.00    +0.000 HD
ATOM     14  H   UNL     1      47.886  12.469  12.632  0.00  0.00    +0.000 HD
ENDBRANCH   6  10
ENDBRANCH   1   9
BRANCH   1  15
ATOM     15  C   UNL     1      44.393   4.741  12.132  0.00  0.00    +0.000 C 
ATOM     16  C   UNL     1      42.942   5.079  12.426  0.00  0.00    +0.000 C 
ATOM     17  C   UNL     1      43.490   3.781  12.907  0.00  0.00    +0.000 C 
BRANCH  15  18
ATOM     18  C   UNL     1      44.798   4.249  10.750  0.00  0.00    +0.000 A 
ATOM     19  C   UNL     1      44.608   2.905  10.368  0.00  0.00    +0.000 A 
ATOM     20  C   UNL     1      44.923   2.457   9.075  0.00  0.00    +0.000 A 
ATOM     21  C   UNL     1      45.405   3.354   8.133  0.00  0.00    +0.000 A 
ATOM     22  C   UNL     1      45.663   4.671   8.514  0.00  0.00    +0.000 A 
ATOM     23  C   UNL     1      45.367   5.111   9.807  0.00  0.00    +0.000 A 
BRANCH  21  24
ATOM     24  O   UNL     1      45.715   3.073   6.839  0.00  0.00    +0.000 OA
BRANCH  24  25
ATOM     25  C   UNL     1      46.947   2.432   6.538  0.00  0.00    +0.000 C 
ATOM     26  F   UNL     1      47.988   2.840   7.289  0.00  0.00    +0.000 F 
ATOM     27  F   UNL     1      46.793   1.101   6.737  0.00  0.00    +0.000 F 
ATOM     28  F   UNL     1      47.243   2.627   5.235  0.00  0.00    +0.000 F 
ENDBRANCH  24  25
ENDBRANCH  21  24
ENDBRANCH  15  18
ENDBRANCH   1  15
TORSDOF 6
ENDMDL
MODEL 7
REMARK VINA RESULT:    -6.687      4.259      7.043
REMARK INTER + INTRA:          -9.898
REMARK INTER:                 -10.069
REMARK INTRA:                   0.171
REMARK UNBOUND:                -0.865
REMARK  Name = 
REMARK  7 active torsions:
REMARK  status: ('A' for Active; 'I' for Inactive)
REMARK    1  A    between atoms: C_1  and  C_2
REMARK    2  A    between atoms: C_4  and  C_5
REMARK    3  A    between atoms: C_10  and  N_11
REMARK    4  A    between atoms: N_11  and  C_12
REMARK    5  A    between atoms: C_12  and  C_13
REMARK    6  A    between atoms: C_16  and  O_17
REMARK    7  A    between atoms: O_17  and  C_18
REMARK                            x       y       z     vdW  Elec       q    Type
REMARK                         _______ _______ _______ _____ _____    ______ ____
ROOT
ATOM      1  N   UNL     1      44.584   6.587  11.961  0.00  0.00    +0.000 N 
ATOM      2  H   UNL     1      44.367   7.318  11.297  0.00  0.00    +0.000 HD
ENDROOT
BRANCH   1   9
ATOM      3  C   UNL     1      45.485   9.306  12.465  0.00  0.00    +0.000 C 
ATOM      4  C   UNL     1      46.269   8.089  12.864  0.00  0.00    +0.000 A 
ATOM      5  C   UNL     1      47.494   8.275  13.529  0.00  0.00    +0.000 A 
ATOM      6  C   UNL     1      48.233   7.183  13.976  0.00  0.00    +0.000 A 
ATOM      7  C   UNL     1      47.689   5.933  13.743  0.00  0.00    +0.000 A 
ATOM      8  N   UNL     1      46.515   5.715  13.086  0.00  0.00    +0.000 NA
ATOM      9  C   UNL     1      45.817   6.780  12.624  0.00  0.00    +0.000 A 
BRANCH   6  10
ATOM     10  C   UNL     1      49.528   7.436  14.656  0.00  0.00    +0.000 C 
ATOM     11  N   UNL     1      50.180   8.618  14.444  0.00  0.00    +0.000 N 
ATOM     12  O   UNL     1      50.018   6.606  15.415  0.00  0.00    +0.000 OA
ATOM     13  H   UNL     1      49.870   9.374  13.857  0.00  0.00    +0.000 HD
ATOM     14  H   UNL     1      51.049   8.743  14.952  0.00  0.00    +0.000 HD
ENDBRANCH   6  10
ENDBRANCH   1   9
BRANCH   1  15
ATOM     15  C   UNL     1      44.033   5.248  11.683  0.00  0.00    +0.000 C 
ATOM     16  C   UNL     1      42.649   4.856  12.170  0.00  0.00    +0.000 C 
ATOM     17  C   UNL     1      43.842   4.265  12.839  0.00  0.00    +0.000 C 
BRANCH  15  18
ATOM     18  C   UNL     1      44.600   4.626  10.415  0.00  0.00    +0.000 A 
ATOM     19  C   UNL     1      44.197   3.345   9.984  0.00  0.00    +0.000 A 
ATOM     20  C   UNL     1      44.669   2.790   8.784  0.00  0.00    +0.000 A 
ATOM     21  C   UNL     1      45.531   3.520   7.979  0.00  0.00    +0.000 A 
ATOM     22  C   UNL     1      45.994   4.760   8.423  0.00  0.00    +0.000 A 
ATOM     23  C   UNL     1      45.537   5.303   9.627  0.00  0.00    +0.000 A 
BRANCH  21  24
ATOM     24  O   UNL     1      46.038   3.129   6.779  0.00  0.00    +0.000 OA
BRANCH  24  25
ATOM     25  C   UNL     1      47.184   2.291   6.744  0.00  0.00    +0.000 C 
ATOM     26  F   UNL     1      47.116   1.216   7.555  0.00  0.00    +0.000 F 
ATOM     27  F   UNL     1      47.343   1.841   5.477  0.00  0.00    +0.000 F 
ATOM     28  F   UNL     1      48.276   3.016   7.069  0.00  0.00    +0.000 F 
ENDBRANCH  24  25
ENDBRANCH  21  24
ENDBRANCH  15  18
ENDBRANCH   1  15
TORSDOF 6
ENDMDL
MODEL 8
REMARK VINA RESULT:    -6.248      4.989      8.119
REMARK INTER + INTRA:          -9.306
REMARK INTER:                  -8.722
REMARK INTRA:                  -0.583
REMARK UNBOUND:                -0.865
REMARK  Name = 
REMARK  7 active torsions:
REMARK  status: ('A' for Active; 'I' for Inactive)
REMARK    1  A    between atoms: C_1  and  C_2
REMARK    2  A    between atoms: C_4  and  C_5
REMARK    3  A    between atoms: C_10  and  N_11
REMARK    4  A    between atoms: N_11  and  C_12
REMARK    5  A    between atoms: C_12  and  C_13
REMARK    6  A    between atoms: C_16  and  O_17
REMARK    7  A    between atoms: O_17  and  C_18
REMARK                            x       y       z     vdW  Elec       q    Type
REMARK                         _______ _______ _______ _____ _____    ______ ____
ROOT
ATOM      1  N   UNL     1      47.486   6.861  14.535  0.00  0.00    +0.000 N 
ATOM      2  H   UNL     1      47.093   7.726  14.881  0.00  0.00    +0.000 HD
ENDROOT
BRANCH   1   9
ATOM      3  C   UNL     1      49.599   8.338  15.882  0.00  0.00    +0.000 C 
ATOM      4  C   UNL     1      49.314   6.886  16.138  0.00  0.00    +0.000 A 
ATOM      5  C   UNL     1      50.099   6.211  17.088  0.00  0.00    +0.000 A 
ATOM      6  C   UNL     1      49.840   4.882  17.411  0.00  0.00    +0.000 A 
ATOM      7  C   UNL     1      48.775   4.286  16.761  0.00  0.00    +0.000 A 
ATOM      8  N   UNL     1      48.004   4.903  15.821  0.00  0.00    +0.000 NA
ATOM      9  C   UNL     1      48.283   6.186  15.488  0.00  0.00    +0.000 A 
BRANCH   6  10
ATOM     10  C   UNL     1      50.713   4.212  18.408  0.00  0.00    +0.000 C 
ATOM     11  N   UNL     1      50.436   4.340  19.739  0.00  0.00    +0.000 N 
ATOM     12  O   UNL     1      51.674   3.536  18.055  0.00  0.00    +0.000 OA
ATOM     13  H   UNL     1      49.671   4.855  20.143  0.00  0.00    +0.000 HD
ATOM     14  H   UNL     1      51.053   3.844  20.372  0.00  0.00    +0.000 HD
ENDBRANCH   6  10
ENDBRANCH   1   9
BRANCH   1  15
ATOM     15  C   UNL     1      47.738   6.776  13.085  0.00  0.00    +0.000 C 
ATOM     16  C   UNL     1      49.136   6.961  12.523  0.00  0.00    +0.000 C 
ATOM     17  C   UNL     1      48.131   8.041  12.322  0.00  0.00    +0.000 C 
BRANCH  15  18
ATOM     18  C   UNL     1      46.735   5.889  12.361  0.00  0.00    +0.000 A 
ATOM     19  C   UNL     1      46.243   6.232  11.085  0.00  0.00    +0.000 A 
ATOM     20  C   UNL     1      45.364   5.390  10.385  0.00  0.00    +0.000 A 
ATOM     21  C   UNL     1      44.986   4.175  10.938  0.00  0.00    +0.000 A 
ATOM     22  C   UNL     1      45.408   3.852  12.229  0.00  0.00    +0.000 A 
ATOM     23  C   UNL     1      46.268   4.700  12.932  0.00  0.00    +0.000 A 
BRANCH  21  24
ATOM     24  O   UNL     1      44.176   3.246  10.364  0.00  0.00    +0.000 OA
BRANCH  24  25
ATOM     25  C   UNL     1      44.660   2.475   9.272  0.00  0.00    +0.000 C 
ATOM     26  F   UNL     1      45.996   2.296   9.263  0.00  0.00    +0.000 F 
ATOM     27  F   UNL     1      44.082   1.252   9.325  0.00  0.00    +0.000 F 
ATOM     28  F   UNL     1      44.289   3.063   8.114  0.00  0.00    +0.000 F 
ENDBRANCH  24  25
ENDBRANCH  21  24
ENDBRANCH  15  18
ENDBRANCH   1  15
TORSDOF 6
ENDMDL
MODEL 9
REMARK VINA RESULT:    -6.058      3.896      5.873
REMARK INTER + INTRA:          -9.049
REMARK INTER:                  -7.841
REMARK INTRA:                  -1.208
REMARK UNBOUND:                -0.865
REMARK  Name = 
REMARK  7 active torsions:
REMARK  status: ('A' for Active; 'I' for Inactive)
REMARK    1  A    between atoms: C_1  and  C_2
REMARK    2  A    between atoms: C_4  and  C_5
REMARK    3  A    between atoms: C_10  and  N_11
REMARK    4  A    between atoms: N_11  and  C_12
REMARK    5  A    between atoms: C_12  and  C_13
REMARK    6  A    between atoms: C_16  and  O_17
REMARK    7  A    between atoms: O_17  and  C_18
REMARK                            x       y       z     vdW  Elec       q    Type
REMARK                         _______ _______ _______ _____ _____    ______ ____
ROOT
ATOM      1  N   UNL     1      48.471   6.272  12.810  0.00  0.00    +0.000 N 
ATOM      2  H   UNL     1      49.125   5.667  12.332  0.00  0.00    +0.000 HD
ENDROOT
BRANCH   1   9
ATOM      3  C   UNL     1      46.912   4.713  14.708  0.00  0.00    +0.000 C 
ATOM      4  C   UNL     1      46.359   5.227  13.410  0.00  0.00    +0.000 A 
ATOM      5  C   UNL     1      45.014   4.953  13.105  0.00  0.00    +0.000 A 
ATOM      6  C   UNL     1      44.432   5.457  11.944  0.00  0.00    +0.000 A 
ATOM      7  C   UNL     1      45.239   6.239  11.139  0.00  0.00    +0.000 A 
ATOM      8  N   UNL     1      46.550   6.510  11.393  0.00  0.00    +0.000 NA
ATOM      9  C   UNL     1      47.120   5.989  12.506  0.00  0.00    +0.000 A 
BRANCH   6  10
ATOM     10  C   UNL     1      43.013   5.121  11.662  0.00  0.00    +0.000 C 
ATOM     11  N   UNL     1      42.060   6.095  11.750  0.00  0.00    +0.000 N 
ATOM     12  O   UNL     1      42.685   3.984  11.339  0.00  0.00    +0.000 OA
ATOM     13  H   UNL     1      42.213   7.061  11.992  0.00  0.00    +0.000 HD
ATOM     14  H   UNL     1      41.113   5.812  11.526  0.00  0.00    +0.000 HD
ENDBRANCH   6  10
ENDBRANCH   1   9
BRANCH   1  15
ATOM     15  C   UNL     1      48.942   7.627  13.150  0.00  0.00    +0.000 C 
ATOM     16  C   UNL     1      48.795   8.775  12.166  0.00  0.00    +0.000 C 
ATOM     17  C   UNL     1      50.149   8.204  12.408  0.00  0.00    +0.000 C 
BRANCH  15  18
ATOM     18  C   UNL     1      48.933   7.899  14.647  0.00  0.00    +0.000 A 
ATOM     19  C   UNL     1      48.234   8.998  15.187  0.00  0.00    +0.000 A 
ATOM     20  C   UNL     1      48.171   9.221  16.572  0.00  0.00    +0.000 A 
ATOM     21  C   UNL     1      48.782   8.330  17.442  0.00  0.00    +0.000 A 
ATOM     22  C   UNL     1      49.535   7.276  16.922  0.00  0.00    +0.000 A 
ATOM     23  C   UNL     1      49.612   7.066  15.543  0.00  0.00    +0.000 A 
BRANCH  21  24
ATOM     24  O   UNL     1      48.773   8.397  18.800  0.00  0.00    +0.000 OA
BRANCH  24  25
ATOM     25  C   UNL     1      47.562   8.156  19.504  0.00  0.00    +0.000 C 
ATOM     26  F   UNL     1      46.681   9.175  19.466  0.00  0.00    +0.000 F 
ATOM     27  F   UNL     1      46.962   7.072  18.959  0.00  0.00    +0.000 F 
ATOM     28  F   UNL     1      47.847   7.871  20.793  0.00  0.00    +0.000 F 
ENDBRANCH  24  25
ENDBRANCH  21  24
ENDBRANCH  15  18
ENDBRANCH   1  15
TORSDOF 6
ENDMDL
