MODEL 1
REMARK VINA RESULT:    -8.764      0.000      0.000
REMARK INTER + INTRA:         -12.110
REMARK INTER:                 -11.838
REMARK INTRA:                  -0.272
REMARK UNBOUND:                -0.272
REMARK  Name = 
REMARK  6 active torsions:
REMARK  status: ('A' for Active; 'I' for Inactive)
REMARK    1  A    between atoms: C_2  and  C_4
REMARK    2  A    between atoms: C_7  and  N_8
REMARK    3  A    between atoms: N_8  and  C_9
REMARK    4  A    between atoms: C_9  and  C_10
REMARK    5  A    between atoms: C_10  and  C_11
REMARK    6  A    between atoms: C_14  and  C_15
REMARK                            x       y       z     vdW  Elec       q    Type
REMARK                         _______ _______ _______ _____ _____    ______ ____
ROOT
ATOM      1  C   UNL     1      43.999   5.659  10.947  0.00  0.00    +0.000 C 
ATOM      2  C   UNL     1      43.120   5.466  12.174  0.00  0.00    +0.000 C 
ATOM      3  C   UNL     1      43.030   6.737  11.398  0.00  0.00    +0.000 C 
ENDROOT
BRANCH   1   4
ATOM      4  N   UNL     1      43.671   4.849   9.756  0.00  0.00    +0.000 N 
ATOM      5  H   UNL     1      42.707   4.804   9.442  0.00  0.00    +0.000 HD
BRANCH   4   9
ATOM      6  C   UNL     1      46.249   2.021   7.940  0.00  0.00    +0.000 A 
ATOM      7  C   UNL     1      46.323   3.363   7.566  0.00  0.00    +0.000 A 
ATOM      8  C   UNL     1      45.464   4.302   8.150  0.00  0.00    +0.000 A 
ATOM      9  C   UNL     1      44.549   3.935   9.145  0.00  0.00    +0.000 A 
ATOM     10  C   UNL     1      44.458   2.576   9.479  0.00  0.00    +0.000 A 
ATOM     11  C   UNL     1      45.294   1.625   8.881  0.00  0.00    +0.000 A 
BRANCH   6  13
ATOM     12  N   UNL     1      46.844  -0.316   7.589  0.00  0.00    +0.000 N 
ATOM     13  C   UNL     1      47.133   0.991   7.327  0.00  0.00    +0.000 C 
ATOM     14  O   UNL     1      48.060   1.304   6.593  0.00  0.00    +0.000 OA
ATOM     15  H   UNL     1      47.397  -1.002   7.090  0.00  0.00    +0.000 HD
ATOM     16  H   UNL     1      45.950  -0.609   7.952  0.00  0.00    +0.000 HD
ENDBRANCH   6  13
ENDBRANCH   4   9
ENDBRANCH   1   4
BRANCH   1  17
ATOM     17  C   UNL     1      45.484   5.969  11.143  0.00  0.00    +0.000 C 
BRANCH  17  18
ATOM     18  C   UNL     1      46.058   5.293  12.368  0.00  0.00    +0.000 A 
ATOM     19  C   UNL     1      46.694   6.033  13.371  0.00  0.00    +0.000 A 
ATOM     20  C   UNL     1      47.230   5.388  14.483  0.00  0.00    +0.000 A 
ATOM     21  C   UNL     1      47.105   4.008  14.567  0.00  0.00    +0.000 A 
ATOM     22  N   UNL     1      46.486   3.247  13.619  0.00  0.00    +0.000 NA
ATOM     23  C   UNL     1      45.983   3.912  12.550  0.00  0.00    +0.000 A 
BRANCH  21  24
ATOM     24  C   UNL     1      47.659   3.286  15.756  0.00  0.00    +0.000 C 
ATOM     25  N   UNL     1      47.023   3.527  16.944  0.00  0.00    +0.000 N 
ATOM     26  O   UNL     1      48.624   2.533  15.688  0.00  0.00    +0.000 OA
ATOM     27  H   UNL     1      46.238   4.167  16.968  0.00  0.00    +0.000 HD
ATOM     28  H   UNL     1      47.362   3.094  17.789  0.00  0.00    +0.000 HD
ENDBRANCH  21  24
ENDBRANCH  17  18
ENDBRANCH   1  17
TORSDOF 6
ENDMDL
MODEL 2
REMARK VINA RESULT:    -8.682      2.212      2.841
REMARK INTER + INTRA:         -11.999
REMARK INTER:                 -11.441
REMARK INTRA:                  -0.558
REMARK UNBOUND:                -0.272
REMARK  Name = 
REMARK  6 active torsions:
REMARK  status: ('A' for Active; 'I' for Inactive)
REMARK    1  A    between atoms: C_2  and  C_4
REMARK    2  A    between atoms: C_7  and  N_8
REMARK    3  A    between atoms: N_8  and  C_9
REMARK    4  A    between atoms: C_9  and  C_10
REMARK    5  A    between atoms: C_10  and  C_11
REMARK    6  A    between atoms: C_14  and  C_15
REMARK                            x       y       z     vdW  Elec       q    Type
REMARK                         _______ _______ _______ _____ _____    ______ ____
ROOT
ATOM      1  C   UNL     1      43.737   5.122  11.207  0.00  0.00    +0.000 C 
ATOM      2  C   UNL     1      42.370   5.370  11.830  0.00  0.00    +0.000 C 
ATOM      3  C   UNL     1      43.350   6.491  11.738  0.00  0.00    +0.000 C 
ENDROOT
BRANCH   1   4
ATOM      4  N   UNL     1      43.777   4.902   9.748  0.00  0.00    +0.000 N 
ATOM      5  H   UNL     1      43.038   5.291   9.171  0.00  0.00    +0.000 HD
BRANCH   4   9
ATOM      6  C   UNL     1      46.420   2.240   7.782  0.00  0.00    +0.000 A 
ATOM      7  C   UNL     1      45.475   1.739   8.678  0.00  0.00    +0.000 A 
ATOM      8  C   UNL     1      44.608   2.613   9.344  0.00  0.00    +0.000 A 
ATOM      9  C   UNL     1      44.633   3.992   9.100  0.00  0.00    +0.000 A 
ATOM     10  C   UNL     1      45.616   4.483   8.230  0.00  0.00    +0.000 A 
ATOM     11  C   UNL     1      46.506   3.620   7.580  0.00  0.00    +0.000 A 
BRANCH   6  13
ATOM     12  N   UNL     1      48.432   1.928   6.442  0.00  0.00    +0.000 N 
ATOM     13  C   UNL     1      47.372   1.342   7.070  0.00  0.00    +0.000 C 
ATOM     14  O   UNL     1      47.226   0.128   7.076  0.00  0.00    +0.000 OA
ATOM     15  H   UNL     1      49.116   1.297   6.044  0.00  0.00    +0.000 HD
ATOM     16  H   UNL     1      48.726   2.870   6.645  0.00  0.00    +0.000 HD
ENDBRANCH   6  13
ENDBRANCH   4   9
ENDBRANCH   1   4
BRANCH   1  17
ATOM     17  C   UNL     1      44.790   4.363  12.016  0.00  0.00    +0.000 C 
BRANCH  17  18
ATOM     18  C   UNL     1      45.999   5.216  12.334  0.00  0.00    +0.000 A 
ATOM     19  C   UNL     1      46.401   6.246  11.476  0.00  0.00    +0.000 A 
ATOM     20  C   UNL     1      47.527   7.009  11.781  0.00  0.00    +0.000 A 
ATOM     21  C   UNL     1      48.219   6.723  12.950  0.00  0.00    +0.000 A 
ATOM     22  N   UNL     1      47.858   5.736  13.818  0.00  0.00    +0.000 NA
ATOM     23  C   UNL     1      46.761   5.014  13.484  0.00  0.00    +0.000 A 
BRANCH  21  24
ATOM     24  C   UNL     1      49.425   7.533  13.310  0.00  0.00    +0.000 C 
ATOM     25  N   UNL     1      50.511   7.375  12.490  0.00  0.00    +0.000 N 
ATOM     26  O   UNL     1      49.458   8.286  14.277  0.00  0.00    +0.000 OA
ATOM     27  H   UNL     1      50.455   6.734  11.708  0.00  0.00    +0.000 HD
ATOM     28  H   UNL     1      51.365   7.872  12.692  0.00  0.00    +0.000 HD
ENDBRANCH  21  24
ENDBRANCH  17  18
ENDBRANCH   1  17
TORSDOF 6
ENDMDL
MODEL 3
REMARK VINA RESULT:    -8.232      3.245      6.970
REMARK INTER + INTRA:         -11.391
REMARK INTER:                 -10.690
REMARK INTRA:                  -0.701
REMARK UNBOUND:                -0.272
REMARK  Name = 
REMARK  6 active torsions:
REMARK  status: ('A' for Active; 'I' for Inactive)
REMARK    1  A    between atoms: C_2  and  C_4
REMARK    2  A    between atoms: C_7  and  N_8
REMARK    3  A    between atoms: N_8  and  C_9
REMARK    4  A    between atoms: C_9  and  C_10
REMARK    5  A    between atoms: C_10  and  C_11
REMARK    6  A    between atoms: C_14  and  C_15
REMARK                            x       y       z     vdW  Elec       q    Type
REMARK                         _______ _______ _______ _____ _____    ______ ____
ROOT
ATOM      1  C   UNL     1      44.165   4.568  11.799  0.00  0.00    +0.000 C 
ATOM      2  C   UNL     1      43.095   4.822  12.851  0.00  0.00    +0.000 C 
ATOM      3  C   UNL     1      43.522   3.422  12.560  0.00  0.00    +0.000 C 
ENDROOT
BRANCH   1   4
ATOM      4  N   UNL     1      45.544   4.971  12.136  0.00  0.00    +0.000 N 
ATOM      5  H   UNL     1      46.171   4.286  12.547  0.00  0.00    +0.000 HD
BRANCH   4   9
ATOM      6  C   UNL     1      47.019   8.942  12.142  0.00  0.00    +0.000 A 
ATOM      7  C   UNL     1      45.653   8.712  12.311  0.00  0.00    +0.000 A 
ATOM      8  C   UNL     1      45.155   7.404  12.295  0.00  0.00    +0.000 A 
ATOM      9  C   UNL     1      46.006   6.301  12.156  0.00  0.00    +0.000 A 
ATOM     10  C   UNL     1      47.369   6.551  11.944  0.00  0.00    +0.000 A 
ATOM     11  C   UNL     1      47.874   7.857  11.931  0.00  0.00    +0.000 A 
BRANCH   6  13
ATOM     12  N   UNL     1      47.699  10.955  13.337  0.00  0.00    +0.000 N 
ATOM     13  C   UNL     1      47.582  10.321  12.134  0.00  0.00    +0.000 C 
ATOM     14  O   UNL     1      47.953  10.851  11.096  0.00  0.00    +0.000 OA
ATOM     15  H   UNL     1      48.169  11.851  13.322  0.00  0.00    +0.000 HD
ATOM     16  H   UNL     1      47.663  10.459  14.214  0.00  0.00    +0.000 HD
ENDBRANCH   6  13
ENDBRANCH   4   9
ENDBRANCH   1   4
BRANCH   1  17
ATOM     17  C   UNL     1      43.789   4.684  10.321  0.00  0.00    +0.000 C 
BRANCH  17  18
ATOM     18  C   UNL     1      44.750   3.940   9.421  0.00  0.00    +0.000 A 
ATOM     19  C   UNL     1      45.570   4.624   8.516  0.00  0.00    +0.000 A 
ATOM     20  C   UNL     1      46.436   3.917   7.685  0.00  0.00    +0.000 A 
ATOM     21  C   UNL     1      46.466   2.533   7.791  0.00  0.00    +0.000 A 
ATOM     22  N   UNL     1      45.692   1.826   8.663  0.00  0.00    +0.000 NA
ATOM     23  C   UNL     1      44.860   2.550   9.450  0.00  0.00    +0.000 A 
BRANCH  21  24
ATOM     24  C   UNL     1      47.395   1.746   6.920  0.00  0.00    +0.000 C 
ATOM     25  N   UNL     1      48.478   2.432   6.437  0.00  0.00    +0.000 N 
ATOM     26  O   UNL     1      47.210   0.566   6.642  0.00  0.00    +0.000 OA
ATOM     27  H   UNL     1      48.593   3.410   6.673  0.00  0.00    +0.000 HD
ATOM     28  H   UNL     1      49.129   1.968   5.822  0.00  0.00    +0.000 HD
ENDBRANCH  21  24
ENDBRANCH  17  18
ENDBRANCH   1  17
TORSDOF 6
ENDMDL
MODEL 4
REMARK VINA RESULT:    -8.180      3.278      4.179
REMARK INTER + INTRA:         -11.321
REMARK INTER:                 -10.629
REMARK INTRA:                  -0.692
REMARK UNBOUND:                -0.272
REMARK  Name = 
REMARK  6 active torsions:
REMARK  status: ('A' for Active; 'I' for Inactive)
REMARK    1  A    between atoms: C_2  and  C_4
REMARK    2  A    between atoms: C_7  and  N_8
REMARK    3  A    between atoms: N_8  and  C_9
REMARK    4  A    between atoms: C_9  and  C_10
REMARK    5  A    between atoms: C_10  and  C_11
REMARK    6  A    between atoms: C_14  and  C_15
REMARK                            x       y       z     vdW  Elec       q    Type
REMARK                         _______ _______ _______ _____ _____    ______ ____
ROOT
ATOM      1  C   UNL     1      44.114   4.571  11.922  0.00  0.00    +0.000 C 
ATOM      2  C   UNL     1      43.400   3.612  12.864  0.00  0.00    +0.000 C 
ATOM      3  C   UNL     1      42.990   5.046  12.827  0.00  0.00    +0.000 C 
ENDROOT
BRANCH   1   4
ATOM      4  N   UNL     1      43.854   4.408  10.478  0.00  0.00    +0.000 N 
ATOM      5  H   UNL     1      42.917   4.573  10.125  0.00  0.00    +0.000 HD
BRANCH   4   9
ATOM      6  C   UNL     1      46.483   2.519   7.746  0.00  0.00    +0.000 A 
ATOM      7  C   UNL     1      46.396   3.912   7.771  0.00  0.00    +0.000 A 
ATOM      8  C   UNL     1      45.519   4.543   8.660  0.00  0.00    +0.000 A 
ATOM      9  C   UNL     1      44.746   3.809   9.569  0.00  0.00    +0.000 A 
ATOM     10  C   UNL     1      44.813   2.410   9.501  0.00  0.00    +0.000 A 
ATOM     11  C   UNL     1      45.667   1.768   8.597  0.00  0.00    +0.000 A 
BRANCH   6  13
ATOM     12  N   UNL     1      48.371   2.551   6.206  0.00  0.00    +0.000 N 
ATOM     13  C   UNL     1      47.391   1.812   6.801  0.00  0.00    +0.000 C 
ATOM     14  O   UNL     1      47.282   0.612   6.591  0.00  0.00    +0.000 OA
ATOM     15  H   UNL     1      49.034   2.035   5.640  0.00  0.00    +0.000 HD
ATOM     16  H   UNL     1      48.655   3.452   6.555  0.00  0.00    +0.000 HD
ENDBRANCH   6  13
ENDBRANCH   4   9
ENDBRANCH   1   4
BRANCH   1  17
ATOM     17  C   UNL     1      45.517   5.057  12.288  0.00  0.00    +0.000 C 
BRANCH  17  18
ATOM     18  C   UNL     1      45.647   6.562  12.204  0.00  0.00    +0.000 A 
ATOM     19  C   UNL     1      44.814   7.313  11.367  0.00  0.00    +0.000 A 
ATOM     20  C   UNL     1      44.962   8.696  11.293  0.00  0.00    +0.000 A 
ATOM     21  C   UNL     1      45.941   9.296  12.072  0.00  0.00    +0.000 A 
ATOM     22  N   UNL     1      46.769   8.606  12.908  0.00  0.00    +0.000 NA
ATOM     23  C   UNL     1      46.596   7.262  12.947  0.00  0.00    +0.000 A 
BRANCH  21  24
ATOM     24  C   UNL     1      46.116  10.782  12.024  0.00  0.00    +0.000 C 
ATOM     25  N   UNL     1      44.960  11.516  12.043  0.00  0.00    +0.000 N 
ATOM     26  O   UNL     1      47.215  11.323  11.963  0.00  0.00    +0.000 OA
ATOM     27  H   UNL     1      44.067  11.038  12.079  0.00  0.00    +0.000 HD
ATOM     28  H   UNL     1      45.005  12.522  11.986  0.00  0.00    +0.000 HD
ENDBRANCH  21  24
ENDBRANCH  17  18
ENDBRANCH   1  17
TORSDOF 6
ENDMDL
MODEL 5
REMARK VINA RESULT:    -8.073      1.731      7.001
REMARK INTER + INTRA:         -11.177
REMARK INTER:                 -10.648
REMARK INTRA:                  -0.530
REMARK UNBOUND:                -0.272
REMARK  Name = 
REMARK  6 active torsions:
REMARK  status: ('A' for Active; 'I' for Inactive)
REMARK    1  A    between atoms: C_2  and  C_4
REMARK    2  A    between atoms: C_7  and  N_8
REMARK    3  A    between atoms: N_8  and  C_9
REMARK    4  A    between atoms: C_9  and  C_10
REMARK    5  A    between atoms: C_10  and  C_11
REMARK    6  A    between atoms: C_14  and  C_15
REMARK                            x       y       z     vdW  Elec       q    Type
REMARK                         _______ _______ _______ _____ _____    ______ ____
ROOT
ATOM      1  C   UNL     1      44.097   5.038  11.317  0.00  0.00    +0.000 C 
ATOM      2  C   UNL     1      43.271   6.316  11.319  0.00  0.00    +0.000 C 
ATOM      3  C   UNL     1      43.241   5.420  12.511  0.00  0.00    +0.000 C 
ENDROOT
BRANCH   1   4
ATOM      4  N   UNL     1      45.563   5.188  11.404  0.00  0.00    +0.000 N 
ATOM      5  H   UNL     1      46.125   5.022  10.575  0.00  0.00    +0.000 HD
BRANCH   4   9
ATOM      6  C   UNL     1      47.735   5.473  15.029  0.00  0.00    +0.000 A 
ATOM      7  C   UNL     1      47.731   6.548  14.140  0.00  0.00    +0.000 A 
ATOM      8  C   UNL     1      47.028   6.457  12.933  0.00  0.00    +0.000 A 
ATOM      9  C   UNL     1      46.283   5.317  12.606  0.00  0.00    +0.000 A 
ATOM     10  C   UNL     1      46.332   4.230  13.490  0.00  0.00    +0.000 A 
ATOM     11  C   UNL     1      47.054   4.301  14.687  0.00  0.00    +0.000 A 
BRANCH   6  13
ATOM     12  N   UNL     1      48.273   6.608  17.118  0.00  0.00    +0.000 N 
ATOM     13  C   UNL     1      48.487   5.527  16.314  0.00  0.00    +0.000 C 
ATOM     14  O   UNL     1      49.240   4.623  16.648  0.00  0.00    +0.000 OA
ATOM     15  H   UNL     1      48.720   6.582  18.025  0.00  0.00    +0.000 HD
ATOM     16  H   UNL     1      47.476   7.215  17.005  0.00  0.00    +0.000 HD
ENDBRANCH   6  13
ENDBRANCH   4   9
ENDBRANCH   1   4
BRANCH   1  17
ATOM     17  C   UNL     1      43.606   3.843  10.497  0.00  0.00    +0.000 C 
BRANCH  17  18
ATOM     18  C   UNL     1      44.599   3.425   9.434  0.00  0.00    +0.000 A 
ATOM     19  C   UNL     1      45.065   2.108   9.359  0.00  0.00    +0.000 A 
ATOM     20  C   UNL     1      45.992   1.750   8.382  0.00  0.00    +0.000 A 
ATOM     21  C   UNL     1      46.422   2.726   7.494  0.00  0.00    +0.000 A 
ATOM     22  N   UNL     1      45.988   4.018   7.524  0.00  0.00    +0.000 NA
ATOM     23  C   UNL     1      45.091   4.328   8.492  0.00  0.00    +0.000 A 
BRANCH  21  24
ATOM     24  C   UNL     1      47.408   2.369   6.425  0.00  0.00    +0.000 C 
ATOM     25  N   UNL     1      47.332   3.113   5.277  0.00  0.00    +0.000 N 
ATOM     26  O   UNL     1      48.230   1.468   6.550  0.00  0.00    +0.000 OA
ATOM     27  H   UNL     1      46.631   3.840   5.201  0.00  0.00    +0.000 HD
ATOM     28  H   UNL     1      47.950   2.907   4.507  0.00  0.00    +0.000 HD
ENDBRANCH  21  24
ENDBRANCH  17  18
ENDBRANCH   1  17
TORSDOF 6
ENDMDL
MODEL 6
REMARK VINA RESULT:    -6.659      3.087      4.797
REMARK INTER + INTRA:          -9.266
REMARK INTER:                  -8.413
REMARK INTRA:                  -0.853
REMARK UNBOUND:                -0.272
REMARK  Name = 
REMARK  6 active torsions:
REMARK  status: ('A' for Active; 'I' for Inactive)
REMARK    1  A    between atoms: C_2  and  C_4
REMARK    2  A    between atoms: C_7  and  N_8
REMARK    3  A    between atoms: N_8  and  C_9
REMARK    4  A    between atoms: C_9  and  C_10
REMARK    5  A    between atoms: C_10  and  C_11
REMARK    6  A    between atoms: C_14  and  C_15
REMARK                            x       y       z     vdW  Elec       q    Type
REMARK                         _______ _______ _______ _____ _____    ______ ____
ROOT
ATOM      1  C   UNL     1      48.037   7.751  13.449  0.00  0.00    +0.000 C 
ATOM      2  C   UNL     1      48.723   8.285  12.200  0.00  0.00    +0.000 C 
ATOM      3  C   UNL     1      48.986   6.884  12.641  0.00  0.00    +0.000 C 
ENDROOT
BRANCH   1   4
ATOM      4  N   UNL     1      46.585   7.503  13.360  0.00  0.00    +0.000 N 
ATOM      5  H   UNL     1      45.955   8.056  13.933  0.00  0.00    +0.000 HD
BRANCH   4   9
ATOM      6  C   UNL     1      44.796   4.136  11.515  0.00  0.00    +0.000 A 
ATOM      7  C   UNL     1      45.010   5.298  10.773  0.00  0.00    +0.000 A 
ATOM      8  C   UNL     1      45.586   6.420  11.379  0.00  0.00    +0.000 A 
ATOM      9  C   UNL     1      46.001   6.396  12.717  0.00  0.00    +0.000 A 
ATOM     10  C   UNL     1      45.740   5.236  13.460  0.00  0.00    +0.000 A 
ATOM     11  C   UNL     1      45.139   4.117  12.870  0.00  0.00    +0.000 A 
BRANCH   6  13
ATOM     12  N   UNL     1      44.854   2.303   9.909  0.00  0.00    +0.000 N 
ATOM     13  C   UNL     1      44.168   2.928  10.910  0.00  0.00    +0.000 C 
ATOM     14  O   UNL     1      43.098   2.497  11.314  0.00  0.00    +0.000 OA
ATOM     15  H   UNL     1      44.457   1.434   9.575  0.00  0.00    +0.000 HD
ATOM     16  H   UNL     1      45.835   2.463   9.745  0.00  0.00    +0.000 HD
ENDBRANCH   6  13
ENDBRANCH   4   9
ENDBRANCH   1   4
BRANCH   1  17
ATOM     17  C   UNL     1      48.545   8.200  14.820  0.00  0.00    +0.000 C 
BRANCH  17  18
ATOM     18  C   UNL     1      49.119   7.056  15.627  0.00  0.00    +0.000 A 
ATOM     19  C   UNL     1      50.438   7.091  16.093  0.00  0.00    +0.000 A 
ATOM     20  C   UNL     1      50.950   6.019  16.820  0.00  0.00    +0.000 A 
ATOM     21  C   UNL     1      50.119   4.936  17.071  0.00  0.00    +0.000 A 
ATOM     22  N   UNL     1      48.825   4.863  16.644  0.00  0.00    +0.000 NA
ATOM     23  C   UNL     1      48.366   5.924  15.936  0.00  0.00    +0.000 A 
BRANCH  21  24
ATOM     24  C   UNL     1      50.637   3.774  17.860  0.00  0.00    +0.000 C 
ATOM     25  N   UNL     1      50.992   4.048  19.154  0.00  0.00    +0.000 N 
ATOM     26  O   UNL     1      50.750   2.647  17.391  0.00  0.00    +0.000 OA
ATOM     27  H   UNL     1      50.900   4.993  19.506  0.00  0.00    +0.000 HD
ATOM     28  H   UNL     1      51.373   3.315  19.733  0.00  0.00    +0.000 HD
ENDBRANCH  21  24
ENDBRANCH  17  18
ENDBRANCH   1  17
TORSDOF 6
ENDMDL
MODEL 7
REMARK VINA RESULT:    -6.605      3.689      7.818
REMARK INTER + INTRA:          -9.193
REMARK INTER:                  -8.164
REMARK INTRA:                  -1.029
REMARK UNBOUND:                -0.272
REMARK  Name = 
REMARK  6 active torsions:
REMARK  status: ('A' for Active; 'I' for Inactive)
REMARK    1  A    between atoms: C_2  and  C_4
REMARK    2  A    between atoms: C_7  and  N_8
REMARK    3  A    between atoms: N_8  and  C_9
REMARK    4  A    between atoms: C_9  and  C_10
REMARK    5  A    between atoms: C_10  and  C_11
REMARK    6  A    between atoms: C_14  and  C_15
REMARK                            x       y       z     vdW  Elec       q    Type
REMARK                         _______ _______ _______ _____ _____    ______ ____
ROOT
ATOM      1  C   UNL     1      48.304   7.737  14.424  0.00  0.00    +0.000 C 
ATOM      2  C   UNL     1      48.820   9.140  14.140  0.00  0.00    +0.000 C 
ATOM      3  C   UNL     1      47.369   8.842  13.966  0.00  0.00    +0.000 C 
ENDROOT
BRANCH   1   4
ATOM      4  N   UNL     1      48.273   7.309  15.837  0.00  0.00    +0.000 N 
ATOM      5  H   UNL     1      47.755   7.866  16.509  0.00  0.00    +0.000 HD
BRANCH   4   9
ATOM      6  C   UNL     1      50.833   4.381  17.514  0.00  0.00    +0.000 A 
ATOM      7  C   UNL     1      49.457   4.150  17.467  0.00  0.00    +0.000 A 
ATOM      8  C   UNL     1      48.603   5.119  16.928  0.00  0.00    +0.000 A 
ATOM      9  C   UNL     1      49.100   6.312  16.388  0.00  0.00    +0.000 A 
ATOM     10  C   UNL     1      50.478   6.547  16.483  0.00  0.00    +0.000 A 
ATOM     11  C   UNL     1      51.339   5.596  17.045  0.00  0.00    +0.000 A 
BRANCH   6  13
ATOM     12  N   UNL     1      51.469   2.063  17.919  0.00  0.00    +0.000 N 
ATOM     13  C   UNL     1      51.771   3.381  18.098  0.00  0.00    +0.000 C 
ATOM     14  O   UNL     1      52.785   3.728  18.685  0.00  0.00    +0.000 OA
ATOM     15  H   UNL     1      52.164   1.401  18.240  0.00  0.00    +0.000 HD
ATOM     16  H   UNL     1      50.809   1.750  17.224  0.00  0.00    +0.000 HD
ENDBRANCH   6  13
ENDBRANCH   4   9
ENDBRANCH   1   4
BRANCH   1  17
ATOM     17  C   UNL     1      48.580   6.628  13.407  0.00  0.00    +0.000 C 
BRANCH  17  18
ATOM     18  C   UNL     1      47.324   5.886  13.007  0.00  0.00    +0.000 A 
ATOM     19  C   UNL     1      46.638   6.209  11.830  0.00  0.00    +0.000 A 
ATOM     20  C   UNL     1      45.474   5.524  11.490  0.00  0.00    +0.000 A 
ATOM     21  C   UNL     1      45.030   4.519  12.338  0.00  0.00    +0.000 A 
ATOM     22  N   UNL     1      45.671   4.165  13.489  0.00  0.00    +0.000 NA
ATOM     23  C   UNL     1      46.796   4.858  13.787  0.00  0.00    +0.000 A 
BRANCH  21  24
ATOM     24  C   UNL     1      43.789   3.756  11.993  0.00  0.00    +0.000 C 
ATOM     25  N   UNL     1      43.738   2.467  12.456  0.00  0.00    +0.000 N 
ATOM     26  O   UNL     1      42.873   4.235  11.335  0.00  0.00    +0.000 OA
ATOM     27  H   UNL     1      44.519   2.097  12.985  0.00  0.00    +0.000 HD
ATOM     28  H   UNL     1      42.942   1.889  12.237  0.00  0.00    +0.000 HD
ENDBRANCH  21  24
ENDBRANCH  17  18
ENDBRANCH   1  17
TORSDOF 6
ENDMDL
MODEL 8
REMARK VINA RESULT:    -6.363      3.428      5.071
REMARK INTER + INTRA:          -8.867
REMARK INTER:                  -7.883
REMARK INTRA:                  -0.984
REMARK UNBOUND:                -0.272
REMARK  Name = 
REMARK  6 active torsions:
REMARK  status: ('A' for Active; 'I' for Inactive)
REMARK    1  A    between atoms: C_2  and  C_4
REMARK    2  A    between atoms: C_7  and  N_8
REMARK    3  A    between atoms: N_8  and  C_9
REMARK    4  A    between atoms: C_9  and  C_10
REMARK    5  A    between atoms: C_10  and  C_11
REMARK    6  A    between atoms: C_14  and  C_15
REMARK                            x       y       z     vdW  Elec       q    Type
REMARK                         _______ _______ _______ _____ _____    ______ ____
ROOT
ATOM      1  C   UNL     1      48.239   7.839  13.255  0.00  0.00    +0.000 C 
ATOM      2  C   UNL     1      48.399   9.275  12.777  0.00  0.00    +0.000 C 
ATOM      3  C   UNL     1      48.592   8.153  11.812  0.00  0.00    +0.000 C 
ENDROOT
BRANCH   1   4
ATOM      4  N   UNL     1      46.871   7.389  13.579  0.00  0.00    +0.000 N 
ATOM      5  H   UNL     1      46.435   7.716  14.436  0.00  0.00    +0.000 HD
BRANCH   4   9
ATOM      6  C   UNL     1      44.822   4.212  11.670  0.00  0.00    +0.000 A 
ATOM      7  C   UNL     1      44.815   5.483  11.094  0.00  0.00    +0.000 A 
ATOM      8  C   UNL     1      45.476   6.542  11.726  0.00  0.00    +0.000 A 
ATOM      9  C   UNL     1      46.192   6.351  12.915  0.00  0.00    +0.000 A 
ATOM     10  C   UNL     1      46.154   5.078  13.502  0.00  0.00    +0.000 A 
ATOM     11  C   UNL     1      45.472   4.018  12.892  0.00  0.00    +0.000 A 
BRANCH   6  13
ATOM     12  N   UNL     1      44.798   2.349  10.098  0.00  0.00    +0.000 N 
ATOM     13  C   UNL     1      44.113   3.065  11.036  0.00  0.00    +0.000 C 
ATOM     14  O   UNL     1      42.976   2.759  11.366  0.00  0.00    +0.000 OA
ATOM     15  H   UNL     1      44.335   1.520   9.747  0.00  0.00    +0.000 HD
ATOM     16  H   UNL     1      45.800   2.401  10.005  0.00  0.00    +0.000 HD
ENDBRANCH   6  13
ENDBRANCH   4   9
ENDBRANCH   1   4
BRANCH   1  17
ATOM     17  C   UNL     1      49.354   7.212  14.095  0.00  0.00    +0.000 C 
BRANCH  17  18
ATOM     18  C   UNL     1      48.957   7.044  15.545  0.00  0.00    +0.000 A 
ATOM     19  C   UNL     1      48.864   8.147  16.402  0.00  0.00    +0.000 A 
ATOM     20  C   UNL     1      48.514   7.967  17.738  0.00  0.00    +0.000 A 
ATOM     21  C   UNL     1      48.253   6.678  18.181  0.00  0.00    +0.000 A 
ATOM     22  N   UNL     1      48.323   5.575  17.381  0.00  0.00    +0.000 NA
ATOM     23  C   UNL     1      48.672   5.792  16.090  0.00  0.00    +0.000 A 
BRANCH  21  24
ATOM     24  C   UNL     1      47.862   6.453  19.609  0.00  0.00    +0.000 C 
ATOM     25  N   UNL     1      46.867   5.533  19.813  0.00  0.00    +0.000 N 
ATOM     26  O   UNL     1      48.381   7.050  20.545  0.00  0.00    +0.000 OA
ATOM     27  H   UNL     1      46.449   5.068  19.016  0.00  0.00    +0.000 HD
ATOM     28  H   UNL     1      46.538   5.353  20.749  0.00  0.00    +0.000 HD
ENDBRANCH  21  24
ENDBRANCH  17  18
ENDBRANCH   1  17
TORSDOF 6
ENDMDL
MODEL 9
REMARK VINA RESULT:    -6.316      2.678      6.534
REMARK INTER + INTRA:          -8.803
REMARK INTER:                  -9.765
REMARK INTRA:                   0.961
REMARK UNBOUND:                -0.272
REMARK  Name = 
REMARK  6 active torsions:
REMARK  status: ('A' for Active; 'I' for Inactive)
REMARK    1  A    between atoms: C_2  and  C_4
REMARK    2  A    between atoms: C_7  and  N_8
REMARK    3  A    between atoms: N_8  and  C_9
REMARK    4  A    between atoms: C_9  and  C_10
REMARK    5  A    between atoms: C_10  and  C_11
REMARK    6  A    between atoms: C_14  and  C_15
REMARK                            x       y       z     vdW  Elec       q    Type
REMARK                         _______ _______ _______ _____ _____    ______ ____
ROOT
ATOM      1  C   UNL     1      43.528   4.852  11.754  0.00  0.00    +0.000 C 
ATOM      2  C   UNL     1      43.268   6.092  10.910  0.00  0.00    +0.000 C 
ATOM      3  C   UNL     1      42.230   5.630  11.877  0.00  0.00    +0.000 C 
ENDROOT
BRANCH   1   4
ATOM      4  N   UNL     1      44.542   4.970  12.821  0.00  0.00    +0.000 N 
ATOM      5  H   UNL     1      44.306   4.664  13.760  0.00  0.00    +0.000 HD
BRANCH   4   9
ATOM      6  C   UNL     1      48.103   7.236  12.471  0.00  0.00    +0.000 A 
ATOM      7  C   UNL     1      48.150   5.956  13.027  0.00  0.00    +0.000 A 
ATOM      8  C   UNL     1      46.975   5.207  13.160  0.00  0.00    +0.000 A 
ATOM      9  C   UNL     1      45.743   5.694  12.706  0.00  0.00    +0.000 A 
ATOM     10  C   UNL     1      45.706   6.997  12.190  0.00  0.00    +0.000 A 
ATOM     11  C   UNL     1      46.871   7.765  12.077  0.00  0.00    +0.000 A 
BRANCH   6  13
ATOM     12  N   UNL     1      50.473   7.438  11.937  0.00  0.00    +0.000 N 
ATOM     13  C   UNL     1      49.329   8.070  12.331  0.00  0.00    +0.000 C 
ATOM     14  O   UNL     1      49.304   9.276  12.530  0.00  0.00    +0.000 OA
ATOM     15  H   UNL     1      51.270   8.035  11.758  0.00  0.00    +0.000 HD
ATOM     16  H   UNL     1      50.465   6.525  11.510  0.00  0.00    +0.000 HD
ENDBRANCH   6  13
ENDBRANCH   4   9
ENDBRANCH   1   4
BRANCH   1  17
ATOM     17  C   UNL     1      43.424   3.475  11.095  0.00  0.00    +0.000 C 
BRANCH  17  18
ATOM     18  C   UNL     1      44.420   3.297   9.970  0.00  0.00    +0.000 A 
ATOM     19  C   UNL     1      44.807   2.021   9.543  0.00  0.00    +0.000 A 
ATOM     20  C   UNL     1      45.738   1.880   8.517  0.00  0.00    +0.000 A 
ATOM     21  C   UNL     1      46.254   3.030   7.935  0.00  0.00    +0.000 A 
ATOM     22  N   UNL     1      45.900   4.292   8.312  0.00  0.00    +0.000 NA
ATOM     23  C   UNL     1      44.996   4.386   9.317  0.00  0.00    +0.000 A 
BRANCH  21  24
ATOM     24  C   UNL     1      47.248   2.911   6.821  0.00  0.00    +0.000 C 
ATOM     25  N   UNL     1      47.026   3.724   5.741  0.00  0.00    +0.000 N 
ATOM     26  O   UNL     1      48.197   2.137   6.854  0.00  0.00    +0.000 OA
ATOM     27  H   UNL     1      46.223   4.342   5.739  0.00  0.00    +0.000 HD
ATOM     28  H   UNL     1      47.643   3.676   4.945  0.00  0.00    +0.000 HD
ENDBRANCH  21  24
ENDBRANCH  17  18
ENDBRANCH   1  17
TORSDOF 6
ENDMDL
