MODEL 1
REMARK VINA RESULT:    -7.475      0.000      0.000
REMARK INTER + INTRA:         -11.632
REMARK INTER:                 -10.534
REMARK INTRA:                  -1.098
REMARK UNBOUND:                -1.098
REMARK  Name = 
REMARK  7 active torsions:
REMARK  status: ('A' for Active; 'I' for Inactive)
REMARK    1  A    between atoms: C_2  and  C_3
REMARK    2  A    between atoms: C_7  and  C_8
REMARK    3  A    between atoms: N_10  and  C_11
REMARK    4  A    between atoms: C_11  and  C_12
REMARK    5  A    between atoms: C_15  and  C_16
REMARK    6  A    between atoms: C_16  and  N_17
REMARK    7  A    between atoms: C_18  and  C_20
REMARK                            x       y       z     vdW  Elec       q    Type
REMARK                         _______ _______ _______ _____ _____    ______ ____
ROOT
ATOM      1  C   UNL     1      45.227   6.870  11.891  0.00  0.00    +0.000 A 
ATOM      2  C   UNL     1      45.044   8.224  12.206  0.00  0.00    +0.000 A 
ATOM      3  C   UNL     1      45.932   8.890  13.060  0.00  0.00    +0.000 A 
ATOM      4  C   UNL     1      47.037   8.221  13.604  0.00  0.00    +0.000 A 
ATOM      5  C   UNL     1      47.211   6.864  13.300  0.00  0.00    +0.000 A 
ATOM      6  C   UNL     1      46.325   6.199  12.444  0.00  0.00    +0.000 A 
ENDROOT
BRANCH   1   7
ATOM      7  C   UNL     1      44.259   6.155  10.982  0.00  0.00    +0.000 C 
BRANCH   7  10
ATOM      8  C   UNL     1      44.914   4.115   9.796  0.00  0.00    +0.000 C 
ATOM      9  O   UNL     1      44.341   3.396  10.605  0.00  0.00    +0.000 OA
ATOM     10  N   UNL     1      44.928   5.492   9.882  0.00  0.00    +0.000 N 
ATOM     11  H   UNL     1      45.580   6.030   9.329  0.00  0.00    +0.000 HD
BRANCH   8  16
ATOM     12  C   UNL     1      46.479   1.484   7.581  0.00  0.00    +0.000 A 
ATOM     13  C   UNL     1      46.987   2.259   6.534  0.00  0.00    +0.000 A 
ATOM     14  C   UNL     1      46.830   3.646   6.545  0.00  0.00    +0.000 A 
ATOM     15  C   UNL     1      46.168   4.268   7.608  0.00  0.00    +0.000 A 
ATOM     16  C   UNL     1      45.663   3.501   8.665  0.00  0.00    +0.000 A 
ATOM     17  C   UNL     1      45.811   2.106   8.643  0.00  0.00    +0.000 A 
BRANCH  12  19
ATOM     18  N   UNL     1      46.758  -1.097   7.552  0.00  0.00    +0.000 NA
ATOM     19  C   UNL     1      46.641   0.059   7.567  0.00  0.00    +0.000 C 
ENDBRANCH  12  19
ENDBRANCH   8  16
ENDBRANCH   7  10
ENDBRANCH   1   7
BRANCH   4  20
ATOM     20  C   UNL     1      48.014   8.929  14.510  0.00  0.00    +0.000 C 
BRANCH  20  21
ATOM     21  N   UNL     1      48.220   8.214  15.743  0.00  0.00    +0.000 N 
ATOM     22  C   UNL     1      49.482   8.011  16.247  0.00  0.00    +0.000 C 
ATOM     23  O   UNL     1      50.485   8.459  15.698  0.00  0.00    +0.000 OA
ATOM     24  H   UNL     1      47.459   7.626  16.065  0.00  0.00    +0.000 HD
BRANCH  22  25
ATOM     25  C   UNL     1      49.566   7.280  17.518  0.00  0.00    +0.000 A 
ATOM     26  C   UNL     1      50.105   7.897  18.640  0.00  0.00    +0.000 A 
ATOM     27  S   UNL     1      50.075   6.919  20.038  0.00  0.00    +0.000 S 
ATOM     28  C   UNL     1      49.388   5.619  19.182  0.00  0.00    +0.000 A 
ATOM     29  N   UNL     1      49.123   4.435  19.797  0.00  0.00    +0.000 NA
ATOM     30  C   UNL     1      48.632   3.529  19.020  0.00  0.00    +0.000 A 
ATOM     31  N   UNL     1      48.373   3.701  17.685  0.00  0.00    +0.000 N 
ATOM     32  C   UNL     1      48.597   4.886  17.029  0.00  0.00    +0.000 A 
ATOM     33  O   UNL     1      48.312   5.021  15.843  0.00  0.00    +0.000 OA
ATOM     34  C   UNL     1      49.165   5.934  17.853  0.00  0.00    +0.000 A 
ATOM     35  H   UNL     1      47.975   2.955  17.134  0.00  0.00    +0.000 HD
ENDBRANCH  22  25
ENDBRANCH  20  21
ENDBRANCH   4  20
TORSDOF 7
ENDMDL
MODEL 2
REMARK VINA RESULT:    -7.144      1.400      1.650
REMARK INTER + INTRA:         -11.165
REMARK INTER:                 -10.054
REMARK INTRA:                  -1.111
REMARK UNBOUND:                -1.098
REMARK  Name = 
REMARK  7 active torsions:
REMARK  status: ('A' for Active; 'I' for Inactive)
REMARK    1  A    between atoms: C_2  and  C_3
REMARK    2  A    between atoms: C_7  and  C_8
REMARK    3  A    between atoms: N_10  and  C_11
REMARK    4  A    between atoms: C_11  and  C_12
REMARK    5  A    between atoms: C_15  and  C_16
REMARK    6  A    between atoms: C_16  and  N_17
REMARK    7  A    between atoms: C_18  and  C_20
REMARK                            x       y       z     vdW  Elec       q    Type
REMARK                         _______ _______ _______ _____ _____    ______ ____
ROOT
ATOM      1  C   UNL     1      45.260   6.789  11.994  0.00  0.00    +0.000 A 
ATOM      2  C   UNL     1      46.143   5.997  12.741  0.00  0.00    +0.000 A 
ATOM      3  C   UNL     1      47.078   6.582  13.605  0.00  0.00    +0.000 A 
ATOM      4  C   UNL     1      47.137   7.975  13.757  0.00  0.00    +0.000 A 
ATOM      5  C   UNL     1      46.263   8.766  12.999  0.00  0.00    +0.000 A 
ATOM      6  C   UNL     1      45.327   8.181  12.138  0.00  0.00    +0.000 A 
ENDROOT
BRANCH   1   7
ATOM      7  C   UNL     1      44.266   6.154  11.055  0.00  0.00    +0.000 C 
BRANCH   7  10
ATOM      8  C   UNL     1      44.919   4.117   9.862  0.00  0.00    +0.000 C 
ATOM      9  O   UNL     1      44.387   3.394  10.695  0.00  0.00    +0.000 OA
ATOM     10  N   UNL     1      44.910   5.495   9.938  0.00  0.00    +0.000 N 
ATOM     11  H   UNL     1      45.533   6.041   9.360  0.00  0.00    +0.000 HD
BRANCH   8  16
ATOM     12  C   UNL     1      46.451   1.497   7.611  0.00  0.00    +0.000 A 
ATOM     13  C   UNL     1      46.918   2.274   6.547  0.00  0.00    +0.000 A 
ATOM     14  C   UNL     1      46.743   3.659   6.557  0.00  0.00    +0.000 A 
ATOM     15  C   UNL     1      46.106   4.277   7.637  0.00  0.00    +0.000 A 
ATOM     16  C   UNL     1      45.642   3.508   8.712  0.00  0.00    +0.000 A 
ATOM     17  C   UNL     1      45.807   2.115   8.691  0.00  0.00    +0.000 A 
BRANCH  12  19
ATOM     18  N   UNL     1      46.763  -1.080   7.590  0.00  0.00    +0.000 NA
ATOM     19  C   UNL     1      46.631   0.074   7.598  0.00  0.00    +0.000 C 
ENDBRANCH  12  19
ENDBRANCH   8  16
ENDBRANCH   7  10
ENDBRANCH   1   7
BRANCH   4  20
ATOM     20  C   UNL     1      48.124   8.619  14.699  0.00  0.00    +0.000 C 
BRANCH  20  21
ATOM     21  N   UNL     1      49.084   7.671  15.202  0.00  0.00    +0.000 N 
ATOM     22  C   UNL     1      49.871   7.962  16.290  0.00  0.00    +0.000 C 
ATOM     23  O   UNL     1      49.770   9.021  16.905  0.00  0.00    +0.000 OA
ATOM     24  H   UNL     1      49.365   6.925  14.575  0.00  0.00    +0.000 HD
BRANCH  22  25
ATOM     25  C   UNL     1      50.804   6.913  16.721  0.00  0.00    +0.000 A 
ATOM     26  C   UNL     1      52.154   7.201  16.868  0.00  0.00    +0.000 A 
ATOM     27  S   UNL     1      53.078   5.879  17.426  0.00  0.00    +0.000 S 
ATOM     28  C   UNL     1      51.715   4.862  17.442  0.00  0.00    +0.000 A 
ATOM     29  N   UNL     1      51.818   3.555  17.805  0.00  0.00    +0.000 NA
ATOM     30  C   UNL     1      50.711   2.894  17.742  0.00  0.00    +0.000 A 
ATOM     31  N   UNL     1      49.506   3.424  17.356  0.00  0.00    +0.000 N 
ATOM     32  C   UNL     1      49.349   4.742  17.009  0.00  0.00    +0.000 A 
ATOM     33  O   UNL     1      48.248   5.195  16.712  0.00  0.00    +0.000 OA
ATOM     34  C   UNL     1      50.567   5.527  17.048  0.00  0.00    +0.000 A 
ATOM     35  H   UNL     1      48.672   2.856  17.340  0.00  0.00    +0.000 HD
ENDBRANCH  22  25
ENDBRANCH  20  21
ENDBRANCH   4  20
TORSDOF 7
ENDMDL
MODEL 3
REMARK VINA RESULT:    -6.813      4.645      9.041
REMARK INTER + INTRA:         -10.700
REMARK INTER:                  -9.597
REMARK INTRA:                  -1.103
REMARK UNBOUND:                -1.098
REMARK  Name = 
REMARK  7 active torsions:
REMARK  status: ('A' for Active; 'I' for Inactive)
REMARK    1  A    between atoms: C_2  and  C_3
REMARK    2  A    between atoms: C_7  and  C_8
REMARK    3  A    between atoms: N_10  and  C_11
REMARK    4  A    between atoms: C_11  and  C_12
REMARK    5  A    between atoms: C_15  and  C_16
REMARK    6  A    between atoms: C_16  and  N_17
REMARK    7  A    between atoms: C_18  and  C_20
REMARK                            x       y       z     vdW  Elec       q    Type
REMARK                         _______ _______ _______ _____ _____    ______ ____
ROOT
ATOM      1  C   UNL     1      49.645   4.657  17.631  0.00  0.00    +0.000 A 
ATOM      2  C   UNL     1      50.466   5.713  17.210  0.00  0.00    +0.000 A 
ATOM      3  C   UNL     1      50.032   6.615  16.230  0.00  0.00    +0.000 A 
ATOM      4  C   UNL     1      48.755   6.494  15.663  0.00  0.00    +0.000 A 
ATOM      5  C   UNL     1      47.941   5.430  16.075  0.00  0.00    +0.000 A 
ATOM      6  C   UNL     1      48.374   4.530  17.056  0.00  0.00    +0.000 A 
ENDROOT
BRANCH   1   7
ATOM      7  C   UNL     1      50.124   3.681  18.674  0.00  0.00    +0.000 C 
BRANCH   7  10
ATOM      8  C   UNL     1      51.717   2.093  17.705  0.00  0.00    +0.000 C 
ATOM      9  O   UNL     1      50.823   1.408  17.222  0.00  0.00    +0.000 OA
ATOM     10  N   UNL     1      51.483   3.242  18.433  0.00  0.00    +0.000 N 
ATOM     11  H   UNL     1      52.220   3.652  18.988  0.00  0.00    +0.000 HD
BRANCH   8  16
ATOM     12  C   UNL     1      54.720  -0.054  16.899  0.00  0.00    +0.000 A 
ATOM     13  C   UNL     1      55.775   0.837  17.121  0.00  0.00    +0.000 A 
ATOM     14  C   UNL     1      55.516   2.142  17.542  0.00  0.00    +0.000 A 
ATOM     15  C   UNL     1      54.199   2.563  17.750  0.00  0.00    +0.000 A 
ATOM     16  C   UNL     1      53.137   1.676  17.538  0.00  0.00    +0.000 A 
ATOM     17  C   UNL     1      53.400   0.369  17.102  0.00  0.00    +0.000 A 
BRANCH  12  19
ATOM     18  N   UNL     1      55.214  -2.483  16.128  0.00  0.00    +0.000 NA
ATOM     19  C   UNL     1      54.989  -1.395  16.466  0.00  0.00    +0.000 C 
ENDBRANCH  12  19
ENDBRANCH   8  16
ENDBRANCH   7  10
ENDBRANCH   1   7
BRANCH   4  20
ATOM     20  C   UNL     1      48.265   7.470  14.622  0.00  0.00    +0.000 C 
BRANCH  20  21
ATOM     21  N   UNL     1      47.030   7.039  14.021  0.00  0.00    +0.000 N 
ATOM     22  C   UNL     1      46.976   6.639  12.707  0.00  0.00    +0.000 C 
ATOM     23  O   UNL     1      47.978   6.593  11.998  0.00  0.00    +0.000 OA
ATOM     24  H   UNL     1      46.172   7.311  14.489  0.00  0.00    +0.000 HD
BRANCH  22  25
ATOM     25  C   UNL     1      45.664   6.208  12.209  0.00  0.00    +0.000 A 
ATOM     26  C   UNL     1      44.805   7.131  11.626  0.00  0.00    +0.000 A 
ATOM     27  S   UNL     1      43.351   6.445  11.056  0.00  0.00    +0.000 S 
ATOM     28  C   UNL     1      43.795   4.901  11.614  0.00  0.00    +0.000 A 
ATOM     29  N   UNL     1      42.963   3.834  11.466  0.00  0.00    +0.000 NA
ATOM     30  C   UNL     1      43.416   2.732  11.962  0.00  0.00    +0.000 A 
ATOM     31  N   UNL     1      44.629   2.596  12.587  0.00  0.00    +0.000 N 
ATOM     32  C   UNL     1      45.512   3.637  12.734  0.00  0.00    +0.000 A 
ATOM     33  O   UNL     1      46.609   3.472  13.258  0.00  0.00    +0.000 OA
ATOM     34  C   UNL     1      45.045   4.904  12.207  0.00  0.00    +0.000 A 
ATOM     35  H   UNL     1      44.932   1.702  12.943  0.00  0.00    +0.000 HD
ENDBRANCH  22  25
ENDBRANCH  20  21
ENDBRANCH   4  20
TORSDOF 7
ENDMDL
MODEL 4
REMARK VINA RESULT:    -6.812      2.759      3.716
REMARK INTER + INTRA:         -10.697
REMARK INTER:                  -9.613
REMARK INTRA:                  -1.085
REMARK UNBOUND:                -1.098
REMARK  Name = 
REMARK  7 active torsions:
REMARK  status: ('A' for Active; 'I' for Inactive)
REMARK    1  A    between atoms: C_2  and  C_3
REMARK    2  A    between atoms: C_7  and  C_8
REMARK    3  A    between atoms: N_10  and  C_11
REMARK    4  A    between atoms: C_11  and  C_12
REMARK    5  A    between atoms: C_15  and  C_16
REMARK    6  A    between atoms: C_16  and  N_17
REMARK    7  A    between atoms: C_18  and  C_20
REMARK                            x       y       z     vdW  Elec       q    Type
REMARK                         _______ _______ _______ _____ _____    ______ ____
ROOT
ATOM      1  C   UNL     1      47.642   7.855  13.439  0.00  0.00    +0.000 A 
ATOM      2  C   UNL     1      47.963   6.584  13.935  0.00  0.00    +0.000 A 
ATOM      3  C   UNL     1      48.483   6.426  15.226  0.00  0.00    +0.000 A 
ATOM      4  C   UNL     1      48.675   7.537  16.060  0.00  0.00    +0.000 A 
ATOM      5  C   UNL     1      48.368   8.809  15.557  0.00  0.00    +0.000 A 
ATOM      6  C   UNL     1      47.845   8.966  14.268  0.00  0.00    +0.000 A 
ENDROOT
BRANCH   1   7
ATOM      7  C   UNL     1      47.097   8.020  12.044  0.00  0.00    +0.000 C 
BRANCH   7  10
ATOM      8  C   UNL     1      45.439   6.494  11.082  0.00  0.00    +0.000 C 
ATOM      9  O   UNL     1      44.529   7.300  11.236  0.00  0.00    +0.000 OA
ATOM     10  N   UNL     1      46.748   6.752  11.438  0.00  0.00    +0.000 N 
ATOM     11  H   UNL     1      47.417   5.998  11.495  0.00  0.00    +0.000 HD
BRANCH   8  16
ATOM     12  C   UNL     1      45.413   3.588   8.667  0.00  0.00    +0.000 A 
ATOM     13  C   UNL     1      44.709   2.622   9.392  0.00  0.00    +0.000 A 
ATOM     14  C   UNL     1      44.231   2.912  10.672  0.00  0.00    +0.000 A 
ATOM     15  C   UNL     1      44.449   4.175  11.231  0.00  0.00    +0.000 A 
ATOM     16  C   UNL     1      45.146   5.151  10.510  0.00  0.00    +0.000 A 
ATOM     17  C   UNL     1      45.637   4.851   9.230  0.00  0.00    +0.000 A 
BRANCH  12  19
ATOM     18  N   UNL     1      46.315   3.045   6.294  0.00  0.00    +0.000 NA
ATOM     19  C   UNL     1      45.904   3.287   7.354  0.00  0.00    +0.000 C 
ENDBRANCH  12  19
ENDBRANCH   8  16
ENDBRANCH   7  10
ENDBRANCH   1   7
BRANCH   4  20
ATOM     20  C   UNL     1      49.215   7.381  17.460  0.00  0.00    +0.000 C 
BRANCH  20  21
ATOM     21  N   UNL     1      50.221   6.354  17.538  0.00  0.00    +0.000 N 
ATOM     22  C   UNL     1      50.635   5.850  18.747  0.00  0.00    +0.000 C 
ATOM     23  O   UNL     1      50.144   6.219  19.811  0.00  0.00    +0.000 OA
ATOM     24  H   UNL     1      50.811   6.227  16.722  0.00  0.00    +0.000 HD
BRANCH  22  25
ATOM     25  C   UNL     1      51.656   4.796  18.700  0.00  0.00    +0.000 A 
ATOM     26  C   UNL     1      52.902   5.009  19.276  0.00  0.00    +0.000 A 
ATOM     27  S   UNL     1      53.941   3.660  19.174  0.00  0.00    +0.000 S 
ATOM     28  C   UNL     1      52.782   2.761  18.312  0.00  0.00    +0.000 A 
ATOM     29  N   UNL     1      53.049   1.498  17.884  0.00  0.00    +0.000 NA
ATOM     30  C   UNL     1      52.091   0.947  17.218  0.00  0.00    +0.000 A 
ATOM     31  N   UNL     1      50.885   1.541  16.947  0.00  0.00    +0.000 N 
ATOM     32  C   UNL     1      50.561   2.801  17.383  0.00  0.00    +0.000 A 
ATOM     33  O   UNL     1      49.456   3.287  17.162  0.00  0.00    +0.000 OA
ATOM     34  C   UNL     1      51.610   3.473  18.124  0.00  0.00    +0.000 A 
ATOM     35  H   UNL     1      50.170   1.050  16.430  0.00  0.00    +0.000 HD
ENDBRANCH  22  25
ENDBRANCH  20  21
ENDBRANCH   4  20
TORSDOF 7
ENDMDL
MODEL 5
REMARK VINA RESULT:    -6.703      3.639      5.220
REMARK INTER + INTRA:         -10.544
REMARK INTER:                  -9.722
REMARK INTRA:                  -0.822
REMARK UNBOUND:                -1.098
REMARK  Name = 
REMARK  7 active torsions:
REMARK  status: ('A' for Active; 'I' for Inactive)
REMARK    1  A    between atoms: C_2  and  C_3
REMARK    2  A    between atoms: C_7  and  C_8
REMARK    3  A    between atoms: N_10  and  C_11
REMARK    4  A    between atoms: C_11  and  C_12
REMARK    5  A    between atoms: C_15  and  C_16
REMARK    6  A    between atoms: C_16  and  N_17
REMARK    7  A    between atoms: C_18  and  C_20
REMARK                            x       y       z     vdW  Elec       q    Type
REMARK                         _______ _______ _______ _____ _____    ______ ____
ROOT
ATOM      1  C   UNL     1      47.674   5.733  14.815  0.00  0.00    +0.000 A 
ATOM      2  C   UNL     1      48.583   6.272  15.738  0.00  0.00    +0.000 A 
ATOM      3  C   UNL     1      48.931   5.569  16.898  0.00  0.00    +0.000 A 
ATOM      4  C   UNL     1      48.394   4.299  17.152  0.00  0.00    +0.000 A 
ATOM      5  C   UNL     1      47.476   3.768  16.237  0.00  0.00    +0.000 A 
ATOM      6  C   UNL     1      47.130   4.469  15.076  0.00  0.00    +0.000 A 
ENDROOT
BRANCH   1   7
ATOM      7  C   UNL     1      47.292   6.501  13.576  0.00  0.00    +0.000 C 
BRANCH   7  10
ATOM      8  C   UNL     1      45.466   5.498  12.288  0.00  0.00    +0.000 C 
ATOM      9  O   UNL     1      44.611   6.095  12.932  0.00  0.00    +0.000 OA
ATOM     10  N   UNL     1      46.820   5.634  12.517  0.00  0.00    +0.000 N 
ATOM     11  H   UNL     1      47.472   4.974  12.118  0.00  0.00    +0.000 HD
BRANCH   8  16
ATOM     12  C   UNL     1      45.325   3.776   8.928  0.00  0.00    +0.000 A 
ATOM     13  C   UNL     1      44.392   2.763   9.166  0.00  0.00    +0.000 A 
ATOM     14  C   UNL     1      43.795   2.637  10.422  0.00  0.00    +0.000 A 
ATOM     15  C   UNL     1      44.124   3.530  11.447  0.00  0.00    +0.000 A 
ATOM     16  C   UNL     1      45.052   4.552  11.215  0.00  0.00    +0.000 A 
ATOM     17  C   UNL     1      45.660   4.667   9.956  0.00  0.00    +0.000 A 
BRANCH  12  19
ATOM     18  N   UNL     1      46.439   3.992   6.593  0.00  0.00    +0.000 NA
ATOM     19  C   UNL     1      45.937   3.902   7.637  0.00  0.00    +0.000 C 
ENDBRANCH  12  19
ENDBRANCH   8  16
ENDBRANCH   7  10
ENDBRANCH   1   7
BRANCH   4  20
ATOM     20  C   UNL     1      48.776   3.520  18.388  0.00  0.00    +0.000 C 
BRANCH  20  21
ATOM     21  N   UNL     1      50.182   3.216  18.418  0.00  0.00    +0.000 N 
ATOM     22  C   UNL     1      50.737   2.319  17.537  0.00  0.00    +0.000 C 
ATOM     23  O   UNL     1      50.074   1.768  16.662  0.00  0.00    +0.000 OA
ATOM     24  H   UNL     1      50.684   3.446  19.269  0.00  0.00    +0.000 HD
BRANCH  22  25
ATOM     25  C   UNL     1      52.184   2.099  17.654  0.00  0.00    +0.000 A 
ATOM     26  C   UNL     1      52.688   0.806  17.711  0.00  0.00    +0.000 A 
ATOM     27  S   UNL     1      54.391   0.739  17.792  0.00  0.00    +0.000 S 
ATOM     28  C   UNL     1      54.513   2.436  17.806  0.00  0.00    +0.000 A 
ATOM     29  N   UNL     1      55.722   3.052  17.893  0.00  0.00    +0.000 NA
ATOM     30  C   UNL     1      55.663   4.342  17.923  0.00  0.00    +0.000 A 
ATOM     31  N   UNL     1      54.504   5.072  17.867  0.00  0.00    +0.000 N 
ATOM     32  C   UNL     1      53.264   4.494  17.750  0.00  0.00    +0.000 A 
ATOM     33  O   UNL     1      52.250   5.178  17.656  0.00  0.00    +0.000 OA
ATOM     34  C   UNL     1      53.273   3.045  17.728  0.00  0.00    +0.000 A 
ATOM     35  H   UNL     1      54.526   6.081  17.882  0.00  0.00    +0.000 HD
ENDBRANCH  22  25
ENDBRANCH  20  21
ENDBRANCH   4  20
TORSDOF 7
ENDMDL
MODEL 6
REMARK VINA RESULT:    -6.520      5.078      7.996
REMARK INTER + INTRA:         -10.286
REMARK INTER:                  -9.278
REMARK INTRA:                  -1.008
REMARK UNBOUND:                -1.098
REMARK  Name = 
REMARK  7 active torsions:
REMARK  status: ('A' for Active; 'I' for Inactive)
REMARK    1  A    between atoms: C_2  and  C_3
REMARK    2  A    between atoms: C_7  and  C_8
REMARK    3  A    between atoms: N_10  and  C_11
REMARK    4  A    between atoms: C_11  and  C_12
REMARK    5  A    between atoms: C_15  and  C_16
REMARK    6  A    between atoms: C_16  and  N_17
REMARK    7  A    between atoms: C_18  and  C_20
REMARK                            x       y       z     vdW  Elec       q    Type
REMARK                         _______ _______ _______ _____ _____    ______ ____
ROOT
ATOM      1  C   UNL     1      49.828   9.398  11.891  0.00  0.00    +0.000 A 
ATOM      2  C   UNL     1      49.444   8.050  11.888  0.00  0.00    +0.000 A 
ATOM      3  C   UNL     1      48.136   7.675  12.220  0.00  0.00    +0.000 A 
ATOM      4  C   UNL     1      47.175   8.644  12.543  0.00  0.00    +0.000 A 
ATOM      5  C   UNL     1      47.564   9.990  12.558  0.00  0.00    +0.000 A 
ATOM      6  C   UNL     1      48.871  10.365  12.224  0.00  0.00    +0.000 A 
ENDROOT
BRANCH   1   7
ATOM      7  C   UNL     1      51.242   9.794  11.547  0.00  0.00    +0.000 C 
BRANCH   7  10
ATOM      8  C   UNL     1      52.517   8.255  10.132  0.00  0.00    +0.000 C 
ATOM      9  O   UNL     1      52.977   7.661  11.100  0.00  0.00    +0.000 OA
ATOM     10  N   UNL     1      51.643   9.317  10.240  0.00  0.00    +0.000 N 
ATOM     11  H   UNL     1      51.459   9.908   9.442  0.00  0.00    +0.000 HD
BRANCH   8  16
ATOM     12  C   UNL     1      53.367   6.056   7.180  0.00  0.00    +0.000 A 
ATOM     13  C   UNL     1      53.602   7.002   6.178  0.00  0.00    +0.000 A 
ATOM     14  C   UNL     1      53.492   8.365   6.459  0.00  0.00    +0.000 A 
ATOM     15  C   UNL     1      53.152   8.791   7.746  0.00  0.00    +0.000 A 
ATOM     16  C   UNL     1      52.923   7.850   8.758  0.00  0.00    +0.000 A 
ATOM     17  C   UNL     1      53.021   6.481   8.469  0.00  0.00    +0.000 A 
BRANCH  12  19
ATOM     18  N   UNL     1      53.573   3.519   6.667  0.00  0.00    +0.000 NA
ATOM     19  C   UNL     1      53.480   4.656   6.888  0.00  0.00    +0.000 C 
ENDBRANCH  12  19
ENDBRANCH   8  16
ENDBRANCH   7  10
ENDBRANCH   1   7
BRANCH   4  20
ATOM     20  C   UNL     1      45.756   8.257  12.883  0.00  0.00    +0.000 C 
BRANCH  20  21
ATOM     21  N   UNL     1      45.470   6.893  12.523  0.00  0.00    +0.000 N 
ATOM     22  C   UNL     1      44.460   6.584  11.644  0.00  0.00    +0.000 C 
ATOM     23  O   UNL     1      43.783   7.450  11.095  0.00  0.00    +0.000 OA
ATOM     24  H   UNL     1      45.823   6.171  13.142  0.00  0.00    +0.000 HD
BRANCH  22  25
ATOM     25  C   UNL     1      44.270   5.159  11.342  0.00  0.00    +0.000 A 
ATOM     26  C   UNL     1      43.536   4.358  12.207  0.00  0.00    +0.000 A 
ATOM     27  S   UNL     1      43.373   2.746  11.673  0.00  0.00    +0.000 S 
ATOM     28  C   UNL     1      44.321   3.049  10.293  0.00  0.00    +0.000 A 
ATOM     29  N   UNL     1      44.602   2.059   9.403  0.00  0.00    +0.000 NA
ATOM     30  C   UNL     1      45.356   2.424   8.420  0.00  0.00    +0.000 A 
ATOM     31  N   UNL     1      45.849   3.690   8.242  0.00  0.00    +0.000 N 
ATOM     32  C   UNL     1      45.569   4.726   9.098  0.00  0.00    +0.000 A 
ATOM     33  O   UNL     1      45.989   5.859   8.885  0.00  0.00    +0.000 OA
ATOM     34  C   UNL     1      44.738   4.367  10.230  0.00  0.00    +0.000 A 
ATOM     35  H   UNL     1      46.424   3.915   7.444  0.00  0.00    +0.000 HD
ENDBRANCH  22  25
ENDBRANCH  20  21
ENDBRANCH   4  20
TORSDOF 7
ENDMDL
MODEL 7
REMARK VINA RESULT:    -6.107      2.898      4.339
REMARK INTER + INTRA:          -9.704
REMARK INTER:                  -8.639
REMARK INTRA:                  -1.065
REMARK UNBOUND:                -1.098
REMARK  Name = 
REMARK  7 active torsions:
REMARK  status: ('A' for Active; 'I' for Inactive)
REMARK    1  A    between atoms: C_2  and  C_3
REMARK    2  A    between atoms: C_7  and  C_8
REMARK    3  A    between atoms: N_10  and  C_11
REMARK    4  A    between atoms: C_11  and  C_12
REMARK    5  A    between atoms: C_15  and  C_16
REMARK    6  A    between atoms: C_16  and  N_17
REMARK    7  A    between atoms: C_18  and  C_20
REMARK                            x       y       z     vdW  Elec       q    Type
REMARK                         _______ _______ _______ _____ _____    ______ ____
ROOT
ATOM      1  C   UNL     1      45.581   5.951  12.324  0.00  0.00    +0.000 A 
ATOM      2  C   UNL     1      45.861   4.915  13.228  0.00  0.00    +0.000 A 
ATOM      3  C   UNL     1      46.820   5.080  14.235  0.00  0.00    +0.000 A 
ATOM      4  C   UNL     1      47.508   6.293  14.376  0.00  0.00    +0.000 A 
ATOM      5  C   UNL     1      47.237   7.323  13.464  0.00  0.00    +0.000 A 
ATOM      6  C   UNL     1      46.277   7.159  12.459  0.00  0.00    +0.000 A 
ENDROOT
BRANCH   1   7
ATOM      7  C   UNL     1      44.559   5.763  11.233  0.00  0.00    +0.000 C 
BRANCH   7  10
ATOM      8  C   UNL     1      45.052   3.781   9.882  0.00  0.00    +0.000 C 
ATOM      9  O   UNL     1      44.509   3.032  10.685  0.00  0.00    +0.000 OA
ATOM     10  N   UNL     1      45.125   5.149  10.051  0.00  0.00    +0.000 N 
ATOM     11  H   UNL     1      45.758   5.698   9.487  0.00  0.00    +0.000 HD
BRANCH   8  16
ATOM     12  C   UNL     1      46.437   1.245   7.447  0.00  0.00    +0.000 A 
ATOM     13  C   UNL     1      46.831   2.059   6.381  0.00  0.00    +0.000 A 
ATOM     14  C   UNL     1      46.656   3.442   6.451  0.00  0.00    +0.000 A 
ATOM     15  C   UNL     1      46.090   4.021   7.591  0.00  0.00    +0.000 A 
ATOM     16  C   UNL     1      45.699   3.214   8.667  0.00  0.00    +0.000 A 
ATOM     17  C   UNL     1      45.864   1.823   8.587  0.00  0.00    +0.000 A 
BRANCH  12  19
ATOM     18  N   UNL     1      46.750  -1.329   7.316  0.00  0.00    +0.000 NA
ATOM     19  C   UNL     1      46.618  -0.176   7.373  0.00  0.00    +0.000 C 
ENDBRANCH  12  19
ENDBRANCH   8  16
ENDBRANCH   7  10
ENDBRANCH   1   7
BRANCH   4  20
ATOM     20  C   UNL     1      48.529   6.493  15.469  0.00  0.00    +0.000 C 
BRANCH  20  21
ATOM     21  N   UNL     1      49.573   7.401  15.070  0.00  0.00    +0.000 N 
ATOM     22  C   UNL     1      50.879   7.195  15.442  0.00  0.00    +0.000 C 
ATOM     23  O   UNL     1      51.225   6.213  16.095  0.00  0.00    +0.000 OA
ATOM     24  H   UNL     1      49.286   8.326  14.769  0.00  0.00    +0.000 HD
BRANCH  22  25
ATOM     25  C   UNL     1      51.857   8.181  14.965  0.00  0.00    +0.000 A 
ATOM     26  C   UNL     1      52.779   8.729  15.848  0.00  0.00    +0.000 A 
ATOM     27  S   UNL     1      53.870   9.813  15.111  0.00  0.00    +0.000 S 
ATOM     28  C   UNL     1      53.118   9.628  13.596  0.00  0.00    +0.000 A 
ATOM     29  N   UNL     1      53.553  10.317  12.507  0.00  0.00    +0.000 NA
ATOM     30  C   UNL     1      52.871  10.101  11.432  0.00  0.00    +0.000 A 
ATOM     31  N   UNL     1      51.797   9.254  11.345  0.00  0.00    +0.000 N 
ATOM     32  C   UNL     1      51.340   8.518  12.410  0.00  0.00    +0.000 A 
ATOM     33  O   UNL     1      50.404   7.734  12.287  0.00  0.00    +0.000 OA
ATOM     34  C   UNL     1      52.062   8.735  13.648  0.00  0.00    +0.000 A 
ATOM     35  H   UNL     1      51.313   9.119  10.470  0.00  0.00    +0.000 HD
ENDBRANCH  22  25
ENDBRANCH  20  21
ENDBRANCH   4  20
TORSDOF 7
ENDMDL
MODEL 8
REMARK VINA RESULT:    -5.743      4.569      9.031
REMARK INTER + INTRA:          -9.191
REMARK INTER:                  -8.229
REMARK INTRA:                  -0.961
REMARK UNBOUND:                -1.098
REMARK  Name = 
REMARK  7 active torsions:
REMARK  status: ('A' for Active; 'I' for Inactive)
REMARK    1  A    between atoms: C_2  and  C_3
REMARK    2  A    between atoms: C_7  and  C_8
REMARK    3  A    between atoms: N_10  and  C_11
REMARK    4  A    between atoms: C_11  and  C_12
REMARK    5  A    between atoms: C_15  and  C_16
REMARK    6  A    between atoms: C_16  and  N_17
REMARK    7  A    between atoms: C_18  and  C_20
REMARK                            x       y       z     vdW  Elec       q    Type
REMARK                         _______ _______ _______ _____ _____    ______ ____
ROOT
ATOM      1  C   UNL     1      49.487   9.637  11.398  0.00  0.00    +0.000 A 
ATOM      2  C   UNL     1      49.302   8.316  11.831  0.00  0.00    +0.000 A 
ATOM      3  C   UNL     1      48.070   7.896  12.348  0.00  0.00    +0.000 A 
ATOM      4  C   UNL     1      46.987   8.783  12.426  0.00  0.00    +0.000 A 
ATOM      5  C   UNL     1      47.178  10.107  12.006  0.00  0.00    +0.000 A 
ATOM      6  C   UNL     1      48.408  10.526  11.486  0.00  0.00    +0.000 A 
ENDROOT
BRANCH   1   7
ATOM      7  C   UNL     1      50.820  10.088  10.856  0.00  0.00    +0.000 C 
BRANCH   7  10
ATOM      8  C   UNL     1      52.631   9.340  12.325  0.00  0.00    +0.000 C 
ATOM      9  O   UNL     1      52.434  10.250  13.121  0.00  0.00    +0.000 OA
ATOM     10  N   UNL     1      51.885   9.161  11.178  0.00  0.00    +0.000 N 
ATOM     11  H   UNL     1      52.210   8.541  10.451  0.00  0.00    +0.000 HD
BRANCH   8  16
ATOM     12  C   UNL     1      54.831   6.819  14.081  0.00  0.00    +0.000 A 
ATOM     13  C   UNL     1      55.748   6.494  13.077  0.00  0.00    +0.000 A 
ATOM     14  C   UNL     1      55.661   7.099  11.822  0.00  0.00    +0.000 A 
ATOM     15  C   UNL     1      54.659   8.039  11.565  0.00  0.00    +0.000 A 
ATOM     16  C   UNL     1      53.741   8.377  12.567  0.00  0.00    +0.000 A 
ATOM     17  C   UNL     1      53.823   7.757  13.822  0.00  0.00    +0.000 A 
BRANCH  12  19
ATOM     18  N   UNL     1      54.988   5.701  16.419  0.00  0.00    +0.000 NA
ATOM     19  C   UNL     1      54.922   6.196  15.370  0.00  0.00    +0.000 C 
ENDBRANCH  12  19
ENDBRANCH   8  16
ENDBRANCH   7  10
ENDBRANCH   1   7
BRANCH   4  20
ATOM     20  C   UNL     1      45.648   8.340  12.962  0.00  0.00    +0.000 C 
BRANCH  20  21
ATOM     21  N   UNL     1      45.362   6.969  12.628  0.00  0.00    +0.000 N 
ATOM     22  C   UNL     1      44.553   6.647  11.565  0.00  0.00    +0.000 C 
ATOM     23  O   UNL     1      44.069   7.504  10.830  0.00  0.00    +0.000 OA
ATOM     24  H   UNL     1      45.525   6.276  13.351  0.00  0.00    +0.000 HD
BRANCH  22  25
ATOM     25  C   UNL     1      44.344   5.216  11.313  0.00  0.00    +0.000 A 
ATOM     26  C   UNL     1      43.598   4.455  12.204  0.00  0.00    +0.000 A 
ATOM     27  S   UNL     1      43.415   2.827  11.725  0.00  0.00    +0.000 S 
ATOM     28  C   UNL     1      44.369   3.069  10.338  0.00  0.00    +0.000 A 
ATOM     29  N   UNL     1      44.638   2.046   9.483  0.00  0.00    +0.000 NA
ATOM     30  C   UNL     1      45.398   2.366   8.490  0.00  0.00    +0.000 A 
ATOM     31  N   UNL     1      45.908   3.619   8.269  0.00  0.00    +0.000 N 
ATOM     32  C   UNL     1      45.641   4.688   9.088  0.00  0.00    +0.000 A 
ATOM     33  O   UNL     1      46.077   5.807   8.837  0.00  0.00    +0.000 OA
ATOM     34  C   UNL     1      44.803   4.379  10.230  0.00  0.00    +0.000 A 
ATOM     35  H   UNL     1      46.488   3.808   7.465  0.00  0.00    +0.000 HD
ENDBRANCH  22  25
ENDBRANCH  20  21
ENDBRANCH   4  20
TORSDOF 7
ENDMDL
MODEL 9
REMARK VINA RESULT:    -5.687      6.159      7.891
REMARK INTER + INTRA:          -9.113
REMARK INTER:                  -8.353
REMARK INTRA:                  -0.759
REMARK UNBOUND:                -1.098
REMARK  Name = 
REMARK  7 active torsions:
REMARK  status: ('A' for Active; 'I' for Inactive)
REMARK    1  A    between atoms: C_2  and  C_3
REMARK    2  A    between atoms: C_7  and  C_8
REMARK    3  A    between atoms: N_10  and  C_11
REMARK    4  A    between atoms: C_11  and  C_12
REMARK    5  A    between atoms: C_15  and  C_16
REMARK    6  A    between atoms: C_16  and  N_17
REMARK    7  A    between atoms: C_18  and  C_20
REMARK                            x       y       z     vdW  Elec       q    Type
REMARK                         _______ _______ _______ _____ _____    ______ ____
ROOT
ATOM      1  C   UNL     1      51.911   9.379   9.960  0.00  0.00    +0.000 A 
ATOM      2  C   UNL     1      52.005   7.995  10.165  0.00  0.00    +0.000 A 
ATOM      3  C   UNL     1      51.216   7.357  11.131  0.00  0.00    +0.000 A 
ATOM      4  C   UNL     1      50.298   8.086  11.900  0.00  0.00    +0.000 A 
ATOM      5  C   UNL     1      50.215   9.471  11.703  0.00  0.00    +0.000 A 
ATOM      6  C   UNL     1      51.002  10.109  10.736  0.00  0.00    +0.000 A 
ENDROOT
BRANCH   1   7
ATOM      7  C   UNL     1      52.773  10.062   8.930  0.00  0.00    +0.000 C 
BRANCH   7  10
ATOM      8  C   UNL     1      53.127   8.929   6.788  0.00  0.00    +0.000 C 
ATOM      9  O   UNL     1      52.210   9.540   6.251  0.00  0.00    +0.000 OA
ATOM     10  N   UNL     1      53.495   9.117   8.104  0.00  0.00    +0.000 N 
ATOM     11  H   UNL     1      54.101   8.452   8.563  0.00  0.00    +0.000 HD
BRANCH   8  16
ATOM     12  C   UNL     1      54.440   5.563   5.680  0.00  0.00    +0.000 A 
ATOM     13  C   UNL     1      55.206   5.910   4.563  0.00  0.00    +0.000 A 
ATOM     14  C   UNL     1      55.307   7.245   4.167  0.00  0.00    +0.000 A 
ATOM     15  C   UNL     1      54.646   8.243   4.890  0.00  0.00    +0.000 A 
ATOM     16  C   UNL     1      53.883   7.906   6.014  0.00  0.00    +0.000 A 
ATOM     17  C   UNL     1      53.772   6.562   6.401  0.00  0.00    +0.000 A 
BRANCH  12  19
ATOM     18  N   UNL     1      54.268   3.077   6.408  0.00  0.00    +0.000 NA
ATOM     19  C   UNL     1      54.337   4.191   6.085  0.00  0.00    +0.000 C 
ENDBRANCH  12  19
ENDBRANCH   8  16
ENDBRANCH   7  10
ENDBRANCH   1   7
BRANCH   4  20
ATOM     20  C   UNL     1      49.427   7.409  12.930  0.00  0.00    +0.000 C 
BRANCH  20  21
ATOM     21  N   UNL     1      48.126   7.086  12.405  0.00  0.00    +0.000 N 
ATOM     22  C   UNL     1      47.219   6.362  13.140  0.00  0.00    +0.000 C 
ATOM     23  O   UNL     1      47.456   5.992  14.287  0.00  0.00    +0.000 OA
ATOM     24  H   UNL     1      48.009   7.147  11.399  0.00  0.00    +0.000 HD
BRANCH  22  25
ATOM     25  C   UNL     1      45.920   6.106  12.505  0.00  0.00    +0.000 A 
ATOM     26  C   UNL     1      45.193   7.156  11.960  0.00  0.00    +0.000 A 
ATOM     27  S   UNL     1      43.737   6.667  11.218  0.00  0.00    +0.000 S 
ATOM     28  C   UNL     1      44.000   5.042  11.645  0.00  0.00    +0.000 A 
ATOM     29  N   UNL     1      43.095   4.077  11.327  0.00  0.00    +0.000 NA
ATOM     30  C   UNL     1      43.410   2.894  11.739  0.00  0.00    +0.000 A 
ATOM     31  N   UNL     1      44.551   2.587  12.433  0.00  0.00    +0.000 N 
ATOM     32  C   UNL     1      45.505   3.521  12.750  0.00  0.00    +0.000 A 
ATOM     33  O   UNL     1      46.538   3.205  13.333  0.00  0.00    +0.000 OA
ATOM     34  C   UNL     1      45.194   4.871  12.324  0.00  0.00    +0.000 A 
ATOM     35  H   UNL     1      44.746   1.637  12.716  0.00  0.00    +0.000 HD
ENDBRANCH  22  25
ENDBRANCH  20  21
ENDBRANCH   4  20
TORSDOF 7
ENDMDL
