MODEL 1
REMARK VINA RESULT:    -7.517      0.000      0.000
REMARK INTER + INTRA:          -9.137
REMARK INTER:                  -8.835
REMARK INTRA:                  -0.302
REMARK UNBOUND:                -0.302
REMARK  Name = 
REMARK  5 active torsions:
REMARK  status: ('A' for Active; 'I' for Inactive)
REMARK    1  A    between atoms: C_1  and  C_2
REMARK    2  A    between atoms: C_4  and  N_5
REMARK    3  A    between atoms: N_5  and  C_6
REMARK    4  A    between atoms: C_8  and  C_9
REMARK    5  A    between atoms: C_16  and  C_17
REMARK                            x       y       z     vdW  Elec       q    Type
REMARK                         _______ _______ _______ _____ _____    ______ ____
ROOT
ATOM      1  C   UNL     1      45.026   4.003   9.082  0.00  0.00    +0.000 A 
ATOM      2  C   UNL     1      45.910   4.011   7.990  0.00  0.00    +0.000 A 
ATOM      3  C   UNL     1      46.384   2.817   7.426  0.00  0.00    +0.000 A 
ATOM      4  C   UNL     1      45.963   1.590   7.961  0.00  0.00    +0.000 A 
ATOM      5  C   UNL     1      45.047   1.561   9.012  0.00  0.00    +0.000 A 
ATOM      6  C   UNL     1      44.571   2.756   9.545  0.00  0.00    +0.000 A 
ATOM      7  F   UNL     1      43.689   2.700  10.554  0.00  0.00    +0.000 F 
ENDROOT
BRANCH   3   8
ATOM      8  C   UNL     1      47.333   2.790   6.275  0.00  0.00    +0.000 C 
ATOM      9  N   UNL     1      48.654   2.527   6.507  0.00  0.00    +0.000 N 
ATOM     10  O   UNL     1      46.946   3.006   5.132  0.00  0.00    +0.000 OA
ATOM     11  H   UNL     1      49.079   2.393   7.409  0.00  0.00    +0.000 HD
ATOM     12  H   UNL     1      49.264   2.552   5.700  0.00  0.00    +0.000 HD
ENDBRANCH   3   8
BRANCH   1  13
ATOM     13  N   UNL     1      44.554   5.183   9.690  0.00  0.00    +0.000 N 
ATOM     14  H   UNL     1      44.204   5.825   8.980  0.00  0.00    +0.000 HD
BRANCH  13  18
ATOM     15  C   UNL     1      46.381   4.793  14.157  0.00  0.00    +0.000 C 
ATOM     16  C   UNL     1      45.406   5.085  13.032  0.00  0.00    +0.000 C 
ATOM     17  C   UNL     1      45.983   4.778  11.664  0.00  0.00    +0.000 C 
ATOM     18  C   UNL     1      45.368   5.823  10.730  0.00  0.00    +0.000 C 
ATOM     19  C   UNL     1      44.533   6.699  11.681  0.00  0.00    +0.000 C 
ATOM     20  C   UNL     1      44.611   8.181  11.357  0.00  0.00    +0.000 C 
ATOM     21  O   UNL     1      45.070   6.475  12.995  0.00  0.00    +0.000 OA
ENDBRANCH  13  18
ENDBRANCH   1  13
TORSDOF 3
ENDMDL
MODEL 2
REMARK VINA RESULT:    -7.066      1.140      2.024
REMARK INTER + INTRA:          -8.607
REMARK INTER:                  -8.498
REMARK INTRA:                  -0.109
REMARK UNBOUND:                -0.302
REMARK  Name = 
REMARK  5 active torsions:
REMARK  status: ('A' for Active; 'I' for Inactive)
REMARK    1  A    between atoms: C_1  and  C_2
REMARK    2  A    between atoms: C_4  and  N_5
REMARK    3  A    between atoms: N_5  and  C_6
REMARK    4  A    between atoms: C_8  and  C_9
REMARK    5  A    between atoms: C_16  and  C_17
REMARK                            x       y       z     vdW  Elec       q    Type
REMARK                         _______ _______ _______ _____ _____    ______ ____
ROOT
ATOM      1  C   UNL     1      45.273   4.216   9.182  0.00  0.00    +0.000 A 
ATOM      2  C   UNL     1      46.242   3.752   8.277  0.00  0.00    +0.000 A 
ATOM      3  C   UNL     1      46.329   2.395   7.932  0.00  0.00    +0.000 A 
ATOM      4  C   UNL     1      45.427   1.483   8.500  0.00  0.00    +0.000 A 
ATOM      5  C   UNL     1      44.427   1.931   9.361  0.00  0.00    +0.000 A 
ATOM      6  C   UNL     1      44.342   3.285   9.675  0.00  0.00    +0.000 A 
ATOM      7  F   UNL     1      43.369   3.690  10.504  0.00  0.00    +0.000 F 
ENDROOT
BRANCH   3   8
ATOM      8  C   UNL     1      47.354   1.867   6.984  0.00  0.00    +0.000 C 
ATOM      9  N   UNL     1      48.373   2.685   6.582  0.00  0.00    +0.000 N 
ATOM     10  O   UNL     1      47.289   0.720   6.558  0.00  0.00    +0.000 OA
ATOM     11  H   UNL     1      48.484   3.653   6.829  0.00  0.00    +0.000 HD
ATOM     12  H   UNL     1      49.024   2.293   5.915  0.00  0.00    +0.000 HD
ENDBRANCH   3   8
BRANCH   1  13
ATOM     13  N   UNL     1      45.177   5.565   9.571  0.00  0.00    +0.000 N 
ATOM     14  H   UNL     1      45.930   6.106   9.146  0.00  0.00    +0.000 HD
BRANCH  13  18
ATOM     15  C   UNL     1      45.506   8.934  13.034  0.00  0.00    +0.000 C 
ATOM     16  C   UNL     1      45.891   7.803  12.098  0.00  0.00    +0.000 C 
ATOM     17  C   UNL     1      44.757   7.393  11.179  0.00  0.00    +0.000 C 
ATOM     18  C   UNL     1      44.932   5.885  10.982  0.00  0.00    +0.000 C 
ATOM     19  C   UNL     1      46.133   5.548  11.885  0.00  0.00    +0.000 C 
ATOM     20  C   UNL     1      45.972   4.235  12.632  0.00  0.00    +0.000 C 
ATOM     21  O   UNL     1      46.225   6.622  12.834  0.00  0.00    +0.000 OA
ENDBRANCH  13  18
ENDBRANCH   1  13
TORSDOF 3
ENDMDL
MODEL 3
REMARK VINA RESULT:    -6.803      1.541      2.233
REMARK INTER + INTRA:          -8.298
REMARK INTER:                  -7.934
REMARK INTRA:                  -0.365
REMARK UNBOUND:                -0.302
REMARK  Name = 
REMARK  5 active torsions:
REMARK  status: ('A' for Active; 'I' for Inactive)
REMARK    1  A    between atoms: C_1  and  C_2
REMARK    2  A    between atoms: C_4  and  N_5
REMARK    3  A    between atoms: N_5  and  C_6
REMARK    4  A    between atoms: C_8  and  C_9
REMARK    5  A    between atoms: C_16  and  C_17
REMARK                            x       y       z     vdW  Elec       q    Type
REMARK                         _______ _______ _______ _____ _____    ______ ____
ROOT
ATOM      1  C   UNL     1      44.432   4.624  10.189  0.00  0.00    +0.000 A 
ATOM      2  C   UNL     1      45.290   4.572   9.077  0.00  0.00    +0.000 A 
ATOM      3  C   UNL     1      45.623   3.353   8.468  0.00  0.00    +0.000 A 
ATOM      4  C   UNL     1      45.085   2.162   8.978  0.00  0.00    +0.000 A 
ATOM      5  C   UNL     1      44.194   2.197  10.048  0.00  0.00    +0.000 A 
ATOM      6  C   UNL     1      43.858   3.418  10.626  0.00  0.00    +0.000 A 
ATOM      7  F   UNL     1      42.995   3.424  11.654  0.00  0.00    +0.000 F 
ENDROOT
BRANCH   3   8
ATOM      8  C   UNL     1      46.540   3.262   7.295  0.00  0.00    +0.000 C 
ATOM      9  N   UNL     1      47.503   2.292   7.276  0.00  0.00    +0.000 N 
ATOM     10  O   UNL     1      46.447   4.046   6.357  0.00  0.00    +0.000 OA
ATOM     11  H   UNL     1      47.697   1.640   8.016  0.00  0.00    +0.000 HD
ATOM     12  H   UNL     1      48.121   2.290   6.475  0.00  0.00    +0.000 HD
ENDBRANCH   3   8
BRANCH   1  13
ATOM     13  N   UNL     1      44.101   5.827  10.841  0.00  0.00    +0.000 N 
ATOM     14  H   UNL     1      43.895   6.551  10.154  0.00  0.00    +0.000 HD
BRANCH  13  18
ATOM     15  C   UNL     1      48.107   8.208  12.156  0.00  0.00    +0.000 C 
ATOM     16  C   UNL     1      47.198   7.081  11.702  0.00  0.00    +0.000 C 
ATOM     17  C   UNL     1      45.750   7.514  11.572  0.00  0.00    +0.000 C 
ATOM     18  C   UNL     1      44.930   6.282  11.962  0.00  0.00    +0.000 C 
ATOM     19  C   UNL     1      46.006   5.254  12.361  0.00  0.00    +0.000 C 
ATOM     20  C   UNL     1      45.625   4.430  13.579  0.00  0.00    +0.000 C 
ATOM     21  O   UNL     1      47.187   6.016  12.658  0.00  0.00    +0.000 OA
ENDBRANCH  13  18
ENDBRANCH   1  13
TORSDOF 3
ENDMDL
MODEL 4
REMARK VINA RESULT:    -6.488      3.136      6.453
REMARK INTER + INTRA:          -7.928
REMARK INTER:                  -7.502
REMARK INTRA:                  -0.426
REMARK UNBOUND:                -0.302
REMARK  Name = 
REMARK  5 active torsions:
REMARK  status: ('A' for Active; 'I' for Inactive)
REMARK    1  A    between atoms: C_1  and  C_2
REMARK    2  A    between atoms: C_4  and  N_5
REMARK    3  A    between atoms: N_5  and  C_6
REMARK    4  A    between atoms: C_8  and  C_9
REMARK    5  A    between atoms: C_16  and  C_17
REMARK                            x       y       z     vdW  Elec       q    Type
REMARK                         _______ _______ _______ _____ _____    ______ ____
ROOT
ATOM      1  C   UNL     1      45.158   7.056  11.705  0.00  0.00    +0.000 A 
ATOM      2  C   UNL     1      46.216   6.617  12.518  0.00  0.00    +0.000 A 
ATOM      3  C   UNL     1      47.014   7.525  13.231  0.00  0.00    +0.000 A 
ATOM      4  C   UNL     1      46.745   8.899  13.134  0.00  0.00    +0.000 A 
ATOM      5  C   UNL     1      45.669   9.350  12.372  0.00  0.00    +0.000 A 
ATOM      6  C   UNL     1      44.875   8.433  11.688  0.00  0.00    +0.000 A 
ATOM      7  F   UNL     1      43.844   8.893  10.964  0.00  0.00    +0.000 F 
ENDROOT
BRANCH   3   8
ATOM      8  C   UNL     1      48.152   7.094  14.093  0.00  0.00    +0.000 C 
ATOM      9  N   UNL     1      48.236   7.569  15.373  0.00  0.00    +0.000 N 
ATOM     10  O   UNL     1      49.012   6.331  13.670  0.00  0.00    +0.000 OA
ATOM     11  H   UNL     1      47.616   8.240  15.794  0.00  0.00    +0.000 HD
ATOM     12  H   UNL     1      49.043   7.275  15.907  0.00  0.00    +0.000 HD
ENDBRANCH   3   8
BRANCH   1  13
ATOM     13  N   UNL     1      44.358   6.174  10.953  0.00  0.00    +0.000 N 
ATOM     14  H   UNL     1      43.409   6.160  11.326  0.00  0.00    +0.000 HD
BRANCH  13  18
ATOM     15  C   UNL     1      45.743   3.215   7.379  0.00  0.00    +0.000 C 
ATOM     16  C   UNL     1      44.851   3.943   8.368  0.00  0.00    +0.000 C 
ATOM     17  C   UNL     1      45.625   4.886   9.269  0.00  0.00    +0.000 C 
ATOM     18  C   UNL     1      44.887   4.849  10.609  0.00  0.00    +0.000 C 
ATOM     19  C   UNL     1      43.776   3.809  10.372  0.00  0.00    +0.000 C 
ATOM     20  C   UNL     1      43.543   2.897  11.565  0.00  0.00    +0.000 C 
ATOM     21  O   UNL     1      44.208   3.020   9.252  0.00  0.00    +0.000 OA
ENDBRANCH  13  18
ENDBRANCH   1  13
TORSDOF 3
ENDMDL
MODEL 5
REMARK VINA RESULT:    -6.283      2.242      2.789
REMARK INTER + INTRA:          -7.686
REMARK INTER:                  -7.491
REMARK INTRA:                  -0.196
REMARK UNBOUND:                -0.302
REMARK  Name = 
REMARK  5 active torsions:
REMARK  status: ('A' for Active; 'I' for Inactive)
REMARK    1  A    between atoms: C_1  and  C_2
REMARK    2  A    between atoms: C_4  and  N_5
REMARK    3  A    between atoms: N_5  and  C_6
REMARK    4  A    between atoms: C_8  and  C_9
REMARK    5  A    between atoms: C_16  and  C_17
REMARK                            x       y       z     vdW  Elec       q    Type
REMARK                         _______ _______ _______ _____ _____    ______ ____
ROOT
ATOM      1  C   UNL     1      44.254   5.251  11.372  0.00  0.00    +0.000 A 
ATOM      2  C   UNL     1      44.896   4.929  10.164  0.00  0.00    +0.000 A 
ATOM      3  C   UNL     1      44.860   3.628   9.642  0.00  0.00    +0.000 A 
ATOM      4  C   UNL     1      44.166   2.627  10.339  0.00  0.00    +0.000 A 
ATOM      5  C   UNL     1      43.482   2.937  11.513  0.00  0.00    +0.000 A 
ATOM      6  C   UNL     1      43.511   4.239  12.005  0.00  0.00    +0.000 A 
ATOM      7  F   UNL     1      42.841   4.511  13.135  0.00  0.00    +0.000 F 
ENDROOT
BRANCH   3   8
ATOM      8  C   UNL     1      45.540   3.250   8.369  0.00  0.00    +0.000 C 
ATOM      9  N   UNL     1      46.034   1.983   8.227  0.00  0.00    +0.000 N 
ATOM     10  O   UNL     1      45.668   4.059   7.457  0.00  0.00    +0.000 OA
ATOM     11  H   UNL     1      46.030   1.267   8.934  0.00  0.00    +0.000 HD
ATOM     12  H   UNL     1      46.515   1.784   7.361  0.00  0.00    +0.000 HD
ENDBRANCH   3   8
BRANCH   1  13
ATOM     13  N   UNL     1      44.295   6.539  11.938  0.00  0.00    +0.000 N 
ATOM     14  H   UNL     1      43.456   7.059  11.683  0.00  0.00    +0.000 HD
BRANCH  13  18
ATOM     15  C   UNL     1      48.805   7.106  13.607  0.00  0.00    +0.000 C 
ATOM     16  C   UNL     1      47.296   7.216  13.501  0.00  0.00    +0.000 C 
ATOM     17  C   UNL     1      46.739   6.486  12.294  0.00  0.00    +0.000 C 
ATOM     18  C   UNL     1      45.535   7.318  11.847  0.00  0.00    +0.000 C 
ATOM     19  C   UNL     1      45.555   8.517  12.814  0.00  0.00    +0.000 C 
ATOM     20  C   UNL     1      45.220   9.837  12.141  0.00  0.00    +0.000 C 
ATOM     21  O   UNL     1      46.893   8.579  13.335  0.00  0.00    +0.000 OA
ENDBRANCH  13  18
ENDBRANCH   1  13
TORSDOF 3
ENDMDL
MODEL 6
REMARK VINA RESULT:    -6.281      3.596      5.002
REMARK INTER + INTRA:          -7.685
REMARK INTER:                  -7.227
REMARK INTRA:                  -0.458
REMARK UNBOUND:                -0.302
REMARK  Name = 
REMARK  5 active torsions:
REMARK  status: ('A' for Active; 'I' for Inactive)
REMARK    1  A    between atoms: C_1  and  C_2
REMARK    2  A    between atoms: C_4  and  N_5
REMARK    3  A    between atoms: N_5  and  C_6
REMARK    4  A    between atoms: C_8  and  C_9
REMARK    5  A    between atoms: C_16  and  C_17
REMARK                            x       y       z     vdW  Elec       q    Type
REMARK                         _______ _______ _______ _____ _____    ______ ____
ROOT
ATOM      1  C   UNL     1      45.897   5.395  12.699  0.00  0.00    +0.000 A 
ATOM      2  C   UNL     1      45.162   4.228  12.427  0.00  0.00    +0.000 A 
ATOM      3  C   UNL     1      44.736   3.919  11.127  0.00  0.00    +0.000 A 
ATOM      4  C   UNL     1      45.054   4.792  10.075  0.00  0.00    +0.000 A 
ATOM      5  C   UNL     1      45.824   5.928  10.316  0.00  0.00    +0.000 A 
ATOM      6  C   UNL     1      46.257   6.207  11.610  0.00  0.00    +0.000 A 
ATOM      7  F   UNL     1      46.999   7.306  11.814  0.00  0.00    +0.000 F 
ENDROOT
BRANCH   3   8
ATOM      8  C   UNL     1      43.945   2.697  10.806  0.00  0.00    +0.000 C 
ATOM      9  N   UNL     1      44.311   1.927   9.737  0.00  0.00    +0.000 N 
ATOM     10  O   UNL     1      42.971   2.379  11.480  0.00  0.00    +0.000 OA
ATOM     11  H   UNL     1      45.054   2.131   9.092  0.00  0.00    +0.000 HD
ATOM     12  H   UNL     1      43.724   1.127   9.540  0.00  0.00    +0.000 HD
ENDBRANCH   3   8
BRANCH   1  13
ATOM     13  N   UNL     1      46.314   5.748  13.996  0.00  0.00    +0.000 N 
ATOM     14  H   UNL     1      46.167   6.745  14.151  0.00  0.00    +0.000 HD
BRANCH  13  18
ATOM     15  C   UNL     1      48.596   3.411  17.571  0.00  0.00    +0.000 C 
ATOM     16  C   UNL     1      47.960   4.537  16.776  0.00  0.00    +0.000 C 
ATOM     17  C   UNL     1      47.397   4.068  15.448  0.00  0.00    +0.000 C 
ATOM     18  C   UNL     1      47.600   5.247  14.493  0.00  0.00    +0.000 C 
ATOM     19  C   UNL     1      48.345   6.280  15.359  0.00  0.00    +0.000 C 
ATOM     20  C   UNL     1      49.445   7.012  14.609  0.00  0.00    +0.000 C 
ATOM     21  O   UNL     1      48.928   5.537  16.442  0.00  0.00    +0.000 OA
ENDBRANCH  13  18
ENDBRANCH   1  13
TORSDOF 3
ENDMDL
MODEL 7
REMARK VINA RESULT:    -6.039      2.755      3.901
REMARK INTER + INTRA:          -7.399
REMARK INTER:                  -6.994
REMARK INTRA:                  -0.405
REMARK UNBOUND:                -0.302
REMARK  Name = 
REMARK  5 active torsions:
REMARK  status: ('A' for Active; 'I' for Inactive)
REMARK    1  A    between atoms: C_1  and  C_2
REMARK    2  A    between atoms: C_4  and  N_5
REMARK    3  A    between atoms: N_5  and  C_6
REMARK    4  A    between atoms: C_8  and  C_9
REMARK    5  A    between atoms: C_16  and  C_17
REMARK                            x       y       z     vdW  Elec       q    Type
REMARK                         _______ _______ _______ _____ _____    ______ ____
ROOT
ATOM      1  C   UNL     1      45.250   5.765  12.004  0.00  0.00    +0.000 A 
ATOM      2  C   UNL     1      45.381   5.646  10.610  0.00  0.00    +0.000 A 
ATOM      3  C   UNL     1      45.197   4.416   9.961  0.00  0.00    +0.000 A 
ATOM      4  C   UNL     1      44.870   3.282  10.720  0.00  0.00    +0.000 A 
ATOM      5  C   UNL     1      44.686   3.389  12.097  0.00  0.00    +0.000 A 
ATOM      6  C   UNL     1      44.853   4.623  12.721  0.00  0.00    +0.000 A 
ATOM      7  F   UNL     1      44.667   4.700  14.048  0.00  0.00    +0.000 F 
ENDROOT
BRANCH   3   8
ATOM      8  C   UNL     1      45.341   4.252   8.486  0.00  0.00    +0.000 C 
ATOM      9  N   UNL     1      44.392   3.549   7.797  0.00  0.00    +0.000 N 
ATOM     10  O   UNL     1      46.297   4.731   7.887  0.00  0.00    +0.000 OA
ATOM     11  H   UNL     1      43.604   3.072   8.201  0.00  0.00    +0.000 HD
ATOM     12  H   UNL     1      44.550   3.437   6.805  0.00  0.00    +0.000 HD
ENDBRANCH   3   8
BRANCH   1  13
ATOM     13  N   UNL     1      45.457   6.977  12.688  0.00  0.00    +0.000 N 
ATOM     14  H   UNL     1      45.003   7.742  12.190  0.00  0.00    +0.000 HD
BRANCH  13  18
ATOM     15  C   UNL     1      50.002   8.126  11.473  0.00  0.00    +0.000 C 
ATOM     16  C   UNL     1      48.769   7.293  11.774  0.00  0.00    +0.000 C 
ATOM     17  C   UNL     1      47.572   8.140  12.160  0.00  0.00    +0.000 C 
ATOM     18  C   UNL     1      46.802   7.297  13.180  0.00  0.00    +0.000 C 
ATOM     19  C   UNL     1      47.687   6.048  13.346  0.00  0.00    +0.000 C 
ATOM     20  C   UNL     1      47.779   5.564  14.783  0.00  0.00    +0.000 C 
ATOM     21  O   UNL     1      48.996   6.431  12.893  0.00  0.00    +0.000 OA
ENDBRANCH  13  18
ENDBRANCH   1  13
TORSDOF 3
ENDMDL
MODEL 8
REMARK VINA RESULT:    -5.897      3.724      4.945
REMARK INTER + INTRA:          -7.233
REMARK INTER:                  -6.742
REMARK INTRA:                  -0.490
REMARK UNBOUND:                -0.302
REMARK  Name = 
REMARK  5 active torsions:
REMARK  status: ('A' for Active; 'I' for Inactive)
REMARK    1  A    between atoms: C_1  and  C_2
REMARK    2  A    between atoms: C_4  and  N_5
REMARK    3  A    between atoms: N_5  and  C_6
REMARK    4  A    between atoms: C_8  and  C_9
REMARK    5  A    between atoms: C_16  and  C_17
REMARK                            x       y       z     vdW  Elec       q    Type
REMARK                         _______ _______ _______ _____ _____    ______ ____
ROOT
ATOM      1  C   UNL     1      45.440   6.226  11.324  0.00  0.00    +0.000 A 
ATOM      2  C   UNL     1      45.261   4.843  11.147  0.00  0.00    +0.000 A 
ATOM      3  C   UNL     1      43.981   4.271  11.114  0.00  0.00    +0.000 A 
ATOM      4  C   UNL     1      42.856   5.097  11.254  0.00  0.00    +0.000 A 
ATOM      5  C   UNL     1      43.010   6.476  11.380  0.00  0.00    +0.000 A 
ATOM      6  C   UNL     1      44.288   7.029  11.390  0.00  0.00    +0.000 A 
ATOM      7  F   UNL     1      44.409   8.360  11.510  0.00  0.00    +0.000 F 
ENDROOT
BRANCH   3   8
ATOM      8  C   UNL     1      43.756   2.806  10.940  0.00  0.00    +0.000 C 
ATOM      9  N   UNL     1      44.446   2.137   9.968  0.00  0.00    +0.000 N 
ATOM     10  O   UNL     1      42.961   2.201  11.649  0.00  0.00    +0.000 OA
ATOM     11  H   UNL     1      45.075   2.550   9.302  0.00  0.00    +0.000 HD
ATOM     12  H   UNL     1      44.236   1.153   9.868  0.00  0.00    +0.000 HD
ENDBRANCH   3   8
BRANCH   1  13
ATOM     13  N   UNL     1      46.711   6.828  11.392  0.00  0.00    +0.000 N 
ATOM     14  H   UNL     1      47.359   6.346  10.770  0.00  0.00    +0.000 HD
BRANCH  13  18
ATOM     15  C   UNL     1      50.540   8.572  13.789  0.00  0.00    +0.000 C 
ATOM     16  C   UNL     1      49.623   7.595  13.076  0.00  0.00    +0.000 C 
ATOM     17  C   UNL     1      48.344   8.246  12.584  0.00  0.00    +0.000 C 
ATOM     18  C   UNL     1      47.273   7.159  12.705  0.00  0.00    +0.000 C 
ATOM     19  C   UNL     1      48.036   5.981  13.339  0.00  0.00    +0.000 C 
ATOM     20  C   UNL     1      47.226   5.236  14.387  0.00  0.00    +0.000 C 
ATOM     21  O   UNL     1      49.198   6.554  13.960  0.00  0.00    +0.000 OA
ENDBRANCH  13  18
ENDBRANCH   1  13
TORSDOF 3
ENDMDL
MODEL 9
REMARK VINA RESULT:    -5.841      3.794      5.160
REMARK INTER + INTRA:          -7.168
REMARK INTER:                  -6.699
REMARK INTRA:                  -0.469
REMARK UNBOUND:                -0.302
REMARK  Name = 
REMARK  5 active torsions:
REMARK  status: ('A' for Active; 'I' for Inactive)
REMARK    1  A    between atoms: C_1  and  C_2
REMARK    2  A    between atoms: C_4  and  N_5
REMARK    3  A    between atoms: N_5  and  C_6
REMARK    4  A    between atoms: C_8  and  C_9
REMARK    5  A    between atoms: C_16  and  C_17
REMARK                            x       y       z     vdW  Elec       q    Type
REMARK                         _______ _______ _______ _____ _____    ______ ____
ROOT
ATOM      1  C   UNL     1      46.060   6.086  13.005  0.00  0.00    +0.000 A 
ATOM      2  C   UNL     1      45.093   5.669  12.075  0.00  0.00    +0.000 A 
ATOM      3  C   UNL     1      44.858   4.308  11.826  0.00  0.00    +0.000 A 
ATOM      4  C   UNL     1      45.601   3.344  12.525  0.00  0.00    +0.000 A 
ATOM      5  C   UNL     1      46.530   3.737  13.487  0.00  0.00    +0.000 A 
ATOM      6  C   UNL     1      46.734   5.092  13.736  0.00  0.00    +0.000 A 
ATOM      7  F   UNL     1      47.631   5.443  14.669  0.00  0.00    +0.000 F 
ENDROOT
BRANCH   3   8
ATOM      8  C   UNL     1      43.848   3.831  10.837  0.00  0.00    +0.000 C 
ATOM      9  N   UNL     1      43.767   4.447   9.619  0.00  0.00    +0.000 N 
ATOM     10  O   UNL     1      43.090   2.906  11.104  0.00  0.00    +0.000 OA
ATOM     11  H   UNL     1      44.301   5.247   9.326  0.00  0.00    +0.000 HD
ATOM     12  H   UNL     1      43.046   4.110   8.995  0.00  0.00    +0.000 HD
ENDBRANCH   3   8
BRANCH   1  13
ATOM     13  N   UNL     1      46.341   7.442  13.257  0.00  0.00    +0.000 N 
ATOM     14  H   UNL     1      45.706   7.805  13.967  0.00  0.00    +0.000 HD
BRANCH  13  18
ATOM     15  C   UNL     1      48.964  11.109  11.489  0.00  0.00    +0.000 C 
ATOM     16  C   UNL     1      47.890  10.358  12.255  0.00  0.00    +0.000 C 
ATOM     17  C   UNL     1      47.996   8.854  12.087  0.00  0.00    +0.000 C 
ATOM     18  C   UNL     1      46.552   8.349  12.122  0.00  0.00    +0.000 C 
ATOM     19  C   UNL     1      45.727   9.644  12.236  0.00  0.00    +0.000 C 
ATOM     20  C   UNL     1      44.463   9.627  11.392  0.00  0.00    +0.000 C 
ATOM     21  O   UNL     1      46.586  10.699  11.776  0.00  0.00    +0.000 OA
ENDBRANCH  13  18
ENDBRANCH   1  13
TORSDOF 3
ENDMDL
