MODEL 1
REMARK VINA RESULT:    -7.588      0.000      0.000
REMARK INTER + INTRA:         -10.491
REMARK INTER:                  -9.806
REMARK INTRA:                  -0.685
REMARK UNBOUND:                -0.685
REMARK  Name = 
REMARK  6 active torsions:
REMARK  status: ('A' for Active; 'I' for Inactive)
REMARK    1  A    between atoms: C_1  and  C_2
REMARK    2  A    between atoms: C_2  and  C_3
REMARK    3  A    between atoms: C_5  and  C_6
REMARK    4  A    between atoms: C_16  and  C_17
REMARK    5  A    between atoms: C_17  and  C_18
REMARK    6  A    between atoms: C_18  and  N_19
REMARK                            x       y       z     vdW  Elec       q    Type
REMARK                         _______ _______ _______ _____ _____    ______ ____
ROOT
ATOM      1  C   UNL     1      45.752   4.171  13.252  0.00  0.00    +0.000 C 
ATOM      2  C   UNL     1      44.996   5.297  12.509  0.00  0.00    +0.000 C 
ATOM      3  C   UNL     1      43.665   5.501  13.221  0.00  0.00    +0.000 C 
ATOM      4  C   UNL     1      42.641   5.181  12.417  0.00  0.00    +0.000 C 
ATOM      5  C   UNL     1      43.146   4.757  11.136  0.00  0.00    +0.000 C 
ATOM      6  C   UNL     1      44.491   4.785  11.140  0.00  0.00    +0.000 C 
ENDROOT
BRANCH   2   7
ATOM      7  C   UNL     1      45.767   6.626  12.420  0.00  0.00    +0.000 A 
ATOM      8  C   UNL     1      45.088   7.858  12.262  0.00  0.00    +0.000 A 
ATOM      9  C   UNL     1      45.783   9.067  12.095  0.00  0.00    +0.000 A 
ATOM     10  C   UNL     1      47.181   9.072  12.168  0.00  0.00    +0.000 A 
ATOM     11  C   UNL     1      47.865   7.886  12.391  0.00  0.00    +0.000 A 
ATOM     12  C   UNL     1      47.166   6.683  12.514  0.00  0.00    +0.000 A 
ATOM     13  F   UNL     1      47.889   5.578  12.733  0.00  0.00    +0.000 F 
BRANCH   9  14
ATOM     14  C   UNL     1      45.089  10.353  11.825  0.00  0.00    +0.000 C 
ATOM     15  N   UNL     1      43.767  10.434  12.170  0.00  0.00    +0.000 N 
ATOM     16  O   UNL     1      45.649  11.286  11.267  0.00  0.00    +0.000 OA
ATOM     17  H   UNL     1      43.213   9.631  12.431  0.00  0.00    +0.000 HD
ATOM     18  H   UNL     1      43.278  11.269  11.874  0.00  0.00    +0.000 HD
ENDBRANCH   9  14
ENDBRANCH   2   7
BRANCH   6  19
ATOM     19  C   UNL     1      45.373   4.478   9.959  0.00  0.00    +0.000 C 
BRANCH  19  20
ATOM     20  C   UNL     1      45.611   2.978   9.715  0.00  0.00    +0.000 C 
BRANCH  20  21
ATOM     21  N   UNL     1      45.094   2.438   8.440  0.00  0.00    +0.000 NA
ATOM     22  C   UNL     1      45.752   1.155   8.109  0.00  0.00    +0.000 C 
ATOM     23  C   UNL     1      47.220   1.293   7.697  0.00  0.00    +0.000 C 
ATOM     24  C   UNL     1      47.395   2.363   6.638  0.00  0.00    +0.000 C 
ATOM     25  F   UNL     1      48.719   2.613   6.464  0.00  0.00    +0.000 F 
ATOM     26  F   UNL     1      46.940   1.888   5.447  0.00  0.00    +0.000 F 
ATOM     27  C   UNL     1      46.678   3.660   6.950  0.00  0.00    +0.000 C 
ATOM     28  C   UNL     1      45.227   3.359   7.299  0.00  0.00    +0.000 C 
ENDBRANCH  20  21
ENDBRANCH  19  20
ENDBRANCH   6  19
TORSDOF 5
ENDMDL
MODEL 2
REMARK VINA RESULT:    -7.407      3.072      3.684
REMARK INTER + INTRA:         -10.257
REMARK INTER:                  -9.817
REMARK INTRA:                  -0.440
REMARK UNBOUND:                -0.685
REMARK  Name = 
REMARK  6 active torsions:
REMARK  status: ('A' for Active; 'I' for Inactive)
REMARK    1  A    between atoms: C_1  and  C_2
REMARK    2  A    between atoms: C_2  and  C_3
REMARK    3  A    between atoms: C_5  and  C_6
REMARK    4  A    between atoms: C_16  and  C_17
REMARK    5  A    between atoms: C_17  and  C_18
REMARK    6  A    between atoms: C_18  and  N_19
REMARK                            x       y       z     vdW  Elec       q    Type
REMARK                         _______ _______ _______ _____ _____    ______ ____
ROOT
ATOM      1  C   UNL     1      43.914   2.876  12.550  0.00  0.00    +0.000 C 
ATOM      2  C   UNL     1      44.228   4.385  12.429  0.00  0.00    +0.000 C 
ATOM      3  C   UNL     1      43.004   5.148  12.917  0.00  0.00    +0.000 C 
ATOM      4  C   UNL     1      42.452   5.854  11.919  0.00  0.00    +0.000 C 
ATOM      5  C   UNL     1      43.214   5.658  10.712  0.00  0.00    +0.000 C 
ATOM      6  C   UNL     1      44.232   4.810  10.942  0.00  0.00    +0.000 C 
ENDROOT
BRANCH   2   7
ATOM      7  C   UNL     1      45.483   4.834  13.198  0.00  0.00    +0.000 A 
ATOM      8  C   UNL     1      46.107   3.984  14.142  0.00  0.00    +0.000 A 
ATOM      9  C   UNL     1      47.202   4.412  14.911  0.00  0.00    +0.000 A 
ATOM     10  C   UNL     1      47.746   5.682  14.683  0.00  0.00    +0.000 A 
ATOM     11  C   UNL     1      47.194   6.506  13.714  0.00  0.00    +0.000 A 
ATOM     12  C   UNL     1      46.080   6.087  12.984  0.00  0.00    +0.000 A 
ATOM     13  F   UNL     1      45.602   6.931  12.062  0.00  0.00    +0.000 F 
BRANCH   9  14
ATOM     14  C   UNL     1      47.803   3.571  15.977  0.00  0.00    +0.000 C 
ATOM     15  N   UNL     1      47.599   3.963  17.272  0.00  0.00    +0.000 N 
ATOM     16  O   UNL     1      48.499   2.598  15.719  0.00  0.00    +0.000 OA
ATOM     17  H   UNL     1      47.219   4.864  17.525  0.00  0.00    +0.000 HD
ATOM     18  H   UNL     1      48.110   3.451  17.980  0.00  0.00    +0.000 HD
ENDBRANCH   9  14
ENDBRANCH   2   7
BRANCH   6  19
ATOM     19  C   UNL     1      45.286   4.421   9.940  0.00  0.00    +0.000 C 
BRANCH  19  20
ATOM     20  C   UNL     1      45.445   2.904   9.740  0.00  0.00    +0.000 C 
BRANCH  20  21
ATOM     21  N   UNL     1      44.985   2.369   8.441  0.00  0.00    +0.000 NA
ATOM     22  C   UNL     1      45.670   1.095   8.128  0.00  0.00    +0.000 C 
ATOM     23  C   UNL     1      47.152   1.251   7.778  0.00  0.00    +0.000 C 
ATOM     24  C   UNL     1      47.359   2.331   6.735  0.00  0.00    +0.000 C 
ATOM     25  F   UNL     1      48.686   2.595   6.617  0.00  0.00    +0.000 F 
ATOM     26  F   UNL     1      46.959   1.860   5.523  0.00  0.00    +0.000 F 
ATOM     27  C   UNL     1      46.617   3.619   7.027  0.00  0.00    +0.000 C 
ATOM     28  C   UNL     1      45.156   3.300   7.313  0.00  0.00    +0.000 C 
ENDBRANCH  20  21
ENDBRANCH  19  20
ENDBRANCH   6  19
TORSDOF 5
ENDMDL
MODEL 3
REMARK VINA RESULT:    -7.240      3.870      5.911
REMARK INTER + INTRA:         -10.041
REMARK INTER:                  -8.986
REMARK INTRA:                  -1.055
REMARK UNBOUND:                -0.685
REMARK  Name = 
REMARK  6 active torsions:
REMARK  status: ('A' for Active; 'I' for Inactive)
REMARK    1  A    between atoms: C_1  and  C_2
REMARK    2  A    between atoms: C_2  and  C_3
REMARK    3  A    between atoms: C_5  and  C_6
REMARK    4  A    between atoms: C_16  and  C_17
REMARK    5  A    between atoms: C_17  and  C_18
REMARK    6  A    between atoms: C_18  and  N_19
REMARK                            x       y       z     vdW  Elec       q    Type
REMARK                         _______ _______ _______ _____ _____    ______ ____
ROOT
ATOM      1  C   UNL     1      48.327   9.631  13.951  0.00  0.00    +0.000 C 
ATOM      2  C   UNL     1      48.477   8.131  13.604  0.00  0.00    +0.000 C 
ATOM      3  C   UNL     1      49.726   7.983  12.745  0.00  0.00    +0.000 C 
ATOM      4  C   UNL     1      49.409   7.562  11.512  0.00  0.00    +0.000 C 
ATOM      5  C   UNL     1      47.983   7.382  11.415  0.00  0.00    +0.000 C 
ATOM      6  C   UNL     1      47.396   7.712  12.579  0.00  0.00    +0.000 C 
ENDROOT
BRANCH   2   7
ATOM      7  C   UNL     1      48.553   7.203  14.828  0.00  0.00    +0.000 A 
ATOM      8  C   UNL     1      48.071   5.872  14.770  0.00  0.00    +0.000 A 
ATOM      9  C   UNL     1      48.057   5.043  15.904  0.00  0.00    +0.000 A 
ATOM     10  C   UNL     1      48.608   5.509  17.104  0.00  0.00    +0.000 A 
ATOM     11  C   UNL     1      49.150   6.785  17.165  0.00  0.00    +0.000 A 
ATOM     12  C   UNL     1      49.120   7.616  16.044  0.00  0.00    +0.000 A 
ATOM     13  F   UNL     1      49.664   8.832  16.173  0.00  0.00    +0.000 F 
BRANCH   9  14
ATOM     14  C   UNL     1      47.461   3.682  15.886  0.00  0.00    +0.000 C 
ATOM     15  N   UNL     1      46.865   3.245  17.037  0.00  0.00    +0.000 N 
ATOM     16  O   UNL     1      47.544   2.952  14.907  0.00  0.00    +0.000 OA
ATOM     17  H   UNL     1      46.961   3.719  17.924  0.00  0.00    +0.000 HD
ATOM     18  H   UNL     1      46.570   2.277  17.049  0.00  0.00    +0.000 HD
ENDBRANCH   9  14
ENDBRANCH   2   7
BRANCH   6  19
ATOM     19  C   UNL     1      45.928   7.586  12.884  0.00  0.00    +0.000 C 
BRANCH  19  20
ATOM     20  C   UNL     1      45.139   6.736  11.873  0.00  0.00    +0.000 C 
BRANCH  20  21
ATOM     21  N   UNL     1      44.076   5.878  12.437  0.00  0.00    +0.000 NA
ATOM     22  C   UNL     1      44.660   4.732  13.168  0.00  0.00    +0.000 C 
ATOM     23  C   UNL     1      45.318   3.684  12.266  0.00  0.00    +0.000 C 
ATOM     24  C   UNL     1      44.398   3.282  11.130  0.00  0.00    +0.000 C 
ATOM     25  F   UNL     1      45.091   2.532  10.233  0.00  0.00    +0.000 F 
ATOM     26  F   UNL     1      43.417   2.477  11.618  0.00  0.00    +0.000 F 
ATOM     27  C   UNL     1      43.758   4.453  10.414  0.00  0.00    +0.000 C 
ATOM     28  C   UNL     1      43.115   5.376  11.440  0.00  0.00    +0.000 C 
ENDBRANCH  20  21
ENDBRANCH  19  20
ENDBRANCH   6  19
TORSDOF 5
ENDMDL
MODEL 4
REMARK VINA RESULT:    -6.395      4.825      8.175
REMARK INTER + INTRA:          -8.950
REMARK INTER:                  -8.389
REMARK INTRA:                  -0.561
REMARK UNBOUND:                -0.685
REMARK  Name = 
REMARK  6 active torsions:
REMARK  status: ('A' for Active; 'I' for Inactive)
REMARK    1  A    between atoms: C_1  and  C_2
REMARK    2  A    between atoms: C_2  and  C_3
REMARK    3  A    between atoms: C_5  and  C_6
REMARK    4  A    between atoms: C_16  and  C_17
REMARK    5  A    between atoms: C_17  and  C_18
REMARK    6  A    between atoms: C_18  and  N_19
REMARK                            x       y       z     vdW  Elec       q    Type
REMARK                         _______ _______ _______ _____ _____    ______ ____
ROOT
ATOM      1  C   UNL     1      49.745   7.665  11.780  0.00  0.00    +0.000 C 
ATOM      2  C   UNL     1      48.642   8.151  12.749  0.00  0.00    +0.000 C 
ATOM      3  C   UNL     1      48.273   9.572  12.346  0.00  0.00    +0.000 C 
ATOM      4  C   UNL     1      48.591  10.441  13.316  0.00  0.00    +0.000 C 
ATOM      5  C   UNL     1      49.172   9.732  14.427  0.00  0.00    +0.000 C 
ATOM      6  C   UNL     1      49.244   8.418  14.148  0.00  0.00    +0.000 C 
ENDROOT
BRANCH   2   7
ATOM      7  C   UNL     1      47.389   7.258  12.781  0.00  0.00    +0.000 A 
ATOM      8  C   UNL     1      47.477   5.884  13.110  0.00  0.00    +0.000 A 
ATOM      9  C   UNL     1      46.354   5.041  13.060  0.00  0.00    +0.000 A 
ATOM     10  C   UNL     1      45.099   5.584  12.760  0.00  0.00    +0.000 A 
ATOM     11  C   UNL     1      44.978   6.942  12.503  0.00  0.00    +0.000 A 
ATOM     12  C   UNL     1      46.107   7.763  12.514  0.00  0.00    +0.000 A 
ATOM     13  F   UNL     1      45.916   9.064  12.262  0.00  0.00    +0.000 F 
BRANCH   9  14
ATOM     14  C   UNL     1      46.448   3.578  13.301  0.00  0.00    +0.000 C 
ATOM     15  N   UNL     1      45.525   2.782  12.679  0.00  0.00    +0.000 N 
ATOM     16  O   UNL     1      47.275   3.099  14.066  0.00  0.00    +0.000 OA
ATOM     17  H   UNL     1      44.703   3.144  12.218  0.00  0.00    +0.000 HD
ATOM     18  H   UNL     1      45.526   1.805  12.944  0.00  0.00    +0.000 HD
ENDBRANCH   9  14
ENDBRANCH   2   7
BRANCH   6  19
ATOM     19  C   UNL     1      49.727   7.350  15.093  0.00  0.00    +0.000 C 
BRANCH  19  20
ATOM     20  C   UNL     1      48.798   7.094  16.293  0.00  0.00    +0.000 C 
BRANCH  20  21
ATOM     21  N   UNL     1      49.439   6.536  17.502  0.00  0.00    +0.000 NA
ATOM     22  C   UNL     1      50.038   5.214  17.215  0.00  0.00    +0.000 C 
ATOM     23  C   UNL     1      49.013   4.100  16.988  0.00  0.00    +0.000 C 
ATOM     24  C   UNL     1      47.974   4.075  18.092  0.00  0.00    +0.000 C 
ATOM     25  F   UNL     1      46.966   3.234  17.743  0.00  0.00    +0.000 F 
ATOM     26  F   UNL     1      48.533   3.551  19.216  0.00  0.00    +0.000 F 
ATOM     27  C   UNL     1      47.398   5.436  18.423  0.00  0.00    +0.000 C 
ATOM     28  C   UNL     1      48.537   6.418  18.660  0.00  0.00    +0.000 C 
ENDBRANCH  20  21
ENDBRANCH  19  20
ENDBRANCH   6  19
TORSDOF 5
ENDMDL
MODEL 5
REMARK VINA RESULT:    -6.355      3.969      7.867
REMARK INTER + INTRA:          -8.898
REMARK INTER:                  -7.708
REMARK INTRA:                  -1.190
REMARK UNBOUND:                -0.685
REMARK  Name = 
REMARK  6 active torsions:
REMARK  status: ('A' for Active; 'I' for Inactive)
REMARK    1  A    between atoms: C_1  and  C_2
REMARK    2  A    between atoms: C_2  and  C_3
REMARK    3  A    between atoms: C_5  and  C_6
REMARK    4  A    between atoms: C_16  and  C_17
REMARK    5  A    between atoms: C_17  and  C_18
REMARK    6  A    between atoms: C_18  and  N_19
REMARK                            x       y       z     vdW  Elec       q    Type
REMARK                         _______ _______ _______ _____ _____    ______ ____
ROOT
ATOM      1  C   UNL     1      48.293   7.215  11.020  0.00  0.00    +0.000 C 
ATOM      2  C   UNL     1      47.023   7.158  11.900  0.00  0.00    +0.000 C 
ATOM      3  C   UNL     1      46.507   8.582  12.050  0.00  0.00    +0.000 C 
ATOM      4  C   UNL     1      46.578   8.983  13.328  0.00  0.00    +0.000 C 
ATOM      5  C   UNL     1      47.115   7.919  14.138  0.00  0.00    +0.000 C 
ATOM      6  C   UNL     1      47.407   6.856  13.368  0.00  0.00    +0.000 C 
ENDROOT
BRANCH   2   7
ATOM      7  C   UNL     1      45.916   6.239  11.355  0.00  0.00    +0.000 A 
ATOM      8  C   UNL     1      46.084   5.528  10.142  0.00  0.00    +0.000 A 
ATOM      9  C   UNL     1      45.050   4.754   9.590  0.00  0.00    +0.000 A 
ATOM     10  C   UNL     1      43.849   4.610  10.295  0.00  0.00    +0.000 A 
ATOM     11  C   UNL     1      43.687   5.240  11.520  0.00  0.00    +0.000 A 
ATOM     12  C   UNL     1      44.706   6.042  12.039  0.00  0.00    +0.000 A 
ATOM     13  F   UNL     1      44.484   6.617  13.227  0.00  0.00    +0.000 F 
BRANCH   9  14
ATOM     14  C   UNL     1      45.174   4.087   8.269  0.00  0.00    +0.000 C 
ATOM     15  N   UNL     1      44.260   3.113   7.972  0.00  0.00    +0.000 N 
ATOM     16  O   UNL     1      46.084   4.349   7.494  0.00  0.00    +0.000 OA
ATOM     17  H   UNL     1      43.632   2.716   8.656  0.00  0.00    +0.000 HD
ATOM     18  H   UNL     1      44.427   2.587   7.124  0.00  0.00    +0.000 HD
ENDBRANCH   9  14
ENDBRANCH   2   7
BRANCH   6  19
ATOM     19  C   UNL     1      47.918   5.531  13.866  0.00  0.00    +0.000 C 
BRANCH  19  20
ATOM     20  C   UNL     1      47.468   5.170  15.292  0.00  0.00    +0.000 C 
BRANCH  20  21
ATOM     21  N   UNL     1      48.542   4.811  16.241  0.00  0.00    +0.000 NA
ATOM     22  C   UNL     1      47.979   4.186  17.458  0.00  0.00    +0.000 C 
ATOM     23  C   UNL     1      47.215   5.155  18.363  0.00  0.00    +0.000 C 
ATOM     24  C   UNL     1      48.026   6.406  18.637  0.00  0.00    +0.000 C 
ATOM     25  F   UNL     1      47.239   7.329  19.247  0.00  0.00    +0.000 F 
ATOM     26  F   UNL     1      49.016   6.109  19.522  0.00  0.00    +0.000 F 
ATOM     27  C   UNL     1      48.647   7.019  17.399  0.00  0.00    +0.000 C 
ATOM     28  C   UNL     1      49.402   5.942  16.632  0.00  0.00    +0.000 C 
ENDBRANCH  20  21
ENDBRANCH  19  20
ENDBRANCH   6  19
TORSDOF 5
ENDMDL
MODEL 6
REMARK VINA RESULT:    -6.332      6.443      8.636
REMARK INTER + INTRA:          -8.868
REMARK INTER:                  -7.776
REMARK INTRA:                  -1.092
REMARK UNBOUND:                -0.685
REMARK  Name = 
REMARK  6 active torsions:
REMARK  status: ('A' for Active; 'I' for Inactive)
REMARK    1  A    between atoms: C_1  and  C_2
REMARK    2  A    between atoms: C_2  and  C_3
REMARK    3  A    between atoms: C_5  and  C_6
REMARK    4  A    between atoms: C_16  and  C_17
REMARK    5  A    between atoms: C_17  and  C_18
REMARK    6  A    between atoms: C_18  and  N_19
REMARK                            x       y       z     vdW  Elec       q    Type
REMARK                         _______ _______ _______ _____ _____    ______ ____
ROOT
ATOM      1  C   UNL     1      47.947   3.525  16.918  0.00  0.00    +0.000 C 
ATOM      2  C   UNL     1      48.828   4.592  17.608  0.00  0.00    +0.000 C 
ATOM      3  C   UNL     1      48.194   4.906  18.956  0.00  0.00    +0.000 C 
ATOM      4  C   UNL     1      47.770   6.178  18.999  0.00  0.00    +0.000 C 
ATOM      5  C   UNL     1      48.066   6.827  17.747  0.00  0.00    +0.000 C 
ATOM      6  C   UNL     1      48.655   5.959  16.905  0.00  0.00    +0.000 C 
ENDROOT
BRANCH   2   7
ATOM      7  C   UNL     1      50.299   4.178  17.788  0.00  0.00    +0.000 A 
ATOM      8  C   UNL     1      50.721   2.848  17.544  0.00  0.00    +0.000 A 
ATOM      9  C   UNL     1      52.042   2.438  17.786  0.00  0.00    +0.000 A 
ATOM     10  C   UNL     1      52.991   3.382  18.200  0.00  0.00    +0.000 A 
ATOM     11  C   UNL     1      52.615   4.705  18.378  0.00  0.00    +0.000 A 
ATOM     12  C   UNL     1      51.289   5.094  18.175  0.00  0.00    +0.000 A 
ATOM     13  F   UNL     1      50.998   6.387  18.360  0.00  0.00    +0.000 F 
BRANCH   9  14
ATOM     14  C   UNL     1      52.477   1.025  17.635  0.00  0.00    +0.000 C 
ATOM     15  N   UNL     1      51.668   0.062  18.173  0.00  0.00    +0.000 N 
ATOM     16  O   UNL     1      53.538   0.728  17.103  0.00  0.00    +0.000 OA
ATOM     17  H   UNL     1      50.904   0.267  18.800  0.00  0.00    +0.000 HD
ATOM     18  H   UNL     1      52.033  -0.883  18.167  0.00  0.00    +0.000 HD
ENDBRANCH   9  14
ENDBRANCH   2   7
BRANCH   6  19
ATOM     19  C   UNL     1      49.174   6.291  15.532  0.00  0.00    +0.000 C 
BRANCH  19  20
ATOM     20  C   UNL     1      48.091   6.724  14.530  0.00  0.00    +0.000 C 
BRANCH  20  21
ATOM     21  N   UNL     1      47.987   5.917  13.296  0.00  0.00    +0.000 NA
ATOM     22  C   UNL     1      47.312   6.682  12.224  0.00  0.00    +0.000 C 
ATOM     23  C   UNL     1      45.815   6.899  12.459  0.00  0.00    +0.000 C 
ATOM     24  C   UNL     1      45.121   5.600  12.814  0.00  0.00    +0.000 C 
ATOM     25  F   UNL     1      43.855   5.865  13.232  0.00  0.00    +0.000 F 
ATOM     26  F   UNL     1      44.997   4.841  11.692  0.00  0.00    +0.000 F 
ATOM     27  C   UNL     1      45.838   4.790  13.874  0.00  0.00    +0.000 C 
ATOM     28  C   UNL     1      47.299   4.628  13.477  0.00  0.00    +0.000 C 
ENDBRANCH  20  21
ENDBRANCH  19  20
ENDBRANCH   6  19
TORSDOF 5
ENDMDL
MODEL 7
REMARK VINA RESULT:    -6.114      4.178      7.605
REMARK INTER + INTRA:          -8.586
REMARK INTER:                  -7.784
REMARK INTRA:                  -0.802
REMARK UNBOUND:                -0.685
REMARK  Name = 
REMARK  6 active torsions:
REMARK  status: ('A' for Active; 'I' for Inactive)
REMARK    1  A    between atoms: C_1  and  C_2
REMARK    2  A    between atoms: C_2  and  C_3
REMARK    3  A    between atoms: C_5  and  C_6
REMARK    4  A    between atoms: C_16  and  C_17
REMARK    5  A    between atoms: C_17  and  C_18
REMARK    6  A    between atoms: C_18  and  N_19
REMARK                            x       y       z     vdW  Elec       q    Type
REMARK                         _______ _______ _______ _____ _____    ______ ____
ROOT
ATOM      1  C   UNL     1      49.471   7.112  11.950  0.00  0.00    +0.000 C 
ATOM      2  C   UNL     1      48.271   7.823  12.617  0.00  0.00    +0.000 C 
ATOM      3  C   UNL     1      48.430   9.317  12.369  0.00  0.00    +0.000 C 
ATOM      4  C   UNL     1      48.618   9.975  13.523  0.00  0.00    +0.000 C 
ATOM      5  C   UNL     1      48.597   9.040  14.619  0.00  0.00    +0.000 C 
ATOM      6  C   UNL     1      48.421   7.790  14.156  0.00  0.00    +0.000 C 
ENDROOT
BRANCH   2   7
ATOM      7  C   UNL     1      46.895   7.340  12.125  0.00  0.00    +0.000 A 
ATOM      8  C   UNL     1      46.782   6.305  11.166  0.00  0.00    +0.000 A 
ATOM      9  C   UNL     1      45.537   5.913  10.647  0.00  0.00    +0.000 A 
ATOM     10  C   UNL     1      44.368   6.500  11.147  0.00  0.00    +0.000 A 
ATOM     11  C   UNL     1      44.451   7.468  12.138  0.00  0.00    +0.000 A 
ATOM     12  C   UNL     1      45.696   7.879  12.617  0.00  0.00    +0.000 A 
ATOM     13  F   UNL     1      45.702   8.813  13.576  0.00  0.00    +0.000 F 
BRANCH   9  14
ATOM     14  C   UNL     1      45.409   4.902   9.566  0.00  0.00    +0.000 C 
ATOM     15  N   UNL     1      44.632   3.806   9.825  0.00  0.00    +0.000 N 
ATOM     16  O   UNL     1      46.013   5.007   8.506  0.00  0.00    +0.000 OA
ATOM     17  H   UNL     1      44.294   3.572  10.747  0.00  0.00    +0.000 HD
ATOM     18  H   UNL     1      44.649   3.071   9.128  0.00  0.00    +0.000 HD
ENDBRANCH   9  14
ENDBRANCH   2   7
BRANCH   6  19
ATOM     19  C   UNL     1      48.275   6.556  15.006  0.00  0.00    +0.000 C 
BRANCH  19  20
ATOM     20  C   UNL     1      49.352   6.402  16.094  0.00  0.00    +0.000 C 
BRANCH  20  21
ATOM     21  N   UNL     1      48.877   5.948  17.418  0.00  0.00    +0.000 NA
ATOM     22  C   UNL     1      49.969   5.288  18.168  0.00  0.00    +0.000 C 
ATOM     23  C   UNL     1      50.373   3.921  17.611  0.00  0.00    +0.000 C 
ATOM     24  C   UNL     1      49.161   3.038  17.389  0.00  0.00    +0.000 C 
ATOM     25  F   UNL     1      49.530   1.933  16.691  0.00  0.00    +0.000 F 
ATOM     26  F   UNL     1      48.710   2.592  18.593  0.00  0.00    +0.000 F 
ATOM     27  C   UNL     1      48.022   3.728  16.667  0.00  0.00    +0.000 C 
ATOM     28  C   UNL     1      47.714   5.047  17.363  0.00  0.00    +0.000 C 
ENDBRANCH  20  21
ENDBRANCH  19  20
ENDBRANCH   6  19
TORSDOF 5
ENDMDL
MODEL 8
REMARK VINA RESULT:    -6.077      6.380      8.467
REMARK INTER + INTRA:          -8.539
REMARK INTER:                  -7.718
REMARK INTRA:                  -0.821
REMARK UNBOUND:                -0.685
REMARK  Name = 
REMARK  6 active torsions:
REMARK  status: ('A' for Active; 'I' for Inactive)
REMARK    1  A    between atoms: C_1  and  C_2
REMARK    2  A    between atoms: C_2  and  C_3
REMARK    3  A    between atoms: C_5  and  C_6
REMARK    4  A    between atoms: C_16  and  C_17
REMARK    5  A    between atoms: C_17  and  C_18
REMARK    6  A    between atoms: C_18  and  N_19
REMARK                            x       y       z     vdW  Elec       q    Type
REMARK                         _______ _______ _______ _____ _____    ______ ____
ROOT
ATOM      1  C   UNL     1      47.156   3.950  17.071  0.00  0.00    +0.000 C 
ATOM      2  C   UNL     1      48.397   4.649  17.670  0.00  0.00    +0.000 C 
ATOM      3  C   UNL     1      48.022   5.131  19.065  0.00  0.00    +0.000 C 
ATOM      4  C   UNL     1      48.051   6.470  19.130  0.00  0.00    +0.000 C 
ATOM      5  C   UNL     1      48.439   7.007  17.851  0.00  0.00    +0.000 C 
ATOM      6  C   UNL     1      48.631   6.009  16.971  0.00  0.00    +0.000 C 
ENDROOT
BRANCH   2   7
ATOM      7  C   UNL     1      49.656   3.765  17.727  0.00  0.00    +0.000 A 
ATOM      8  C   UNL     1      50.786   4.148  18.490  0.00  0.00    +0.000 A 
ATOM      9  C   UNL     1      51.971   3.393  18.482  0.00  0.00    +0.000 A 
ATOM     10  C   UNL     1      52.013   2.187  17.771  0.00  0.00    +0.000 A 
ATOM     11  C   UNL     1      50.894   1.758  17.074  0.00  0.00    +0.000 A 
ATOM     12  C   UNL     1      49.735   2.537  17.053  0.00  0.00    +0.000 A 
ATOM     13  F   UNL     1      48.692   2.059  16.364  0.00  0.00    +0.000 F 
BRANCH   9  14
ATOM     14  C   UNL     1      53.199   3.833  19.193  0.00  0.00    +0.000 C 
ATOM     15  N   UNL     1      53.771   2.944  20.061  0.00  0.00    +0.000 N 
ATOM     16  O   UNL     1      53.655   4.961  19.058  0.00  0.00    +0.000 OA
ATOM     17  H   UNL     1      53.317   2.095  20.364  0.00  0.00    +0.000 HD
ATOM     18  H   UNL     1      54.535   3.298  20.624  0.00  0.00    +0.000 HD
ENDBRANCH   9  14
ENDBRANCH   2   7
BRANCH   6  19
ATOM     19  C   UNL     1      49.113   6.175  15.554  0.00  0.00    +0.000 C 
BRANCH  19  20
ATOM     20  C   UNL     1      48.024   6.611  14.559  0.00  0.00    +0.000 C 
BRANCH  20  21
ATOM     21  N   UNL     1      47.935   5.827  13.310  0.00  0.00    +0.000 NA
ATOM     22  C   UNL     1      47.344   6.639  12.223  0.00  0.00    +0.000 C 
ATOM     23  C   UNL     1      45.850   6.925  12.397  0.00  0.00    +0.000 C 
ATOM     24  C   UNL     1      45.080   5.656  12.702  0.00  0.00    +0.000 C 
ATOM     25  F   UNL     1      43.812   5.976  13.070  0.00  0.00    +0.000 F 
ATOM     26  F   UNL     1      44.968   4.919  11.564  0.00  0.00    +0.000 F 
ATOM     27  C   UNL     1      45.711   4.797  13.778  0.00  0.00    +0.000 C 
ATOM     28  C   UNL     1      47.178   4.570  13.441  0.00  0.00    +0.000 C 
ENDBRANCH  20  21
ENDBRANCH  19  20
ENDBRANCH   6  19
TORSDOF 5
ENDMDL
MODEL 9
REMARK VINA RESULT:    -5.608      4.645      7.094
REMARK INTER + INTRA:          -7.933
REMARK INTER:                  -7.308
REMARK INTRA:                  -0.625
REMARK UNBOUND:                -0.685
REMARK  Name = 
REMARK  6 active torsions:
REMARK  status: ('A' for Active; 'I' for Inactive)
REMARK    1  A    between atoms: C_1  and  C_2
REMARK    2  A    between atoms: C_2  and  C_3
REMARK    3  A    between atoms: C_5  and  C_6
REMARK    4  A    between atoms: C_16  and  C_17
REMARK    5  A    between atoms: C_17  and  C_18
REMARK    6  A    between atoms: C_18  and  N_19
REMARK                            x       y       z     vdW  Elec       q    Type
REMARK                         _______ _______ _______ _____ _____    ______ ____
ROOT
ATOM      1  C   UNL     1      47.943   9.885  12.896  0.00  0.00    +0.000 C 
ATOM      2  C   UNL     1      48.211   8.427  13.337  0.00  0.00    +0.000 C 
ATOM      3  C   UNL     1      48.349   8.426  14.853  0.00  0.00    +0.000 C 
ATOM      4  C   UNL     1      49.589   8.069  15.218  0.00  0.00    +0.000 C 
ATOM      5  C   UNL     1      50.378   7.797  14.044  0.00  0.00    +0.000 C 
ATOM      6  C   UNL     1      49.644   8.005  12.937  0.00  0.00    +0.000 C 
ENDROOT
BRANCH   2   7
ATOM      7  C   UNL     1      47.131   7.424  12.895  0.00  0.00    +0.000 A 
ATOM      8  C   UNL     1      47.186   6.066  13.291  0.00  0.00    +0.000 A 
ATOM      9  C   UNL     1      46.254   5.123  12.826  0.00  0.00    +0.000 A 
ATOM     10  C   UNL     1      45.193   5.547  12.016  0.00  0.00    +0.000 A 
ATOM     11  C   UNL     1      45.080   6.886  11.672  0.00  0.00    +0.000 A 
ATOM     12  C   UNL     1      46.035   7.807  12.105  0.00  0.00    +0.000 A 
ATOM     13  F   UNL     1      45.861   9.083  11.740  0.00  0.00    +0.000 F 
BRANCH   9  14
ATOM     14  C   UNL     1      46.358   3.677  13.148  0.00  0.00    +0.000 C 
ATOM     15  N   UNL     1      45.441   2.840  12.572  0.00  0.00    +0.000 N 
ATOM     16  O   UNL     1      47.188   3.247  13.938  0.00  0.00    +0.000 OA
ATOM     17  H   UNL     1      44.617   3.170  12.091  0.00  0.00    +0.000 HD
ATOM     18  H   UNL     1      45.449   1.880  12.891  0.00  0.00    +0.000 HD
ENDBRANCH   9  14
ENDBRANCH   2   7
BRANCH   6  19
ATOM     19  C   UNL     1      50.103   7.756  11.525  0.00  0.00    +0.000 C 
BRANCH  19  20
ATOM     20  C   UNL     1      51.192   8.723  11.030  0.00  0.00    +0.000 C 
BRANCH  20  21
ATOM     21  N   UNL     1      52.573   8.197  11.024  0.00  0.00    +0.000 NA
ATOM     22  C   UNL     1      53.516   9.208  10.499  0.00  0.00    +0.000 C 
ATOM     23  C   UNL     1      53.384   9.467   8.996  0.00  0.00    +0.000 C 
ATOM     24  C   UNL     1      53.380   8.168   8.213  0.00  0.00    +0.000 C 
ATOM     25  F   UNL     1      53.038   8.420   6.924  0.00  0.00    +0.000 F 
ATOM     26  F   UNL     1      54.645   7.667   8.178  0.00  0.00    +0.000 F 
ATOM     27  C   UNL     1      52.454   7.112   8.780  0.00  0.00    +0.000 C 
ATOM     28  C   UNL     1      52.736   6.944  10.267  0.00  0.00    +0.000 C 
ENDBRANCH  20  21
ENDBRANCH  19  20
ENDBRANCH   6  19
TORSDOF 5
ENDMDL
