MODEL 1
REMARK VINA RESULT:    -6.977      0.000      0.000
REMARK INTER + INTRA:          -8.587
REMARK INTER:                  -8.200
REMARK INTRA:                  -0.387
REMARK UNBOUND:                -0.387
REMARK  Name = 
REMARK  4 active torsions:
REMARK  status: ('A' for Active; 'I' for Inactive)
REMARK    1  A    between atoms: C_1  and  C_2
REMARK    2  A    between atoms: C_2  and  N_3
REMARK    3  A    between atoms: C_2  and  C_13
REMARK    4  A    between atoms: C_7  and  C_8
REMARK                            x       y       z     vdW  Elec       q    Type
REMARK                         _______ _______ _______ _____ _____    ______ ____
ROOT
ATOM      1  N   UNL     1      45.332   3.847  12.372  0.00  0.00    +0.000 N 
ATOM      2  C   UNL     1      46.244   4.688  13.041  0.00  0.00    +0.000 A 
ATOM      3  C   UNL     1      46.611   4.391  14.365  0.00  0.00    +0.000 A 
ATOM      4  N   UNL     1      47.498   5.114  15.109  0.00  0.00    +0.000 NA
ATOM      5  C   UNL     1      48.057   6.160  14.447  0.00  0.00    +0.000 A 
ATOM      6  C   UNL     1      47.743   6.443  13.125  0.00  0.00    +0.000 A 
ATOM      7  N   UNL     1      46.832   5.722  12.405  0.00  0.00    +0.000 NA
ATOM      8  H   UNL     1      45.876   3.060  12.017  0.00  0.00    +0.000 HD
ENDROOT
BRANCH   5   9
ATOM      9  C   UNL     1      49.024   7.023  15.184  0.00  0.00    +0.000 C 
ATOM     10  N   UNL     1      48.501   7.898  16.099  0.00  0.00    +0.000 N 
ATOM     11  O   UNL     1      50.232   6.962  14.980  0.00  0.00    +0.000 OA
ATOM     12  H   UNL     1      47.497   7.956  16.238  0.00  0.00    +0.000 HD
ATOM     13  H   UNL     1      49.116   8.515  16.603  0.00  0.00    +0.000 HD
ENDBRANCH   5   9
BRANCH   1  15
ATOM     14  C   UNL     1      43.066   4.171  11.433  0.00  0.00    +0.000 C 
ATOM     15  C   UNL     1      44.568   4.457  11.273  0.00  0.00    +0.000 C 
BRANCH  15  16
ATOM     16  C   UNL     1      45.048   3.898   9.927  0.00  0.00    +0.000 A 
ATOM     17  C   UNL     1      45.570   4.722   8.911  0.00  0.00    +0.000 A 
ATOM     18  C   UNL     1      46.118   4.173   7.742  0.00  0.00    +0.000 A 
ATOM     19  C   UNL     1      46.150   2.792   7.568  0.00  0.00    +0.000 A 
ATOM     20  C   UNL     1      45.614   1.974   8.552  0.00  0.00    +0.000 A 
ATOM     21  F   UNL     1      45.647   0.644   8.390  0.00  0.00    +0.000 F 
ATOM     22  C   UNL     1      45.062   2.508   9.716  0.00  0.00    +0.000 A 
ENDBRANCH  15  16
ENDBRANCH   1  15
TORSDOF 3
ENDMDL
MODEL 2
REMARK VINA RESULT:    -6.958      1.414      2.173
REMARK INTER + INTRA:          -8.565
REMARK INTER:                  -9.711
REMARK INTRA:                   1.146
REMARK UNBOUND:                -0.387
REMARK  Name = 
REMARK  4 active torsions:
REMARK  status: ('A' for Active; 'I' for Inactive)
REMARK    1  A    between atoms: C_1  and  C_2
REMARK    2  A    between atoms: C_2  and  N_3
REMARK    3  A    between atoms: C_2  and  C_13
REMARK    4  A    between atoms: C_7  and  C_8
REMARK                            x       y       z     vdW  Elec       q    Type
REMARK                         _______ _______ _______ _____ _____    ______ ____
ROOT
ATOM      1  N   UNL     1      44.635   5.149   9.946  0.00  0.00    +0.000 N 
ATOM      2  C   UNL     1      45.379   5.169  11.143  0.00  0.00    +0.000 A 
ATOM      3  C   UNL     1      46.292   6.214  11.369  0.00  0.00    +0.000 A 
ATOM      4  N   UNL     1      47.052   6.355  12.494  0.00  0.00    +0.000 NA
ATOM      5  C   UNL     1      46.831   5.405  13.438  0.00  0.00    +0.000 A 
ATOM      6  C   UNL     1      45.900   4.391  13.254  0.00  0.00    +0.000 A 
ATOM      7  N   UNL     1      45.168   4.251  12.109  0.00  0.00    +0.000 NA
ATOM      8  H   UNL     1      43.843   5.775  10.091  0.00  0.00    +0.000 HD
ENDROOT
BRANCH   5   9
ATOM      9  C   UNL     1      47.630   5.463  14.695  0.00  0.00    +0.000 C 
ATOM     10  N   UNL     1      47.171   4.727  15.756  0.00  0.00    +0.000 N 
ATOM     11  O   UNL     1      48.647   6.143  14.785  0.00  0.00    +0.000 OA
ATOM     12  H   UNL     1      46.313   4.191  15.675  0.00  0.00    +0.000 HD
ATOM     13  H   UNL     1      47.668   4.755  16.631  0.00  0.00    +0.000 HD
ENDBRANCH   5   9
BRANCH   1  15
ATOM     14  C   UNL     1      43.886   2.917  10.706  0.00  0.00    +0.000 C 
ATOM     15  C   UNL     1      44.152   3.832   9.501  0.00  0.00    +0.000 C 
BRANCH  15  16
ATOM     16  C   UNL     1      45.192   3.175   8.585  0.00  0.00    +0.000 A 
ATOM     17  C   UNL     1      46.031   3.924   7.736  0.00  0.00    +0.000 A 
ATOM     18  C   UNL     1      47.057   3.309   7.004  0.00  0.00    +0.000 A 
ATOM     19  C   UNL     1      47.261   1.935   7.106  0.00  0.00    +0.000 A 
ATOM     20  C   UNL     1      46.423   1.186   7.920  0.00  0.00    +0.000 A 
ATOM     21  F   UNL     1      46.619  -0.135   8.024  0.00  0.00    +0.000 F 
ATOM     22  C   UNL     1      45.396   1.786   8.648  0.00  0.00    +0.000 A 
ENDBRANCH  15  16
ENDBRANCH   1  15
TORSDOF 3
ENDMDL
MODEL 3
REMARK VINA RESULT:    -6.374      3.855      6.121
REMARK INTER + INTRA:          -7.878
REMARK INTER:                  -8.545
REMARK INTRA:                   0.667
REMARK UNBOUND:                -0.387
REMARK  Name = 
REMARK  4 active torsions:
REMARK  status: ('A' for Active; 'I' for Inactive)
REMARK    1  A    between atoms: C_1  and  C_2
REMARK    2  A    between atoms: C_2  and  N_3
REMARK    3  A    between atoms: C_2  and  C_13
REMARK    4  A    between atoms: C_7  and  C_8
REMARK                            x       y       z     vdW  Elec       q    Type
REMARK                         _______ _______ _______ _____ _____    ______ ____
ROOT
ATOM      1  N   UNL     1      43.390   3.515  11.103  0.00  0.00    +0.000 N 
ATOM      2  C   UNL     1      44.341   3.398  10.069  0.00  0.00    +0.000 A 
ATOM      3  C   UNL     1      44.726   2.120   9.627  0.00  0.00    +0.000 A 
ATOM      4  N   UNL     1      45.618   1.879   8.623  0.00  0.00    +0.000 NA
ATOM      5  C   UNL     1      46.100   2.998   8.025  0.00  0.00    +0.000 A 
ATOM      6  C   UNL     1      45.697   4.269   8.415  0.00  0.00    +0.000 A 
ATOM      7  N   UNL     1      44.823   4.491   9.441  0.00  0.00    +0.000 NA
ATOM      8  H   UNL     1      42.476   3.420  10.663  0.00  0.00    +0.000 HD
ENDROOT
BRANCH   5   9
ATOM      9  C   UNL     1      47.097   2.837   6.929  0.00  0.00    +0.000 C 
ATOM     10  N   UNL     1      46.972   3.671   5.849  0.00  0.00    +0.000 N 
ATOM     11  O   UNL     1      47.986   1.993   6.981  0.00  0.00    +0.000 OA
ATOM     12  H   UNL     1      46.215   4.346   5.807  0.00  0.00    +0.000 HD
ATOM     13  H   UNL     1      47.611   3.581   5.076  0.00  0.00    +0.000 HD
ENDBRANCH   5   9
BRANCH   1  15
ATOM     14  C   UNL     1      42.998   5.956  11.040  0.00  0.00    +0.000 C 
ATOM     15  C   UNL     1      43.434   4.755  11.893  0.00  0.00    +0.000 C 
BRANCH  15  16
ATOM     16  C   UNL     1      44.857   4.994  12.413  0.00  0.00    +0.000 A 
ATOM     17  C   UNL     1      45.503   6.242  12.299  0.00  0.00    +0.000 A 
ATOM     18  C   UNL     1      46.752   6.470  12.895  0.00  0.00    +0.000 A 
ATOM     19  C   UNL     1      47.379   5.454  13.612  0.00  0.00    +0.000 A 
ATOM     20  C   UNL     1      46.763   4.214  13.707  0.00  0.00    +0.000 A 
ATOM     21  F   UNL     1      47.361   3.235  14.400  0.00  0.00    +0.000 F 
ATOM     22  C   UNL     1      45.523   3.974  13.114  0.00  0.00    +0.000 A 
ENDBRANCH  15  16
ENDBRANCH   1  15
TORSDOF 3
ENDMDL
MODEL 4
REMARK VINA RESULT:    -6.278      4.229      7.491
REMARK INTER + INTRA:          -7.765
REMARK INTER:                  -7.367
REMARK INTRA:                  -0.399
REMARK UNBOUND:                -0.387
REMARK  Name = 
REMARK  4 active torsions:
REMARK  status: ('A' for Active; 'I' for Inactive)
REMARK    1  A    between atoms: C_1  and  C_2
REMARK    2  A    between atoms: C_2  and  N_3
REMARK    3  A    between atoms: C_2  and  C_13
REMARK    4  A    between atoms: C_7  and  C_8
REMARK                            x       y       z     vdW  Elec       q    Type
REMARK                         _______ _______ _______ _____ _____    ______ ____
ROOT
ATOM      1  N   UNL     1      47.642   5.166  15.547  0.00  0.00    +0.000 N 
ATOM      2  C   UNL     1      46.875   4.775  14.431  0.00  0.00    +0.000 A 
ATOM      3  C   UNL     1      46.344   5.761  13.581  0.00  0.00    +0.000 A 
ATOM      4  N   UNL     1      45.606   5.509  12.461  0.00  0.00    +0.000 NA
ATOM      5  C   UNL     1      45.443   4.190  12.186  0.00  0.00    +0.000 A 
ATOM      6  C   UNL     1      45.998   3.200  12.987  0.00  0.00    +0.000 A 
ATOM      7  N   UNL     1      46.712   3.472  14.119  0.00  0.00    +0.000 NA
ATOM      8  H   UNL     1      48.585   5.337  15.200  0.00  0.00    +0.000 HD
ENDROOT
BRANCH   5   9
ATOM      9  C   UNL     1      44.633   3.814  10.992  0.00  0.00    +0.000 C 
ATOM     10  N   UNL     1      44.745   2.523  10.549  0.00  0.00    +0.000 N 
ATOM     11  O   UNL     1      43.904   4.621  10.424  0.00  0.00    +0.000 OA
ATOM     12  H   UNL     1      45.372   1.874  11.012  0.00  0.00    +0.000 HD
ATOM     13  H   UNL     1      44.232   2.232   9.733  0.00  0.00    +0.000 HD
ENDBRANCH   5   9
BRANCH   1  15
ATOM     14  C   UNL     1      47.061   4.830  17.928  0.00  0.00    +0.000 C 
ATOM     15  C   UNL     1      47.692   4.215  16.669  0.00  0.00    +0.000 C 
BRANCH  15  16
ATOM     16  C   UNL     1      49.147   3.833  16.968  0.00  0.00    +0.000 A 
ATOM     17  C   UNL     1      50.131   4.794  17.277  0.00  0.00    +0.000 A 
ATOM     18  C   UNL     1      51.421   4.409  17.670  0.00  0.00    +0.000 A 
ATOM     19  C   UNL     1      51.752   3.058  17.757  0.00  0.00    +0.000 A 
ATOM     20  C   UNL     1      50.797   2.107  17.427  0.00  0.00    +0.000 A 
ATOM     21  F   UNL     1      51.109   0.807  17.514  0.00  0.00    +0.000 F 
ATOM     22  C   UNL     1      49.512   2.477  17.031  0.00  0.00    +0.000 A 
ENDBRANCH  15  16
ENDBRANCH   1  15
TORSDOF 3
ENDMDL
MODEL 5
REMARK VINA RESULT:    -5.948      1.893      2.243
REMARK INTER + INTRA:          -7.378
REMARK INTER:                  -6.994
REMARK INTRA:                  -0.384
REMARK UNBOUND:                -0.387
REMARK  Name = 
REMARK  4 active torsions:
REMARK  status: ('A' for Active; 'I' for Inactive)
REMARK    1  A    between atoms: C_1  and  C_2
REMARK    2  A    between atoms: C_2  and  N_3
REMARK    3  A    between atoms: C_2  and  C_13
REMARK    4  A    between atoms: C_7  and  C_8
REMARK                            x       y       z     vdW  Elec       q    Type
REMARK                         _______ _______ _______ _____ _____    ______ ____
ROOT
ATOM      1  N   UNL     1      45.470   5.201  12.290  0.00  0.00    +0.000 N 
ATOM      2  C   UNL     1      46.565   6.060  12.514  0.00  0.00    +0.000 A 
ATOM      3  C   UNL     1      47.029   6.257  13.826  0.00  0.00    +0.000 A 
ATOM      4  N   UNL     1      48.090   7.044  14.167  0.00  0.00    +0.000 NA
ATOM      5  C   UNL     1      48.720   7.618  13.111  0.00  0.00    +0.000 A 
ATOM      6  C   UNL     1      48.306   7.401  11.803  0.00  0.00    +0.000 A 
ATOM      7  N   UNL     1      47.224   6.630  11.483  0.00  0.00    +0.000 NA
ATOM      8  H   UNL     1      45.848   4.255  12.270  0.00  0.00    +0.000 HD
ENDROOT
BRANCH   5   9
ATOM      9  C   UNL     1      49.880   8.514  13.385  0.00  0.00    +0.000 C 
ATOM     10  N   UNL     1      51.129   8.001  13.149  0.00  0.00    +0.000 N 
ATOM     11  O   UNL     1      49.731   9.655  13.810  0.00  0.00    +0.000 OA
ATOM     12  H   UNL     1      51.238   7.046  12.822  0.00  0.00    +0.000 HD
ATOM     13  H   UNL     1      51.941   8.564  13.341  0.00  0.00    +0.000 HD
ENDBRANCH   5   9
BRANCH   1  15
ATOM     14  C   UNL     1      43.181   5.451  11.384  0.00  0.00    +0.000 C 
ATOM     15  C   UNL     1      44.686   5.448  11.070  0.00  0.00    +0.000 C 
BRANCH  15  16
ATOM     16  C   UNL     1      44.983   4.363  10.028  0.00  0.00    +0.000 A 
ATOM     17  C   UNL     1      44.495   3.046  10.149  0.00  0.00    +0.000 A 
ATOM     18  C   UNL     1      44.674   2.108   9.122  0.00  0.00    +0.000 A 
ATOM     19  C   UNL     1      45.347   2.469   7.957  0.00  0.00    +0.000 A 
ATOM     20  C   UNL     1      45.855   3.756   7.840  0.00  0.00    +0.000 A 
ATOM     21  F   UNL     1      46.499   4.108   6.719  0.00  0.00    +0.000 F 
ATOM     22  C   UNL     1      45.686   4.695   8.857  0.00  0.00    +0.000 A 
ENDBRANCH  15  16
ENDBRANCH   1  15
TORSDOF 3
ENDMDL
MODEL 6
REMARK VINA RESULT:    -5.595      1.985      2.488
REMARK INTER + INTRA:          -6.963
REMARK INTER:                  -6.606
REMARK INTRA:                  -0.357
REMARK UNBOUND:                -0.387
REMARK  Name = 
REMARK  4 active torsions:
REMARK  status: ('A' for Active; 'I' for Inactive)
REMARK    1  A    between atoms: C_1  and  C_2
REMARK    2  A    between atoms: C_2  and  N_3
REMARK    3  A    between atoms: C_2  and  C_13
REMARK    4  A    between atoms: C_7  and  C_8
REMARK                            x       y       z     vdW  Elec       q    Type
REMARK                         _______ _______ _______ _____ _____    ______ ____
ROOT
ATOM      1  N   UNL     1      46.616   5.804  12.502  0.00  0.00    +0.000 N 
ATOM      2  C   UNL     1      47.784   6.470  12.925  0.00  0.00    +0.000 A 
ATOM      3  C   UNL     1      48.181   6.377  14.271  0.00  0.00    +0.000 A 
ATOM      4  N   UNL     1      49.300   6.956  14.795  0.00  0.00    +0.000 NA
ATOM      5  C   UNL     1      50.059   7.623  13.888  0.00  0.00    +0.000 A 
ATOM      6  C   UNL     1      49.709   7.687  12.546  0.00  0.00    +0.000 A 
ATOM      7  N   UNL     1      48.571   7.123  12.044  0.00  0.00    +0.000 NA
ATOM      8  H   UNL     1      46.885   4.836  12.329  0.00  0.00    +0.000 HD
ENDROOT
BRANCH   5   9
ATOM      9  C   UNL     1      51.293   8.307  14.370  0.00  0.00    +0.000 C 
ATOM     10  N   UNL     1      51.243   8.865  15.621  0.00  0.00    +0.000 N 
ATOM     11  O   UNL     1      52.305   8.379  13.681  0.00  0.00    +0.000 OA
ATOM     12  H   UNL     1      50.391   8.821  16.169  0.00  0.00    +0.000 HD
ATOM     13  H   UNL     1      52.047   9.356  15.977  0.00  0.00    +0.000 HD
ENDBRANCH   5   9
BRANCH   1  15
ATOM     14  C   UNL     1      44.808   7.300  11.720  0.00  0.00    +0.000 C 
ATOM     15  C   UNL     1      45.947   6.353  11.312  0.00  0.00    +0.000 C 
BRANCH  15  16
ATOM     16  C   UNL     1      45.376   5.213  10.460  0.00  0.00    +0.000 A 
ATOM     17  C   UNL     1      45.694   5.059   9.095  0.00  0.00    +0.000 A 
ATOM     18  C   UNL     1      45.260   3.939   8.371  0.00  0.00    +0.000 A 
ATOM     19  C   UNL     1      44.499   2.955   8.998  0.00  0.00    +0.000 A 
ATOM     20  C   UNL     1      44.159   3.111  10.334  0.00  0.00    +0.000 A 
ATOM     21  F   UNL     1      43.431   2.164  10.941  0.00  0.00    +0.000 F 
ATOM     22  C   UNL     1      44.581   4.224  11.063  0.00  0.00    +0.000 A 
ENDBRANCH  15  16
ENDBRANCH   1  15
TORSDOF 3
ENDMDL
MODEL 7
REMARK VINA RESULT:    -5.567      4.866      7.132
REMARK INTER + INTRA:          -6.930
REMARK INTER:                  -6.536
REMARK INTRA:                  -0.395
REMARK UNBOUND:                -0.387
REMARK  Name = 
REMARK  4 active torsions:
REMARK  status: ('A' for Active; 'I' for Inactive)
REMARK    1  A    between atoms: C_1  and  C_2
REMARK    2  A    between atoms: C_2  and  N_3
REMARK    3  A    between atoms: C_2  and  C_13
REMARK    4  A    between atoms: C_7  and  C_8
REMARK                            x       y       z     vdW  Elec       q    Type
REMARK                         _______ _______ _______ _____ _____    ______ ____
ROOT
ATOM      1  N   UNL     1      44.489   5.733  10.626  0.00  0.00    +0.000 N 
ATOM      2  C   UNL     1      45.132   4.993   9.613  0.00  0.00    +0.000 A 
ATOM      3  C   UNL     1      44.553   3.793   9.164  0.00  0.00    +0.000 A 
ATOM      4  N   UNL     1      45.067   3.001   8.179  0.00  0.00    +0.000 NA
ATOM      5  C   UNL     1      46.198   3.487   7.606  0.00  0.00    +0.000 A 
ATOM      6  C   UNL     1      46.760   4.694   8.004  0.00  0.00    +0.000 A 
ATOM      7  N   UNL     1      46.246   5.459   9.011  0.00  0.00    +0.000 NA
ATOM      8  H   UNL     1      43.767   6.284  10.163  0.00  0.00    +0.000 HD
ENDROOT
BRANCH   5   9
ATOM      9  C   UNL     1      46.846   2.682   6.532  0.00  0.00    +0.000 C 
ATOM     10  N   UNL     1      47.880   1.866   6.908  0.00  0.00    +0.000 N 
ATOM     11  O   UNL     1      46.480   2.748   5.363  0.00  0.00    +0.000 OA
ATOM     12  H   UNL     1      48.189   1.841   7.873  0.00  0.00    +0.000 HD
ATOM     13  H   UNL     1      48.360   1.320   6.210  0.00  0.00    +0.000 HD
ENDBRANCH   5   9
BRANCH   1  15
ATOM     14  C   UNL     1      45.466   6.087  12.871  0.00  0.00    +0.000 C 
ATOM     15  C   UNL     1      45.346   6.615  11.433  0.00  0.00    +0.000 C 
BRANCH  15  16
ATOM     16  C   UNL     1      44.759   8.032  11.462  0.00  0.00    +0.000 A 
ATOM     17  C   UNL     1      45.472   9.134  11.977  0.00  0.00    +0.000 A 
ATOM     18  C   UNL     1      44.964  10.437  11.875  0.00  0.00    +0.000 A 
ATOM     19  C   UNL     1      43.734  10.662  11.261  0.00  0.00    +0.000 A 
ATOM     20  C   UNL     1      43.013   9.580  10.776  0.00  0.00    +0.000 A 
ATOM     21  F   UNL     1      41.832   9.792  10.180  0.00  0.00    +0.000 F 
ATOM     22  C   UNL     1      43.506   8.279  10.875  0.00  0.00    +0.000 A 
ENDBRANCH  15  16
ENDBRANCH   1  15
TORSDOF 3
ENDMDL
MODEL 8
REMARK VINA RESULT:    -5.524      3.256      4.790
REMARK INTER + INTRA:          -6.880
REMARK INTER:                  -6.459
REMARK INTRA:                  -0.420
REMARK UNBOUND:                -0.387
REMARK  Name = 
REMARK  4 active torsions:
REMARK  status: ('A' for Active; 'I' for Inactive)
REMARK    1  A    between atoms: C_1  and  C_2
REMARK    2  A    between atoms: C_2  and  N_3
REMARK    3  A    between atoms: C_2  and  C_13
REMARK    4  A    between atoms: C_7  and  C_8
REMARK                            x       y       z     vdW  Elec       q    Type
REMARK                         _______ _______ _______ _____ _____    ______ ____
ROOT
ATOM      1  N   UNL     1      47.992   7.014  14.696  0.00  0.00    +0.000 N 
ATOM      2  C   UNL     1      48.377   6.348  15.877  0.00  0.00    +0.000 A 
ATOM      3  C   UNL     1      48.762   7.102  17.000  0.00  0.00    +0.000 A 
ATOM      4  N   UNL     1      49.134   6.575  18.202  0.00  0.00    +0.000 NA
ATOM      5  C   UNL     1      49.066   5.220  18.261  0.00  0.00    +0.000 A 
ATOM      6  C   UNL     1      48.644   4.459  17.179  0.00  0.00    +0.000 A 
ATOM      7  N   UNL     1      48.301   5.004  15.974  0.00  0.00    +0.000 NA
ATOM      8  H   UNL     1      47.015   7.278  14.822  0.00  0.00    +0.000 HD
ENDROOT
BRANCH   5   9
ATOM      9  C   UNL     1      49.473   4.549  19.529  0.00  0.00    +0.000 C 
ATOM     10  N   UNL     1      48.625   3.594  20.024  0.00  0.00    +0.000 N 
ATOM     11  O   UNL     1      50.512   4.841  20.111  0.00  0.00    +0.000 OA
ATOM     12  H   UNL     1      47.755   3.382  19.546  0.00  0.00    +0.000 HD
ATOM     13  H   UNL     1      48.850   3.132  20.890  0.00  0.00    +0.000 HD
ENDBRANCH   5   9
BRANCH   1  15
ATOM     14  C   UNL     1      49.063   7.012  12.466  0.00  0.00    +0.000 C 
ATOM     15  C   UNL     1      48.144   6.260  13.442  0.00  0.00    +0.000 C 
BRANCH  15  16
ATOM     16  C   UNL     1      46.773   6.051  12.787  0.00  0.00    +0.000 A 
ATOM     17  C   UNL     1      46.437   6.619  11.542  0.00  0.00    +0.000 A 
ATOM     18  C   UNL     1      45.226   6.309  10.906  0.00  0.00    +0.000 A 
ATOM     19  C   UNL     1      44.328   5.429  11.506  0.00  0.00    +0.000 A 
ATOM     20  C   UNL     1      44.639   4.886  12.745  0.00  0.00    +0.000 A 
ATOM     21  F   UNL     1      43.780   4.035  13.323  0.00  0.00    +0.000 F 
ATOM     22  C   UNL     1      45.839   5.191  13.388  0.00  0.00    +0.000 A 
ENDBRANCH  15  16
ENDBRANCH   1  15
TORSDOF 3
ENDMDL
MODEL 9
REMARK VINA RESULT:    -5.427      4.279      7.856
REMARK INTER + INTRA:          -6.766
REMARK INTER:                  -6.490
REMARK INTRA:                  -0.276
REMARK UNBOUND:                -0.387
REMARK  Name = 
REMARK  4 active torsions:
REMARK  status: ('A' for Active; 'I' for Inactive)
REMARK    1  A    between atoms: C_1  and  C_2
REMARK    2  A    between atoms: C_2  and  N_3
REMARK    3  A    between atoms: C_2  and  C_13
REMARK    4  A    between atoms: C_7  and  C_8
REMARK                            x       y       z     vdW  Elec       q    Type
REMARK                         _______ _______ _______ _____ _____    ______ ____
ROOT
ATOM      1  N   UNL     1      47.693   6.052  14.437  0.00  0.00    +0.000 N 
ATOM      2  C   UNL     1      46.828   5.347  13.575  0.00  0.00    +0.000 A 
ATOM      3  C   UNL     1      46.715   3.952  13.703  0.00  0.00    +0.000 A 
ATOM      4  N   UNL     1      45.899   3.164  12.944  0.00  0.00    +0.000 NA
ATOM      5  C   UNL     1      45.141   3.846  12.048  0.00  0.00    +0.000 A 
ATOM      6  C   UNL     1      45.204   5.229  11.938  0.00  0.00    +0.000 A 
ATOM      7  N   UNL     1      46.047   5.999  12.688  0.00  0.00    +0.000 NA
ATOM      8  H   UNL     1      47.175   6.199  15.303  0.00  0.00    +0.000 HD
ENDROOT
BRANCH   5   9
ATOM      9  C   UNL     1      44.232   3.068  11.159  0.00  0.00    +0.000 C 
ATOM     10  N   UNL     1      44.816   2.364  10.139  0.00  0.00    +0.000 N 
ATOM     11  O   UNL     1      43.016   3.062  11.323  0.00  0.00    +0.000 OA
ATOM     12  H   UNL     1      45.820   2.401   9.999  0.00  0.00    +0.000 HD
ATOM     13  H   UNL     1      44.237   1.843   9.501  0.00  0.00    +0.000 HD
ENDBRANCH   5   9
BRANCH   1  15
ATOM     14  C   UNL     1      49.268   7.117  12.854  0.00  0.00    +0.000 C 
ATOM     15  C   UNL     1      48.203   7.339  13.939  0.00  0.00    +0.000 C 
BRANCH  15  16
ATOM     16  C   UNL     1      48.817   8.141  15.094  0.00  0.00    +0.000 A 
ATOM     17  C   UNL     1      50.194   8.104  15.390  0.00  0.00    +0.000 A 
ATOM     18  C   UNL     1      50.748   8.942  16.369  0.00  0.00    +0.000 A 
ATOM     19  C   UNL     1      49.936   9.829  17.070  0.00  0.00    +0.000 A 
ATOM     20  C   UNL     1      48.574   9.854  16.804  0.00  0.00    +0.000 A 
ATOM     21  F   UNL     1      47.789  10.709  17.473  0.00  0.00    +0.000 F 
ATOM     22  C   UNL     1      48.011   9.021  15.836  0.00  0.00    +0.000 A 
ENDBRANCH  15  16
ENDBRANCH   1  15
TORSDOF 3
ENDMDL
