MODEL 1
REMARK VINA RESULT:    -8.120      0.000      0.000
REMARK INTER + INTRA:         -11.816
REMARK INTER:                 -10.968
REMARK INTRA:                  -0.848
REMARK UNBOUND:                -0.848
REMARK  Name = 
REMARK  6 active torsions:
REMARK  status: ('A' for Active; 'I' for Inactive)
REMARK    1  A    between atoms: C_2  and  C_4
REMARK    2  A    between atoms: C_7  and  N_8
REMARK    3  A    between atoms: N_8  and  C_9
REMARK    4  A    between atoms: C_9  and  C_10
REMARK    5  A    between atoms: C_13  and  O_14
REMARK    6  A    between atoms: O_14  and  C_15
REMARK                            x       y       z     vdW  Elec       q    Type
REMARK                         _______ _______ _______ _____ _____    ______ ____
ROOT
ATOM      1  C   UNL     1      43.915   5.035  11.332  0.00  0.00    +0.000 C 
ATOM      2  C   UNL     1      42.605   5.219  12.100  0.00  0.00    +0.000 C 
ATOM      3  C   UNL     1      42.941   6.151  10.993  0.00  0.00    +0.000 C 
ATOM      4  F   UNL     1      43.260   7.448  11.364  0.00  0.00    +0.000 F 
ENDROOT
BRANCH   1   5
ATOM      5  C   UNL     1      45.222   5.452  12.005  0.00  0.00    +0.000 A 
ATOM      6  C   UNL     1      45.673   4.806  13.168  0.00  0.00    +0.000 A 
ATOM      7  C   UNL     1      46.914   5.094  13.745  0.00  0.00    +0.000 A 
ATOM      8  C   UNL     1      47.763   6.014  13.142  0.00  0.00    +0.000 A 
ATOM      9  C   UNL     1      47.304   6.729  12.037  0.00  0.00    +0.000 A 
ATOM     10  C   UNL     1      46.048   6.457  11.478  0.00  0.00    +0.000 A 
BRANCH   8  11
ATOM     11  O   UNL     1      49.019   6.326  13.558  0.00  0.00    +0.000 OA
BRANCH  11  12
ATOM     12  C   UNL     1      49.191   7.050  14.771  0.00  0.00    +0.000 C 
ATOM     13  F   UNL     1      49.075   6.308  15.892  0.00  0.00    +0.000 F 
ATOM     14  F   UNL     1      50.426   7.601  14.772  0.00  0.00    +0.000 F 
ATOM     15  F   UNL     1      48.285   8.051  14.821  0.00  0.00    +0.000 F 
ENDBRANCH  11  12
ENDBRANCH   8  11
ENDBRANCH   1   5
BRANCH   1  16
ATOM     16  N   UNL     1      43.986   3.754  10.595  0.00  0.00    +0.000 N 
ATOM     17  H   UNL     1      43.776   2.931  11.159  0.00  0.00    +0.000 HD
BRANCH  16  21
ATOM     18  C   UNL     1      46.466   2.705   7.463  0.00  0.00    +0.000 A 
ATOM     19  N   UNL     1      46.158   4.020   7.564  0.00  0.00    +0.000 NA
ATOM     20  C   UNL     1      45.344   4.350   8.598  0.00  0.00    +0.000 A 
ATOM     21  C   UNL     1      44.869   3.460   9.545  0.00  0.00    +0.000 A 
ATOM     22  C   UNL     1      45.230   2.145   9.288  0.00  0.00    +0.000 A 
ATOM     23  N   UNL     1      46.026   1.734   8.280  0.00  0.00    +0.000 NA
BRANCH  18  25
ATOM     24  N   UNL     1      47.258   3.031   5.172  0.00  0.00    +0.000 N 
ATOM     25  C   UNL     1      47.389   2.309   6.332  0.00  0.00    +0.000 C 
ATOM     26  O   UNL     1      48.222   1.409   6.412  0.00  0.00    +0.000 OA
ATOM     27  H   UNL     1      47.859   2.817   4.388  0.00  0.00    +0.000 HD
ATOM     28  H   UNL     1      46.578   3.782   5.114  0.00  0.00    +0.000 HD
ENDBRANCH  18  25
ENDBRANCH  16  21
ENDBRANCH   1  16
TORSDOF 6
ENDMDL
MODEL 2
REMARK VINA RESULT:    -7.979      4.298      7.143
REMARK INTER + INTRA:         -11.626
REMARK INTER:                 -10.995
REMARK INTRA:                  -0.630
REMARK UNBOUND:                -0.848
REMARK  Name = 
REMARK  6 active torsions:
REMARK  status: ('A' for Active; 'I' for Inactive)
REMARK    1  A    between atoms: C_2  and  C_4
REMARK    2  A    between atoms: C_7  and  N_8
REMARK    3  A    between atoms: N_8  and  C_9
REMARK    4  A    between atoms: C_9  and  C_10
REMARK    5  A    between atoms: C_13  and  O_14
REMARK    6  A    between atoms: O_14  and  C_15
REMARK                            x       y       z     vdW  Elec       q    Type
REMARK                         _______ _______ _______ _____ _____    ______ ____
ROOT
ATOM      1  C   UNL     1      44.746   5.183  11.780  0.00  0.00    +0.000 C 
ATOM      2  C   UNL     1      43.518   6.095  11.816  0.00  0.00    +0.000 C 
ATOM      3  C   UNL     1      43.422   4.717  12.360  0.00  0.00    +0.000 C 
ATOM      4  F   UNL     1      42.652   3.825  11.629  0.00  0.00    +0.000 F 
ENDROOT
BRANCH   1   5
ATOM      5  C   UNL     1      45.160   4.568  10.445  0.00  0.00    +0.000 A 
ATOM      6  C   UNL     1      44.902   3.216  10.163  0.00  0.00    +0.000 A 
ATOM      7  C   UNL     1      45.175   2.652   8.911  0.00  0.00    +0.000 A 
ATOM      8  C   UNL     1      45.676   3.446   7.887  0.00  0.00    +0.000 A 
ATOM      9  C   UNL     1      46.020   4.768   8.168  0.00  0.00    +0.000 A 
ATOM     10  C   UNL     1      45.771   5.322   9.430  0.00  0.00    +0.000 A 
BRANCH   8  11
ATOM     11  O   UNL     1      45.912   3.040   6.611  0.00  0.00    +0.000 OA
BRANCH  11  12
ATOM     12  C   UNL     1      47.120   2.350   6.312  0.00  0.00    +0.000 C 
ATOM     13  F   UNL     1      48.162   2.669   7.108  0.00  0.00    +0.000 F 
ATOM     14  F   UNL     1      46.900   1.022   6.440  0.00  0.00    +0.000 F 
ATOM     15  F   UNL     1      47.465   2.596   5.030  0.00  0.00    +0.000 F 
ENDBRANCH  11  12
ENDBRANCH   8  11
ENDBRANCH   1   5
BRANCH   1  16
ATOM     16  N   UNL     1      45.871   5.685  12.600  0.00  0.00    +0.000 N 
ATOM     17  H   UNL     1      46.501   6.318  12.108  0.00  0.00    +0.000 HD
BRANCH  16  21
ATOM     18  C   UNL     1      47.899   3.462  15.429  0.00  0.00    +0.000 A 
ATOM     19  N   UNL     1      47.821   4.794  15.662  0.00  0.00    +0.000 NA
ATOM     20  C   UNL     1      47.150   5.511  14.725  0.00  0.00    +0.000 A 
ATOM     21  C   UNL     1      46.527   4.973  13.615  0.00  0.00    +0.000 A 
ATOM     22  C   UNL     1      46.728   3.605  13.484  0.00  0.00    +0.000 A 
ATOM     23  N   UNL     1      47.388   2.824  14.363  0.00  0.00    +0.000 NA
BRANCH  18  25
ATOM     24  N   UNL     1      48.376   2.963  17.775  0.00  0.00    +0.000 N 
ATOM     25  C   UNL     1      48.623   2.633  16.466  0.00  0.00    +0.000 C 
ATOM     26  O   UNL     1      49.386   1.709  16.193  0.00  0.00    +0.000 OA
ATOM     27  H   UNL     1      48.824   2.433  18.510  0.00  0.00    +0.000 HD
ATOM     28  H   UNL     1      47.736   3.719  17.997  0.00  0.00    +0.000 HD
ENDBRANCH  18  25
ENDBRANCH  16  21
ENDBRANCH   1  16
TORSDOF 6
ENDMDL
MODEL 3
REMARK VINA RESULT:    -7.858      1.790      2.013
REMARK INTER + INTRA:         -11.461
REMARK INTER:                 -10.868
REMARK INTRA:                  -0.593
REMARK UNBOUND:                -0.848
REMARK  Name = 
REMARK  6 active torsions:
REMARK  status: ('A' for Active; 'I' for Inactive)
REMARK    1  A    between atoms: C_2  and  C_4
REMARK    2  A    between atoms: C_7  and  N_8
REMARK    3  A    between atoms: N_8  and  C_9
REMARK    4  A    between atoms: C_9  and  C_10
REMARK    5  A    between atoms: C_13  and  O_14
REMARK    6  A    between atoms: O_14  and  C_15
REMARK                            x       y       z     vdW  Elec       q    Type
REMARK                         _______ _______ _______ _____ _____    ______ ____
ROOT
ATOM      1  C   UNL     1      43.888   4.954  11.412  0.00  0.00    +0.000 C 
ATOM      2  C   UNL     1      43.518   3.684  12.180  0.00  0.00    +0.000 C 
ATOM      3  C   UNL     1      42.657   4.887  12.298  0.00  0.00    +0.000 C 
ATOM      4  F   UNL     1      42.681   5.537  13.523  0.00  0.00    +0.000 F 
ENDROOT
BRANCH   1   5
ATOM      5  C   UNL     1      45.050   5.804  11.923  0.00  0.00    +0.000 A 
ATOM      6  C   UNL     1      46.162   5.209  12.543  0.00  0.00    +0.000 A 
ATOM      7  C   UNL     1      47.286   5.951  12.925  0.00  0.00    +0.000 A 
ATOM      8  C   UNL     1      47.344   7.312  12.652  0.00  0.00    +0.000 A 
ATOM      9  C   UNL     1      46.220   7.940  12.116  0.00  0.00    +0.000 A 
ATOM     10  C   UNL     1      45.086   7.199  11.761  0.00  0.00    +0.000 A 
BRANCH   8  11
ATOM     11  O   UNL     1      48.403   8.127  12.903  0.00  0.00    +0.000 OA
BRANCH  11  12
ATOM     12  C   UNL     1      49.236   8.538  11.824  0.00  0.00    +0.000 C 
ATOM     13  F   UNL     1      50.488   8.890  12.182  0.00  0.00    +0.000 F 
ATOM     14  F   UNL     1      49.335   7.517  10.943  0.00  0.00    +0.000 F 
ATOM     15  F   UNL     1      48.658   9.583  11.192  0.00  0.00    +0.000 F 
ENDBRANCH  11  12
ENDBRANCH   8  11
ENDBRANCH   1   5
BRANCH   1  16
ATOM     16  N   UNL     1      43.854   4.780   9.943  0.00  0.00    +0.000 N 
ATOM     17  H   UNL     1      42.919   4.665   9.554  0.00  0.00    +0.000 HD
BRANCH  16  21
ATOM     18  C   UNL     1      46.569   2.703   7.624  0.00  0.00    +0.000 A 
ATOM     19  N   UNL     1      46.611   4.053   7.526  0.00  0.00    +0.000 NA
ATOM     20  C   UNL     1      45.715   4.722   8.294  0.00  0.00    +0.000 A 
ATOM     21  C   UNL     1      44.828   4.127   9.173  0.00  0.00    +0.000 A 
ATOM     22  C   UNL     1      44.869   2.739   9.135  0.00  0.00    +0.000 A 
ATOM     23  N   UNL     1      45.721   2.001   8.394  0.00  0.00    +0.000 NA
BRANCH  18  25
ATOM     24  N   UNL     1      48.659   2.641   6.355  0.00  0.00    +0.000 N 
ATOM     25  C   UNL     1      47.570   1.930   6.795  0.00  0.00    +0.000 C 
ATOM     26  O   UNL     1      47.454   0.739   6.518  0.00  0.00    +0.000 OA
ATOM     27  H   UNL     1      49.366   2.171   5.807  0.00  0.00    +0.000 HD
ATOM     28  H   UNL     1      48.757   3.622   6.596  0.00  0.00    +0.000 HD
ENDBRANCH  18  25
ENDBRANCH  16  21
ENDBRANCH   1  16
TORSDOF 6
ENDMDL
MODEL 4
REMARK VINA RESULT:    -7.438      4.167      7.216
REMARK INTER + INTRA:         -10.895
REMARK INTER:                 -10.733
REMARK INTRA:                  -0.162
REMARK UNBOUND:                -0.848
REMARK  Name = 
REMARK  6 active torsions:
REMARK  status: ('A' for Active; 'I' for Inactive)
REMARK    1  A    between atoms: C_2  and  C_4
REMARK    2  A    between atoms: C_7  and  N_8
REMARK    3  A    between atoms: N_8  and  C_9
REMARK    4  A    between atoms: C_9  and  C_10
REMARK    5  A    between atoms: C_13  and  O_14
REMARK    6  A    between atoms: O_14  and  C_15
REMARK                            x       y       z     vdW  Elec       q    Type
REMARK                         _______ _______ _______ _____ _____    ______ ____
ROOT
ATOM      1  C   UNL     1      44.221   5.018  11.519  0.00  0.00    +0.000 C 
ATOM      2  C   UNL     1      42.705   5.008  11.719  0.00  0.00    +0.000 C 
ATOM      3  C   UNL     1      43.547   4.041  12.467  0.00  0.00    +0.000 C 
ATOM      4  F   UNL     1      43.435   2.712  12.085  0.00  0.00    +0.000 F 
ENDROOT
BRANCH   1   5
ATOM      5  C   UNL     1      44.792   4.433  10.229  0.00  0.00    +0.000 A 
ATOM      6  C   UNL     1      44.465   3.128   9.821  0.00  0.00    +0.000 A 
ATOM      7  C   UNL     1      44.888   2.605   8.594  0.00  0.00    +0.000 A 
ATOM      8  C   UNL     1      45.618   3.397   7.716  0.00  0.00    +0.000 A 
ATOM      9  C   UNL     1      46.026   4.663   8.134  0.00  0.00    +0.000 A 
ATOM     10  C   UNL     1      45.625   5.173   9.375  0.00  0.00    +0.000 A 
BRANCH   8  11
ATOM     11  O   UNL     1      46.022   3.034   6.470  0.00  0.00    +0.000 OA
BRANCH  11  12
ATOM     12  C   UNL     1      47.204   2.256   6.320  0.00  0.00    +0.000 C 
ATOM     13  F   UNL     1      48.156   2.494   7.247  0.00  0.00    +0.000 F 
ATOM     14  F   UNL     1      46.872   0.948   6.402  0.00  0.00    +0.000 F 
ATOM     15  F   UNL     1      47.729   2.479   5.095  0.00  0.00    +0.000 F 
ENDBRANCH  11  12
ENDBRANCH   8  11
ENDBRANCH   1   5
BRANCH   1  16
ATOM     16  N   UNL     1      44.861   6.279  11.957  0.00  0.00    +0.000 N 
ATOM     17  H   UNL     1      44.768   7.049  11.296  0.00  0.00    +0.000 HD
BRANCH  16  21
ATOM     18  C   UNL     1      48.217   6.753  14.318  0.00  0.00    +0.000 A 
ATOM     19  N   UNL     1      47.819   5.478  14.097  0.00  0.00    +0.000 NA
ATOM     20  C   UNL     1      46.716   5.337  13.319  0.00  0.00    +0.000 A 
ATOM     21  C   UNL     1      46.031   6.380  12.723  0.00  0.00    +0.000 A 
ATOM     22  C   UNL     1      46.526   7.630  13.073  0.00  0.00    +0.000 A 
ATOM     23  N   UNL     1      47.608   7.854  13.847  0.00  0.00    +0.000 NA
BRANCH  18  25
ATOM     24  N   UNL     1      50.566   7.405  14.506  0.00  0.00    +0.000 N 
ATOM     25  C   UNL     1      49.455   6.941  15.165  0.00  0.00    +0.000 C 
ATOM     26  O   UNL     1      49.500   6.711  16.371  0.00  0.00    +0.000 OA
ATOM     27  H   UNL     1      51.419   7.561  15.026  0.00  0.00    +0.000 HD
ATOM     28  H   UNL     1      50.522   7.606  13.512  0.00  0.00    +0.000 HD
ENDBRANCH  18  25
ENDBRANCH  16  21
ENDBRANCH   1  16
TORSDOF 6
ENDMDL
MODEL 5
REMARK VINA RESULT:    -6.848      4.427      7.214
REMARK INTER + INTRA:         -10.098
REMARK INTER:                  -9.693
REMARK INTRA:                  -0.406
REMARK UNBOUND:                -0.848
REMARK  Name = 
REMARK  6 active torsions:
REMARK  status: ('A' for Active; 'I' for Inactive)
REMARK    1  A    between atoms: C_2  and  C_4
REMARK    2  A    between atoms: C_7  and  N_8
REMARK    3  A    between atoms: N_8  and  C_9
REMARK    4  A    between atoms: C_9  and  C_10
REMARK    5  A    between atoms: C_13  and  O_14
REMARK    6  A    between atoms: O_14  and  C_15
REMARK                            x       y       z     vdW  Elec       q    Type
REMARK                         _______ _______ _______ _____ _____    ______ ____
ROOT
ATOM      1  C   UNL     1      44.606   5.104  12.218  0.00  0.00    +0.000 C 
ATOM      2  C   UNL     1      43.841   4.147  13.134  0.00  0.00    +0.000 C 
ATOM      3  C   UNL     1      45.317   4.254  13.257  0.00  0.00    +0.000 C 
ATOM      4  F   UNL     1      46.046   3.154  12.832  0.00  0.00    +0.000 F 
ENDROOT
BRANCH   1   5
ATOM      5  C   UNL     1      44.812   4.709  10.757  0.00  0.00    +0.000 A 
ATOM      6  C   UNL     1      45.687   5.434   9.930  0.00  0.00    +0.000 A 
ATOM      7  C   UNL     1      45.975   5.033   8.620  0.00  0.00    +0.000 A 
ATOM      8  C   UNL     1      45.425   3.861   8.116  0.00  0.00    +0.000 A 
ATOM      9  C   UNL     1      44.490   3.171   8.887  0.00  0.00    +0.000 A 
ATOM     10  C   UNL     1      44.182   3.591  10.187  0.00  0.00    +0.000 A 
BRANCH   8  11
ATOM     11  O   UNL     1      45.684   3.325   6.894  0.00  0.00    +0.000 OA
BRANCH  11  12
ATOM     12  C   UNL     1      46.838   2.510   6.721  0.00  0.00    +0.000 C 
ATOM     13  F   UNL     1      47.972   3.022   7.244  0.00  0.00    +0.000 F 
ATOM     14  F   UNL     1      46.616   1.317   7.316  0.00  0.00    +0.000 F 
ATOM     15  F   UNL     1      47.032   2.292   5.402  0.00  0.00    +0.000 F 
ENDBRANCH  11  12
ENDBRANCH   8  11
ENDBRANCH   1   5
BRANCH   1  16
ATOM     16  N   UNL     1      44.246   6.524  12.425  0.00  0.00    +0.000 N 
ATOM     17  H   UNL     1      43.321   6.779  12.078  0.00  0.00    +0.000 HD
BRANCH  16  21
ATOM     18  C   UNL     1      47.031   9.571  12.285  0.00  0.00    +0.000 A 
ATOM     19  N   UNL     1      45.820   9.845  11.744  0.00  0.00    +0.000 NA
ATOM     20  C   UNL     1      44.915   8.836  11.798  0.00  0.00    +0.000 A 
ATOM     21  C   UNL     1      45.136   7.608  12.394  0.00  0.00    +0.000 A 
ATOM     22  C   UNL     1      46.433   7.455  12.867  0.00  0.00    +0.000 A 
ATOM     23  N   UNL     1      47.392   8.403  12.842  0.00  0.00    +0.000 NA
BRANCH  18  25
ATOM     24  N   UNL     1      48.185  11.406  13.418  0.00  0.00    +0.000 N 
ATOM     25  C   UNL     1      48.055  10.684  12.258  0.00  0.00    +0.000 C 
ATOM     26  O   UNL     1      48.749  10.951  11.280  0.00  0.00    +0.000 OA
ATOM     27  H   UNL     1      48.864  12.154  13.460  0.00  0.00    +0.000 HD
ATOM     28  H   UNL     1      47.619  11.174  14.228  0.00  0.00    +0.000 HD
ENDBRANCH  18  25
ENDBRANCH  16  21
ENDBRANCH   1  16
TORSDOF 6
ENDMDL
MODEL 6
REMARK VINA RESULT:    -6.435      4.562      8.043
REMARK INTER + INTRA:          -9.540
REMARK INTER:                  -8.983
REMARK INTRA:                  -0.557
REMARK UNBOUND:                -0.848
REMARK  Name = 
REMARK  6 active torsions:
REMARK  status: ('A' for Active; 'I' for Inactive)
REMARK    1  A    between atoms: C_2  and  C_4
REMARK    2  A    between atoms: C_7  and  N_8
REMARK    3  A    between atoms: N_8  and  C_9
REMARK    4  A    between atoms: C_9  and  C_10
REMARK    5  A    between atoms: C_13  and  O_14
REMARK    6  A    between atoms: O_14  and  C_15
REMARK                            x       y       z     vdW  Elec       q    Type
REMARK                         _______ _______ _______ _____ _____    ______ ____
ROOT
ATOM      1  C   UNL     1      47.018   6.878  12.860  0.00  0.00    +0.000 C 
ATOM      2  C   UNL     1      47.404   8.195  12.184  0.00  0.00    +0.000 C 
ATOM      3  C   UNL     1      46.396   8.200  13.274  0.00  0.00    +0.000 C 
ATOM      4  F   UNL     1      45.089   8.469  12.895  0.00  0.00    +0.000 F 
ENDROOT
BRANCH   1   5
ATOM      5  C   UNL     1      46.114   5.906  12.104  0.00  0.00    +0.000 A 
ATOM      6  C   UNL     1      45.954   6.004  10.711  0.00  0.00    +0.000 A 
ATOM      7  C   UNL     1      45.217   5.065   9.980  0.00  0.00    +0.000 A 
ATOM      8  C   UNL     1      44.655   3.970  10.624  0.00  0.00    +0.000 A 
ATOM      9  C   UNL     1      44.727   3.898  12.014  0.00  0.00    +0.000 A 
ATOM     10  C   UNL     1      45.442   4.854  12.747  0.00  0.00    +0.000 A 
BRANCH   8  11
ATOM     11  O   UNL     1      43.983   2.954  10.020  0.00  0.00    +0.000 OA
BRANCH  11  12
ATOM     12  C   UNL     1      44.642   2.178   9.026  0.00  0.00    +0.000 C 
ATOM     13  F   UNL     1      44.165   0.924   8.882  0.00  0.00    +0.000 F 
ATOM     14  F   UNL     1      44.510   2.804   7.834  0.00  0.00    +0.000 F 
ATOM     15  F   UNL     1      45.959   2.108   9.319  0.00  0.00    +0.000 F 
ENDBRANCH  11  12
ENDBRANCH   8  11
ENDBRANCH   1   5
BRANCH   1  16
ATOM     16  N   UNL     1      48.143   6.238  13.578  0.00  0.00    +0.000 N 
ATOM     17  H   UNL     1      48.652   5.545  13.031  0.00  0.00    +0.000 HD
BRANCH  16  21
ATOM     18  C   UNL     1      48.283   5.195  17.573  0.00  0.00    +0.000 A 
ATOM     19  N   UNL     1      48.964   6.312  17.224  0.00  0.00    +0.000 NA
ATOM     20  C   UNL     1      48.908   6.644  15.909  0.00  0.00    +0.000 A 
ATOM     21  C   UNL     1      48.183   5.957  14.952  0.00  0.00    +0.000 A 
ATOM     22  C   UNL     1      47.573   4.812  15.445  0.00  0.00    +0.000 A 
ATOM     23  N   UNL     1      47.589   4.409  16.733  0.00  0.00    +0.000 NA
BRANCH  18  25
ATOM     24  N   UNL     1      48.377   3.467  19.301  0.00  0.00    +0.000 N 
ATOM     25  C   UNL     1      48.310   4.812  19.035  0.00  0.00    +0.000 C 
ATOM     26  O   UNL     1      48.282   5.625  19.956  0.00  0.00    +0.000 OA
ATOM     27  H   UNL     1      48.410   3.155  20.261  0.00  0.00    +0.000 HD
ATOM     28  H   UNL     1      48.412   2.799  18.538  0.00  0.00    +0.000 HD
ENDBRANCH  18  25
ENDBRANCH  16  21
ENDBRANCH   1  16
TORSDOF 6
ENDMDL
MODEL 7
REMARK VINA RESULT:    -6.356      4.213      7.358
REMARK INTER + INTRA:          -9.433
REMARK INTER:                  -9.136
REMARK INTRA:                  -0.297
REMARK UNBOUND:                -0.848
REMARK  Name = 
REMARK  6 active torsions:
REMARK  status: ('A' for Active; 'I' for Inactive)
REMARK    1  A    between atoms: C_2  and  C_4
REMARK    2  A    between atoms: C_7  and  N_8
REMARK    3  A    between atoms: N_8  and  C_9
REMARK    4  A    between atoms: C_9  and  C_10
REMARK    5  A    between atoms: C_13  and  O_14
REMARK    6  A    between atoms: O_14  and  C_15
REMARK                            x       y       z     vdW  Elec       q    Type
REMARK                         _______ _______ _______ _____ _____    ______ ____
ROOT
ATOM      1  C   UNL     1      46.772   7.611  12.663  0.00  0.00    +0.000 C 
ATOM      2  C   UNL     1      47.048   9.022  12.139  0.00  0.00    +0.000 C 
ATOM      3  C   UNL     1      46.047   8.825  13.217  0.00  0.00    +0.000 C 
ATOM      4  F   UNL     1      44.721   9.029  12.863  0.00  0.00    +0.000 F 
ENDROOT
BRANCH   1   5
ATOM      5  C   UNL     1      45.946   6.659  11.799  0.00  0.00    +0.000 A 
ATOM      6  C   UNL     1      46.368   6.309  10.505  0.00  0.00    +0.000 A 
ATOM      7  C   UNL     1      45.688   5.360   9.733  0.00  0.00    +0.000 A 
ATOM      8  C   UNL     1      44.585   4.699  10.259  0.00  0.00    +0.000 A 
ATOM      9  C   UNL     1      44.098   5.090  11.505  0.00  0.00    +0.000 A 
ATOM     10  C   UNL     1      44.764   6.060  12.264  0.00  0.00    +0.000 A 
BRANCH   8  11
ATOM     11  O   UNL     1      43.887   3.708   9.643  0.00  0.00    +0.000 OA
BRANCH  11  12
ATOM     12  C   UNL     1      44.594   2.663   8.985  0.00  0.00    +0.000 C 
ATOM     13  F   UNL     1      43.946   1.480   8.949  0.00  0.00    +0.000 F 
ATOM     14  F   UNL     1      44.828   3.040   7.708  0.00  0.00    +0.000 F 
ATOM     15  F   UNL     1      45.786   2.483   9.594  0.00  0.00    +0.000 F 
ENDBRANCH  11  12
ENDBRANCH   8  11
ENDBRANCH   1   5
BRANCH   1  16
ATOM     16  N   UNL     1      47.947   6.988  13.312  0.00  0.00    +0.000 N 
ATOM     17  H   UNL     1      48.770   6.918  12.715  0.00  0.00    +0.000 HD
BRANCH  16  21
ATOM     18  C   UNL     1      47.804   4.140  16.301  0.00  0.00    +0.000 A 
ATOM     19  N   UNL     1      47.128   3.846  15.164  0.00  0.00    +0.000 NA
ATOM     20  C   UNL     1      47.185   4.790  14.191  0.00  0.00    +0.000 A 
ATOM     21  C   UNL     1      47.906   5.967  14.274  0.00  0.00    +0.000 A 
ATOM     22  C   UNL     1      48.511   6.153  15.510  0.00  0.00    +0.000 A 
ATOM     23  N   UNL     1      48.494   5.270  16.529  0.00  0.00    +0.000 NA
BRANCH  18  25
ATOM     24  N   UNL     1      48.971   2.863  18.029  0.00  0.00    +0.000 N 
ATOM     25  C   UNL     1      47.776   3.098  17.396  0.00  0.00    +0.000 C 
ATOM     26  O   UNL     1      46.765   2.485  17.731  0.00  0.00    +0.000 OA
ATOM     27  H   UNL     1      49.007   2.185  18.778  0.00  0.00    +0.000 HD
ATOM     28  H   UNL     1      49.801   3.380  17.758  0.00  0.00    +0.000 HD
ENDBRANCH  18  25
ENDBRANCH  16  21
ENDBRANCH   1  16
TORSDOF 6
ENDMDL
MODEL 8
REMARK VINA RESULT:    -5.966      4.852      7.772
REMARK INTER + INTRA:          -8.906
REMARK INTER:                  -9.298
REMARK INTRA:                   0.393
REMARK UNBOUND:                -0.848
REMARK  Name = 
REMARK  6 active torsions:
REMARK  status: ('A' for Active; 'I' for Inactive)
REMARK    1  A    between atoms: C_2  and  C_4
REMARK    2  A    between atoms: C_7  and  N_8
REMARK    3  A    between atoms: N_8  and  C_9
REMARK    4  A    between atoms: C_9  and  C_10
REMARK    5  A    between atoms: C_13  and  O_14
REMARK    6  A    between atoms: O_14  and  C_15
REMARK                            x       y       z     vdW  Elec       q    Type
REMARK                         _______ _______ _______ _____ _____    ______ ____
ROOT
ATOM      1  C   UNL     1      46.937   5.813  13.837  0.00  0.00    +0.000 C 
ATOM      2  C   UNL     1      48.370   6.213  13.480  0.00  0.00    +0.000 C 
ATOM      3  C   UNL     1      47.334   7.265  13.635  0.00  0.00    +0.000 C 
ATOM      4  F   UNL     1      46.939   7.909  12.472  0.00  0.00    +0.000 F 
ENDROOT
BRANCH   1   5
ATOM      5  C   UNL     1      46.061   5.189  12.752  0.00  0.00    +0.000 A 
ATOM      6  C   UNL     1      45.718   5.911  11.597  0.00  0.00    +0.000 A 
ATOM      7  C   UNL     1      45.005   5.331  10.541  0.00  0.00    +0.000 A 
ATOM      8  C   UNL     1      44.654   3.988  10.597  0.00  0.00    +0.000 A 
ATOM      9  C   UNL     1      44.908   3.274  11.767  0.00  0.00    +0.000 A 
ATOM     10  C   UNL     1      45.597   3.866  12.834  0.00  0.00    +0.000 A 
BRANCH   8  11
ATOM     11  O   UNL     1      44.031   3.290   9.611  0.00  0.00    +0.000 OA
BRANCH  11  12
ATOM     12  C   UNL     1      44.814   2.552   8.679  0.00  0.00    +0.000 C 
ATOM     13  F   UNL     1      46.147   2.650   8.861  0.00  0.00    +0.000 F 
ATOM     14  F   UNL     1      44.483   1.245   8.778  0.00  0.00    +0.000 F 
ATOM     15  F   UNL     1      44.518   2.965   7.427  0.00  0.00    +0.000 F 
ENDBRANCH  11  12
ENDBRANCH   8  11
ENDBRANCH   1   5
BRANCH   1  16
ATOM     16  N   UNL     1      46.824   5.169  15.164  0.00  0.00    +0.000 N 
ATOM     17  H   UNL     1      46.214   5.658  15.819  0.00  0.00    +0.000 HD
BRANCH  16  21
ATOM     18  C   UNL     1      49.844   2.960  16.913  0.00  0.00    +0.000 A 
ATOM     19  N   UNL     1      49.856   4.291  17.165  0.00  0.00    +0.000 NA
ATOM     20  C   UNL     1      48.857   5.003  16.586  0.00  0.00    +0.000 A 
ATOM     21  C   UNL     1      47.841   4.461  15.821  0.00  0.00    +0.000 A 
ATOM     22  C   UNL     1      47.983   3.095  15.611  0.00  0.00    +0.000 A 
ATOM     23  N   UNL     1      48.950   2.319  16.142  0.00  0.00    +0.000 NA
BRANCH  18  25
ATOM     24  N   UNL     1      51.696   2.785  18.500  0.00  0.00    +0.000 N 
ATOM     25  C   UNL     1      50.934   2.136  17.562  0.00  0.00    +0.000 C 
ATOM     26  O   UNL     1      51.148   0.955  17.297  0.00  0.00    +0.000 OA
ATOM     27  H   UNL     1      52.431   2.278  18.975  0.00  0.00    +0.000 HD
ATOM     28  H   UNL     1      51.508   3.757  18.725  0.00  0.00    +0.000 HD
ENDBRANCH  18  25
ENDBRANCH  16  21
ENDBRANCH   1  16
TORSDOF 6
ENDMDL
MODEL 9
REMARK VINA RESULT:    -5.829      4.621      7.429
REMARK INTER + INTRA:          -8.722
REMARK INTER:                  -8.277
REMARK INTRA:                  -0.445
REMARK UNBOUND:                -0.848
REMARK  Name = 
REMARK  6 active torsions:
REMARK  status: ('A' for Active; 'I' for Inactive)
REMARK    1  A    between atoms: C_2  and  C_4
REMARK    2  A    between atoms: C_7  and  N_8
REMARK    3  A    between atoms: N_8  and  C_9
REMARK    4  A    between atoms: C_9  and  C_10
REMARK    5  A    between atoms: C_13  and  O_14
REMARK    6  A    between atoms: O_14  and  C_15
REMARK                            x       y       z     vdW  Elec       q    Type
REMARK                         _______ _______ _______ _____ _____    ______ ____
ROOT
ATOM      1  C   UNL     1      48.174   8.404  12.698  0.00  0.00    +0.000 C 
ATOM      2  C   UNL     1      48.929   9.259  11.679  0.00  0.00    +0.000 C 
ATOM      3  C   UNL     1      48.053   9.918  12.680  0.00  0.00    +0.000 C 
ATOM      4  F   UNL     1      46.887  10.487  12.191  0.00  0.00    +0.000 F 
ENDROOT
BRANCH   1   5
ATOM      5  C   UNL     1      46.952   7.617  12.229  0.00  0.00    +0.000 A 
ATOM      6  C   UNL     1      47.045   6.706  11.163  0.00  0.00    +0.000 A 
ATOM      7  C   UNL     1      45.970   5.896  10.780  0.00  0.00    +0.000 A 
ATOM      8  C   UNL     1      44.777   5.945  11.491  0.00  0.00    +0.000 A 
ATOM      9  C   UNL     1      44.632   6.899  12.497  0.00  0.00    +0.000 A 
ATOM     10  C   UNL     1      45.702   7.729  12.858  0.00  0.00    +0.000 A 
BRANCH   8  11
ATOM     11  O   UNL     1      43.690   5.160  11.270  0.00  0.00    +0.000 OA
BRANCH  11  12
ATOM     12  C   UNL     1      43.452   4.043  12.119  0.00  0.00    +0.000 C 
ATOM     13  F   UNL     1      42.776   4.331  13.251  0.00  0.00    +0.000 F 
ATOM     14  F   UNL     1      42.731   3.127  11.435  0.00  0.00    +0.000 F 
ATOM     15  F   UNL     1      44.634   3.482  12.454  0.00  0.00    +0.000 F 
ENDBRANCH  11  12
ENDBRANCH   8  11
ENDBRANCH   1   5
BRANCH   1  16
ATOM     16  N   UNL     1      49.068   7.661  13.614  0.00  0.00    +0.000 N 
ATOM     17  H   UNL     1      49.991   7.461  13.232  0.00  0.00    +0.000 HD
BRANCH  16  21
ATOM     18  C   UNL     1      47.814   4.983  16.498  0.00  0.00    +0.000 A 
ATOM     19  N   UNL     1      47.536   4.651  15.215  0.00  0.00    +0.000 NA
ATOM     20  C   UNL     1      47.955   5.539  14.279  0.00  0.00    +0.000 A 
ATOM     21  C   UNL     1      48.664   6.695  14.548  0.00  0.00    +0.000 A 
ATOM     22  C   UNL     1      48.838   6.926  15.906  0.00  0.00    +0.000 A 
ATOM     23  N   UNL     1      48.444   6.100  16.897  0.00  0.00    +0.000 NA
BRANCH  18  25
ATOM     24  N   UNL     1      47.765   4.299  18.846  0.00  0.00    +0.000 N 
ATOM     25  C   UNL     1      47.378   4.002  17.563  0.00  0.00    +0.000 C 
ATOM     26  O   UNL     1      46.713   2.995  17.334  0.00  0.00    +0.000 OA
ATOM     27  H   UNL     1      47.490   3.684  19.599  0.00  0.00    +0.000 HD
ATOM     28  H   UNL     1      48.304   5.139  19.033  0.00  0.00    +0.000 HD
ENDBRANCH  18  25
ENDBRANCH  16  21
ENDBRANCH   1  16
TORSDOF 6
ENDMDL
