MODEL 1
REMARK VINA RESULT:    -7.625      0.000      0.000
REMARK INTER + INTRA:         -12.434
REMARK INTER:                 -10.968
REMARK INTRA:                  -1.466
REMARK UNBOUND:                -1.466
REMARK  Name = 
REMARK  8 active torsions:
REMARK  status: ('A' for Active; 'I' for Inactive)
REMARK    1  A    between atoms: N_1  and  C_2
REMARK    2  A    between atoms: C_2  and  C_3
REMARK    3  A    between atoms: C_3  and  N_4
REMARK    4  A    between atoms: C_3  and  C_17
REMARK    5  A    between atoms: C_5  and  C_7
REMARK    6  A    between atoms: C_20  and  C_21
REMARK    7  A    between atoms: C_21  and  N_22
REMARK    8  A    between atoms: C_23  and  C_25
REMARK                            x       y       z     vdW  Elec       q    Type
REMARK                         _______ _______ _______ _____ _____    ______ ____
ROOT
ATOM      1  C   UNL     1      48.235   7.080  14.219  0.00  0.00    +0.000 C 
ENDROOT
BRANCH   1   2
ATOM      2  C   UNL     1      47.218   6.297  13.381  0.00  0.00    +0.000 A 
ATOM      3  C   UNL     1      46.935   4.956  13.678  0.00  0.00    +0.000 A 
ATOM      4  C   UNL     1      46.014   4.229  12.916  0.00  0.00    +0.000 A 
ATOM      5  C   UNL     1      45.343   4.819  11.835  0.00  0.00    +0.000 A 
ATOM      6  C   UNL     1      45.596   6.166  11.553  0.00  0.00    +0.000 A 
ATOM      7  C   UNL     1      46.525   6.892  12.310  0.00  0.00    +0.000 A 
BRANCH   5   8
ATOM      8  C   UNL     1      44.373   4.022  10.996  0.00  0.00    +0.000 C 
BRANCH   8   9
ATOM      9  N   UNL     1      45.047   3.150  10.063  0.00  0.00    +0.000 N 
ATOM     10  C   UNL     1      45.376   3.582   8.797  0.00  0.00    +0.000 C 
ATOM     11  O   UNL     1      45.098   4.707   8.393  0.00  0.00    +0.000 OA
ATOM     12  H   UNL     1      45.362   2.250  10.384  0.00  0.00    +0.000 HD
BRANCH  10  13
ATOM     13  C   UNL     1      46.078   2.613   7.974  0.00  0.00    +0.000 A 
ATOM     14  C   UNL     1      46.819   2.742   6.809  0.00  0.00    +0.000 A 
ATOM     15  C   UNL     1      47.301   1.462   6.444  0.00  0.00    +0.000 A 
ATOM     16  C   UNL     1      46.847   0.571   7.387  0.00  0.00    +0.000 A 
ATOM     17  N   UNL     1      46.108   1.270   8.302  0.00  0.00    +0.000 N 
ATOM     18  H   UNL     1      45.647   0.879   9.115  0.00  0.00    +0.000 HD
ENDBRANCH  10  13
ENDBRANCH   8   9
ENDBRANCH   5   8
ENDBRANCH   1   2
BRANCH   1  19
ATOM     19  N   UNL     1      48.160   6.612  15.597  0.00  0.00    +0.000 N 
ATOM     20  C   UNL     1      49.250   6.283  16.360  0.00  0.00    +0.000 C 
ATOM     21  O   UNL     1      50.390   6.237  15.911  0.00  0.00    +0.000 OA
ATOM     22  H   UNL     1      47.265   6.732  16.049  0.00  0.00    +0.000 HD
BRANCH  20  23
ATOM     23  C   UNL     1      48.961   5.946  17.761  0.00  0.00    +0.000 A 
ATOM     24  C   UNL     1      49.216   4.670  18.245  0.00  0.00    +0.000 A 
ATOM     25  S   UNL     1      48.732   4.450  19.867  0.00  0.00    +0.000 S 
ATOM     26  C   UNL     1      48.208   6.064  19.991  0.00  0.00    +0.000 A 
ATOM     27  N   UNL     1      47.652   6.541  21.139  0.00  0.00    +0.000 NA
ATOM     28  C   UNL     1      47.316   7.787  21.092  0.00  0.00    +0.000 A 
ATOM     29  N   UNL     1      47.504   8.607  20.011  0.00  0.00    +0.000 N 
ATOM     30  C   UNL     1      48.080   8.175  18.844  0.00  0.00    +0.000 A 
ATOM     31  O   UNL     1      48.261   8.944  17.907  0.00  0.00    +0.000 OA
ATOM     32  C   UNL     1      48.425   6.767  18.821  0.00  0.00    +0.000 A 
ATOM     33  H   UNL     1      47.236   9.580  20.041  0.00  0.00    +0.000 HD
ENDBRANCH  20  23
ENDBRANCH   1  19
BRANCH   1  34
ATOM     34  C   UNL     1      48.028   8.624  14.120  0.00  0.00    +0.000 C 
BRANCH  34  35
ATOM     35  N   UNL     1      47.294   9.210  15.248  0.00  0.00    +0.000 NA
ATOM     36  H   UNL     1      47.354   8.577  16.045  0.00  0.00    +0.000 HD
ATOM     37  H   UNL     1      46.305   9.281  15.010  0.00  0.00    +0.000 HD
ENDBRANCH  34  35
ENDBRANCH   1  34
TORSDOF 8
ENDMDL
MODEL 2
REMARK VINA RESULT:    -7.292      2.872      4.457
REMARK INTER + INTRA:         -11.955
REMARK INTER:                 -10.752
REMARK INTRA:                  -1.203
REMARK UNBOUND:                -1.466
REMARK  Name = 
REMARK  8 active torsions:
REMARK  status: ('A' for Active; 'I' for Inactive)
REMARK    1  A    between atoms: N_1  and  C_2
REMARK    2  A    between atoms: C_2  and  C_3
REMARK    3  A    between atoms: C_3  and  N_4
REMARK    4  A    between atoms: C_3  and  C_17
REMARK    5  A    between atoms: C_5  and  C_7
REMARK    6  A    between atoms: C_20  and  C_21
REMARK    7  A    between atoms: C_21  and  N_22
REMARK    8  A    between atoms: C_23  and  C_25
REMARK                            x       y       z     vdW  Elec       q    Type
REMARK                         _______ _______ _______ _____ _____    ______ ____
ROOT
ATOM      1  C   UNL     1      47.090   5.107  15.045  0.00  0.00    +0.000 C 
ENDROOT
BRANCH   1   2
ATOM      2  C   UNL     1      46.241   4.893  13.787  0.00  0.00    +0.000 A 
ATOM      3  C   UNL     1      46.070   3.607  13.255  0.00  0.00    +0.000 A 
ATOM      4  C   UNL     1      45.303   3.400  12.104  0.00  0.00    +0.000 A 
ATOM      5  C   UNL     1      44.678   4.470  11.449  0.00  0.00    +0.000 A 
ATOM      6  C   UNL     1      44.816   5.752  11.992  0.00  0.00    +0.000 A 
ATOM      7  C   UNL     1      45.592   5.962  13.139  0.00  0.00    +0.000 A 
BRANCH   5   8
ATOM      8  C   UNL     1      43.876   4.246  10.188  0.00  0.00    +0.000 C 
BRANCH   8   9
ATOM      9  N   UNL     1      44.600   3.466   9.213  0.00  0.00    +0.000 N 
ATOM     10  C   UNL     1      45.588   4.033   8.438  0.00  0.00    +0.000 C 
ATOM     11  O   UNL     1      45.885   5.220   8.519  0.00  0.00    +0.000 OA
ATOM     12  H   UNL     1      44.440   2.472   9.174  0.00  0.00    +0.000 HD
BRANCH  10  13
ATOM     13  C   UNL     1      46.254   3.127   7.521  0.00  0.00    +0.000 A 
ATOM     14  C   UNL     1      46.691   3.278   6.213  0.00  0.00    +0.000 A 
ATOM     15  C   UNL     1      47.300   2.067   5.804  0.00  0.00    +0.000 A 
ATOM     16  C   UNL     1      47.224   1.194   6.863  0.00  0.00    +0.000 A 
ATOM     17  N   UNL     1      46.588   1.837   7.890  0.00  0.00    +0.000 N 
ATOM     18  H   UNL     1      46.389   1.444   8.802  0.00  0.00    +0.000 HD
ENDBRANCH  10  13
ENDBRANCH   8   9
ENDBRANCH   5   8
ENDBRANCH   1   2
BRANCH   1  19
ATOM     19  N   UNL     1      48.272   5.878  14.682  0.00  0.00    +0.000 N 
ATOM     20  C   UNL     1      48.922   6.738  15.528  0.00  0.00    +0.000 C 
ATOM     21  O   UNL     1      48.494   7.033  16.638  0.00  0.00    +0.000 OA
ATOM     22  H   UNL     1      48.728   5.598  13.826  0.00  0.00    +0.000 HD
BRANCH  20  23
ATOM     23  C   UNL     1      50.161   7.326  15.001  0.00  0.00    +0.000 A 
ATOM     24  C   UNL     1      51.350   7.212  15.709  0.00  0.00    +0.000 A 
ATOM     25  S   UNL     1      52.656   8.034  14.978  0.00  0.00    +0.000 S 
ATOM     26  C   UNL     1      51.688   8.531  13.671  0.00  0.00    +0.000 A 
ATOM     27  N   UNL     1      52.193   9.304  12.670  0.00  0.00    +0.000 NA
ATOM     28  C   UNL     1      51.348   9.591  11.737  0.00  0.00    +0.000 A 
ATOM     29  N   UNL     1      50.049   9.158  11.700  0.00  0.00    +0.000 N 
ATOM     30  C   UNL     1      49.505   8.359  12.674  0.00  0.00    +0.000 A 
ATOM     31  O   UNL     1      48.348   7.964  12.592  0.00  0.00    +0.000 OA
ATOM     32  C   UNL     1      50.396   8.053  13.776  0.00  0.00    +0.000 A 
ATOM     33  H   UNL     1      49.439   9.401  10.933  0.00  0.00    +0.000 HD
ENDBRANCH  20  23
ENDBRANCH   1  19
BRANCH   1  34
ATOM     34  C   UNL     1      47.466   3.765  15.747  0.00  0.00    +0.000 C 
BRANCH  34  35
ATOM     35  N   UNL     1      46.759   3.524  17.011  0.00  0.00    +0.000 NA
ATOM     36  H   UNL     1      46.211   2.669  16.923  0.00  0.00    +0.000 HD
ATOM     37  H   UNL     1      46.093   4.277  17.178  0.00  0.00    +0.000 HD
ENDBRANCH  34  35
ENDBRANCH   1  34
TORSDOF 8
ENDMDL
MODEL 3
REMARK VINA RESULT:    -7.273      1.458      2.081
REMARK INTER + INTRA:         -11.927
REMARK INTER:                 -10.859
REMARK INTRA:                  -1.068
REMARK UNBOUND:                -1.466
REMARK  Name = 
REMARK  8 active torsions:
REMARK  status: ('A' for Active; 'I' for Inactive)
REMARK    1  A    between atoms: N_1  and  C_2
REMARK    2  A    between atoms: C_2  and  C_3
REMARK    3  A    between atoms: C_3  and  N_4
REMARK    4  A    between atoms: C_3  and  C_17
REMARK    5  A    between atoms: C_5  and  C_7
REMARK    6  A    between atoms: C_20  and  C_21
REMARK    7  A    between atoms: C_21  and  N_22
REMARK    8  A    between atoms: C_23  and  C_25
REMARK                            x       y       z     vdW  Elec       q    Type
REMARK                         _______ _______ _______ _____ _____    ______ ____
ROOT
ATOM      1  C   UNL     1      47.880   7.724  13.716  0.00  0.00    +0.000 C 
ENDROOT
BRANCH   1   2
ATOM      2  C   UNL     1      46.921   6.763  13.003  0.00  0.00    +0.000 A 
ATOM      3  C   UNL     1      46.871   5.409  13.366  0.00  0.00    +0.000 A 
ATOM      4  C   UNL     1      46.007   4.521  12.718  0.00  0.00    +0.000 A 
ATOM      5  C   UNL     1      45.159   4.957  11.689  0.00  0.00    +0.000 A 
ATOM      6  C   UNL     1      45.179   6.314  11.344  0.00  0.00    +0.000 A 
ATOM      7  C   UNL     1      46.052   7.202  11.986  0.00  0.00    +0.000 A 
BRANCH   5   8
ATOM      8  C   UNL     1      44.249   3.990  10.971  0.00  0.00    +0.000 C 
BRANCH   8   9
ATOM      9  N   UNL     1      44.976   3.112  10.084  0.00  0.00    +0.000 N 
ATOM     10  C   UNL     1      45.292   3.501   8.801  0.00  0.00    +0.000 C 
ATOM     11  O   UNL     1      44.958   4.588   8.343  0.00  0.00    +0.000 OA
ATOM     12  H   UNL     1      45.336   2.246  10.450  0.00  0.00    +0.000 HD
BRANCH  10  13
ATOM     13  C   UNL     1      46.051   2.533   8.030  0.00  0.00    +0.000 A 
ATOM     14  C   UNL     1      46.905   2.668   6.945  0.00  0.00    +0.000 A 
ATOM     15  C   UNL     1      47.395   1.384   6.602  0.00  0.00    +0.000 A 
ATOM     16  C   UNL     1      46.832   0.486   7.476  0.00  0.00    +0.000 A 
ATOM     17  N   UNL     1      46.021   1.183   8.329  0.00  0.00    +0.000 N 
ATOM     18  H   UNL     1      45.475   0.787   9.084  0.00  0.00    +0.000 HD
ENDBRANCH  10  13
ENDBRANCH   8   9
ENDBRANCH   5   8
ENDBRANCH   1   2
BRANCH   1  19
ATOM     19  N   UNL     1      47.902   7.389  15.134  0.00  0.00    +0.000 N 
ATOM     20  C   UNL     1      49.009   6.938  15.803  0.00  0.00    +0.000 C 
ATOM     21  O   UNL     1      50.061   6.655  15.239  0.00  0.00    +0.000 OA
ATOM     22  H   UNL     1      47.103   7.702  15.668  0.00  0.00    +0.000 HD
BRANCH  20  23
ATOM     23  C   UNL     1      48.847   6.772  17.254  0.00  0.00    +0.000 A 
ATOM     24  C   UNL     1      48.777   7.882  18.085  0.00  0.00    +0.000 A 
ATOM     25  S   UNL     1      48.678   7.484  19.742  0.00  0.00    +0.000 S 
ATOM     26  C   UNL     1      48.680   5.817  19.401  0.00  0.00    +0.000 A 
ATOM     27  N   UNL     1      48.634   4.891  20.399  0.00  0.00    +0.000 NA
ATOM     28  C   UNL     1      48.626   3.666  19.991  0.00  0.00    +0.000 A 
ATOM     29  N   UNL     1      48.637   3.280  18.677  0.00  0.00    +0.000 N 
ATOM     30  C   UNL     1      48.659   4.178  17.640  0.00  0.00    +0.000 A 
ATOM     31  O   UNL     1      48.636   3.797  16.475  0.00  0.00    +0.000 OA
ATOM     32  C   UNL     1      48.726   5.569  18.043  0.00  0.00    +0.000 A 
ATOM     33  H   UNL     1      48.610   2.304  18.418  0.00  0.00    +0.000 HD
ENDBRANCH  20  23
ENDBRANCH   1  19
BRANCH   1  34
ATOM     34  C   UNL     1      47.509   9.221  13.480  0.00  0.00    +0.000 C 
BRANCH  34  35
ATOM     35  N   UNL     1      48.266  10.170  14.306  0.00  0.00    +0.000 NA
ATOM     36  H   UNL     1      48.921  10.675  13.711  0.00  0.00    +0.000 HD
ATOM     37  H   UNL     1      48.829   9.657  14.984  0.00  0.00    +0.000 HD
ENDBRANCH  34  35
ENDBRANCH   1  34
TORSDOF 8
ENDMDL
MODEL 4
REMARK VINA RESULT:    -7.033      5.012      9.348
REMARK INTER + INTRA:         -11.583
REMARK INTER:                 -10.779
REMARK INTRA:                  -0.805
REMARK UNBOUND:                -1.466
REMARK  Name = 
REMARK  8 active torsions:
REMARK  status: ('A' for Active; 'I' for Inactive)
REMARK    1  A    between atoms: N_1  and  C_2
REMARK    2  A    between atoms: C_2  and  C_3
REMARK    3  A    between atoms: C_3  and  N_4
REMARK    4  A    between atoms: C_3  and  C_17
REMARK    5  A    between atoms: C_5  and  C_7
REMARK    6  A    between atoms: C_20  and  C_21
REMARK    7  A    between atoms: C_21  and  N_22
REMARK    8  A    between atoms: C_23  and  C_25
REMARK                            x       y       z     vdW  Elec       q    Type
REMARK                         _______ _______ _______ _____ _____    ______ ____
ROOT
ATOM      1  C   UNL     1      47.510   4.167  17.217  0.00  0.00    +0.000 C 
ENDROOT
BRANCH   1   2
ATOM      2  C   UNL     1      48.977   3.747  17.357  0.00  0.00    +0.000 A 
ATOM      3  C   UNL     1      49.346   2.399  17.234  0.00  0.00    +0.000 A 
ATOM      4  C   UNL     1      50.680   2.002  17.366  0.00  0.00    +0.000 A 
ATOM      5  C   UNL     1      51.692   2.939  17.621  0.00  0.00    +0.000 A 
ATOM      6  C   UNL     1      51.337   4.290  17.713  0.00  0.00    +0.000 A 
ATOM      7  C   UNL     1      49.999   4.687  17.590  0.00  0.00    +0.000 A 
BRANCH   5   8
ATOM      8  C   UNL     1      53.127   2.503  17.794  0.00  0.00    +0.000 C 
BRANCH   8   9
ATOM      9  N   UNL     1      53.233   1.219  18.446  0.00  0.00    +0.000 N 
ATOM     10  C   UNL     1      53.815   0.144  17.809  0.00  0.00    +0.000 C 
ATOM     11  O   UNL     1      54.247   0.214  16.664  0.00  0.00    +0.000 OA
ATOM     12  H   UNL     1      52.964   1.144  19.413  0.00  0.00    +0.000 HD
BRANCH  10  13
ATOM     13  C   UNL     1      53.882  -1.077  18.592  0.00  0.00    +0.000 A 
ATOM     14  C   UNL     1      54.952  -1.814  19.079  0.00  0.00    +0.000 A 
ATOM     15  C   UNL     1      54.438  -2.917  19.805  0.00  0.00    +0.000 A 
ATOM     16  C   UNL     1      53.067  -2.840  19.747  0.00  0.00    +0.000 A 
ATOM     17  N   UNL     1      52.740  -1.733  19.012  0.00  0.00    +0.000 N 
ATOM     18  H   UNL     1      51.801  -1.418  18.800  0.00  0.00    +0.000 HD
ENDBRANCH  10  13
ENDBRANCH   8   9
ENDBRANCH   5   8
ENDBRANCH   1   2
BRANCH   1  19
ATOM     19  N   UNL     1      47.360   4.929  15.984  0.00  0.00    +0.000 N 
ATOM     20  C   UNL     1      47.208   4.366  14.744  0.00  0.00    +0.000 C 
ATOM     21  O   UNL     1      47.307   3.161  14.541  0.00  0.00    +0.000 OA
ATOM     22  H   UNL     1      47.166   5.913  16.101  0.00  0.00    +0.000 HD
BRANCH  20  23
ATOM     23  C   UNL     1      46.956   5.312  13.648  0.00  0.00    +0.000 A 
ATOM     24  C   UNL     1      47.959   6.167  13.212  0.00  0.00    +0.000 A 
ATOM     25  S   UNL     1      47.447   7.248  11.994  0.00  0.00    +0.000 S 
ATOM     26  C   UNL     1      45.882   6.580  11.978  0.00  0.00    +0.000 A 
ATOM     27  N   UNL     1      44.913   7.070  11.156  0.00  0.00    +0.000 NA
ATOM     28  C   UNL     1      43.780   6.455  11.241  0.00  0.00    +0.000 A 
ATOM     29  N   UNL     1      43.532   5.381  12.054  0.00  0.00    +0.000 N 
ATOM     30  C   UNL     1      44.485   4.842  12.880  0.00  0.00    +0.000 A 
ATOM     31  O   UNL     1      44.238   3.860  13.572  0.00  0.00    +0.000 OA
ATOM     32  C   UNL     1      45.761   5.530  12.867  0.00  0.00    +0.000 A 
ATOM     33  H   UNL     1      42.630   4.930  12.064  0.00  0.00    +0.000 HD
ENDBRANCH  20  23
ENDBRANCH   1  19
BRANCH   1  34
ATOM     34  C   UNL     1      46.996   4.964  18.456  0.00  0.00    +0.000 C 
BRANCH  34  35
ATOM     35  N   UNL     1      47.238   6.411  18.388  0.00  0.00    +0.000 NA
ATOM     36  H   UNL     1      47.516   6.742  19.312  0.00  0.00    +0.000 HD
ATOM     37  H   UNL     1      46.369   6.891  18.159  0.00  0.00    +0.000 HD
ENDBRANCH  34  35
ENDBRANCH   1  34
TORSDOF 8
ENDMDL
MODEL 5
REMARK VINA RESULT:    -6.852      3.954      8.743
REMARK INTER + INTRA:         -11.322
REMARK INTER:                 -10.219
REMARK INTRA:                  -1.102
REMARK UNBOUND:                -1.466
REMARK  Name = 
REMARK  8 active torsions:
REMARK  status: ('A' for Active; 'I' for Inactive)
REMARK    1  A    between atoms: N_1  and  C_2
REMARK    2  A    between atoms: C_2  and  C_3
REMARK    3  A    between atoms: C_3  and  N_4
REMARK    4  A    between atoms: C_3  and  C_17
REMARK    5  A    between atoms: C_5  and  C_7
REMARK    6  A    between atoms: C_20  and  C_21
REMARK    7  A    between atoms: C_21  and  N_22
REMARK    8  A    between atoms: C_23  and  C_25
REMARK                            x       y       z     vdW  Elec       q    Type
REMARK                         _______ _______ _______ _____ _____    ______ ____
ROOT
ATOM      1  C   UNL     1      47.834   7.059  13.745  0.00  0.00    +0.000 C 
ENDROOT
BRANCH   1   2
ATOM      2  C   UNL     1      48.250   6.259  14.985  0.00  0.00    +0.000 A 
ATOM      3  C   UNL     1      47.540   5.108  15.360  0.00  0.00    +0.000 A 
ATOM      4  C   UNL     1      47.905   4.374  16.493  0.00  0.00    +0.000 A 
ATOM      5  C   UNL     1      48.994   4.761  17.286  0.00  0.00    +0.000 A 
ATOM      6  C   UNL     1      49.728   5.889  16.900  0.00  0.00    +0.000 A 
ATOM      7  C   UNL     1      49.357   6.631  15.771  0.00  0.00    +0.000 A 
BRANCH   5   8
ATOM      8  C   UNL     1      49.367   3.984  18.526  0.00  0.00    +0.000 C 
BRANCH   8   9
ATOM      9  N   UNL     1      50.673   3.378  18.419  0.00  0.00    +0.000 N 
ATOM     10  C   UNL     1      50.886   2.285  17.608  0.00  0.00    +0.000 C 
ATOM     11  O   UNL     1      49.986   1.761  16.961  0.00  0.00    +0.000 OA
ATOM     12  H   UNL     1      51.452   3.827  18.871  0.00  0.00    +0.000 HD
BRANCH  10  13
ATOM     13  C   UNL     1      52.253   1.798  17.572  0.00  0.00    +0.000 A 
ATOM     14  C   UNL     1      53.472   2.424  17.786  0.00  0.00    +0.000 A 
ATOM     15  C   UNL     1      54.499   1.458  17.644  0.00  0.00    +0.000 A 
ATOM     16  C   UNL     1      53.895   0.262  17.343  0.00  0.00    +0.000 A 
ATOM     17  N   UNL     1      52.544   0.474  17.296  0.00  0.00    +0.000 N 
ATOM     18  H   UNL     1      51.840  -0.227  17.097  0.00  0.00    +0.000 HD
ENDBRANCH  10  13
ENDBRANCH   8   9
ENDBRANCH   5   8
ENDBRANCH   1   2
BRANCH   1  19
ATOM     19  N   UNL     1      47.121   6.170  12.837  0.00  0.00    +0.000 N 
ATOM     20  C   UNL     1      46.183   6.587  11.929  0.00  0.00    +0.000 C 
ATOM     21  O   UNL     1      45.766   7.739  11.880  0.00  0.00    +0.000 OA
ATOM     22  H   UNL     1      47.497   5.236  12.758  0.00  0.00    +0.000 HD
BRANCH  20  23
ATOM     23  C   UNL     1      45.670   5.545  11.028  0.00  0.00    +0.000 A 
ATOM     24  C   UNL     1      45.877   5.635   9.658  0.00  0.00    +0.000 A 
ATOM     25  S   UNL     1      45.132   4.378   8.775  0.00  0.00    +0.000 S 
ATOM     26  C   UNL     1      44.545   3.649  10.196  0.00  0.00    +0.000 A 
ATOM     27  N   UNL     1      43.788   2.519  10.150  0.00  0.00    +0.000 NA
ATOM     28  C   UNL     1      43.427   2.070  11.306  0.00  0.00    +0.000 A 
ATOM     29  N   UNL     1      43.771   2.634  12.506  0.00  0.00    +0.000 N 
ATOM     30  C   UNL     1      44.550   3.759  12.600  0.00  0.00    +0.000 A 
ATOM     31  O   UNL     1      44.865   4.219  13.691  0.00  0.00    +0.000 OA
ATOM     32  C   UNL     1      44.937   4.338  11.328  0.00  0.00    +0.000 A 
ATOM     33  H   UNL     1      43.473   2.226  13.380  0.00  0.00    +0.000 HD
ENDBRANCH  20  23
ENDBRANCH   1  19
BRANCH   1  34
ATOM     34  C   UNL     1      49.046   7.750  13.047  0.00  0.00    +0.000 C 
BRANCH  34  35
ATOM     35  N   UNL     1      49.816   6.870  12.158  0.00  0.00    +0.000 NA
ATOM     36  H   UNL     1      49.642   7.145  11.192  0.00  0.00    +0.000 HD
ATOM     37  H   UNL     1      49.478   5.913  12.251  0.00  0.00    +0.000 HD
ENDBRANCH  34  35
ENDBRANCH   1  34
TORSDOF 8
ENDMDL
MODEL 6
REMARK VINA RESULT:    -6.624      2.446      3.543
REMARK INTER + INTRA:         -10.995
REMARK INTER:                  -9.660
REMARK INTRA:                  -1.335
REMARK UNBOUND:                -1.466
REMARK  Name = 
REMARK  8 active torsions:
REMARK  status: ('A' for Active; 'I' for Inactive)
REMARK    1  A    between atoms: N_1  and  C_2
REMARK    2  A    between atoms: C_2  and  C_3
REMARK    3  A    between atoms: C_3  and  N_4
REMARK    4  A    between atoms: C_3  and  C_17
REMARK    5  A    between atoms: C_5  and  C_7
REMARK    6  A    between atoms: C_20  and  C_21
REMARK    7  A    between atoms: C_21  and  N_22
REMARK    8  A    between atoms: C_23  and  C_25
REMARK                            x       y       z     vdW  Elec       q    Type
REMARK                         _______ _______ _______ _____ _____    ______ ____
ROOT
ATOM      1  C   UNL     1      47.153   4.443  15.620  0.00  0.00    +0.000 C 
ENDROOT
BRANCH   1   2
ATOM      2  C   UNL     1      46.637   4.840  14.232  0.00  0.00    +0.000 A 
ATOM      3  C   UNL     1      45.388   4.386  13.781  0.00  0.00    +0.000 A 
ATOM      4  C   UNL     1      44.910   4.736  12.515  0.00  0.00    +0.000 A 
ATOM      5  C   UNL     1      45.660   5.554  11.658  0.00  0.00    +0.000 A 
ATOM      6  C   UNL     1      46.891   6.038  12.113  0.00  0.00    +0.000 A 
ATOM      7  C   UNL     1      47.376   5.680  13.378  0.00  0.00    +0.000 A 
BRANCH   5   8
ATOM      8  C   UNL     1      45.153   5.904  10.279  0.00  0.00    +0.000 C 
BRANCH   8   9
ATOM      9  N   UNL     1      45.803   5.132   9.246  0.00  0.00    +0.000 N 
ATOM     10  C   UNL     1      45.317   3.900   8.867  0.00  0.00    +0.000 C 
ATOM     11  O   UNL     1      44.334   3.390   9.395  0.00  0.00    +0.000 OA
ATOM     12  H   UNL     1      46.563   5.550   8.735  0.00  0.00    +0.000 HD
BRANCH  10  13
ATOM     13  C   UNL     1      46.049   3.247   7.797  0.00  0.00    +0.000 A 
ATOM     14  C   UNL     1      46.559   3.716   6.595  0.00  0.00    +0.000 A 
ATOM     15  C   UNL     1      47.211   2.643   5.939  0.00  0.00    +0.000 A 
ATOM     16  C   UNL     1      47.087   1.537   6.745  0.00  0.00    +0.000 A 
ATOM     17  N   UNL     1      46.383   1.907   7.858  0.00  0.00    +0.000 N 
ATOM     18  H   UNL     1      46.138   1.301   8.633  0.00  0.00    +0.000 HD
ENDBRANCH  10  13
ENDBRANCH   8   9
ENDBRANCH   5   8
ENDBRANCH   1   2
BRANCH   1  19
ATOM     19  N   UNL     1      48.059   5.482  16.092  0.00  0.00    +0.000 N 
ATOM     20  C   UNL     1      48.172   5.869  17.402  0.00  0.00    +0.000 C 
ATOM     21  O   UNL     1      47.428   5.459  18.286  0.00  0.00    +0.000 OA
ATOM     22  H   UNL     1      48.766   5.775  15.433  0.00  0.00    +0.000 HD
BRANCH  20  23
ATOM     23  C   UNL     1      49.230   6.850  17.681  0.00  0.00    +0.000 A 
ATOM     24  C   UNL     1      48.907   8.122  18.137  0.00  0.00    +0.000 A 
ATOM     25  S   UNL     1      50.264   9.142  18.318  0.00  0.00    +0.000 S 
ATOM     26  C   UNL     1      51.330   7.907  17.836  0.00  0.00    +0.000 A 
ATOM     27  N   UNL     1      52.671   8.125  17.750  0.00  0.00    +0.000 NA
ATOM     28  C   UNL     1      53.358   7.093  17.387  0.00  0.00    +0.000 A 
ATOM     29  N   UNL     1      52.831   5.857  17.123  0.00  0.00    +0.000 N 
ATOM     30  C   UNL     1      51.489   5.587  17.220  0.00  0.00    +0.000 A 
ATOM     31  O   UNL     1      51.056   4.460  17.007  0.00  0.00    +0.000 OA
ATOM     32  C   UNL     1      50.664   6.727  17.569  0.00  0.00    +0.000 A 
ATOM     33  H   UNL     1      53.421   5.082  16.861  0.00  0.00    +0.000 HD
ENDBRANCH  20  23
ENDBRANCH   1  19
BRANCH   1  34
ATOM     34  C   UNL     1      47.830   3.037  15.625  0.00  0.00    +0.000 C 
BRANCH  34  35
ATOM     35  N   UNL     1      48.522   2.703  16.877  0.00  0.00    +0.000 NA
ATOM     36  H   UNL     1      49.037   3.522  17.196  0.00  0.00    +0.000 HD
ATOM     37  H   UNL     1      49.215   1.977  16.699  0.00  0.00    +0.000 HD
ENDBRANCH  34  35
ENDBRANCH   1  34
TORSDOF 8
ENDMDL
MODEL 7
REMARK VINA RESULT:    -6.433      3.525      5.223
REMARK INTER + INTRA:         -10.719
REMARK INTER:                  -9.226
REMARK INTRA:                  -1.493
REMARK UNBOUND:                -1.466
REMARK  Name = 
REMARK  8 active torsions:
REMARK  status: ('A' for Active; 'I' for Inactive)
REMARK    1  A    between atoms: N_1  and  C_2
REMARK    2  A    between atoms: C_2  and  C_3
REMARK    3  A    between atoms: C_3  and  N_4
REMARK    4  A    between atoms: C_3  and  C_17
REMARK    5  A    between atoms: C_5  and  C_7
REMARK    6  A    between atoms: C_20  and  C_21
REMARK    7  A    between atoms: C_21  and  N_22
REMARK    8  A    between atoms: C_23  and  C_25
REMARK                            x       y       z     vdW  Elec       q    Type
REMARK                         _______ _______ _______ _____ _____    ______ ____
ROOT
ATOM      1  C   UNL     1      48.023   6.895  14.583  0.00  0.00    +0.000 C 
ENDROOT
BRANCH   1   2
ATOM      2  C   UNL     1      47.143   5.963  13.740  0.00  0.00    +0.000 A 
ATOM      3  C   UNL     1      46.366   6.475  12.691  0.00  0.00    +0.000 A 
ATOM      4  C   UNL     1      45.555   5.637  11.920  0.00  0.00    +0.000 A 
ATOM      5  C   UNL     1      45.496   4.258  12.168  0.00  0.00    +0.000 A 
ATOM      6  C   UNL     1      46.294   3.734  13.192  0.00  0.00    +0.000 A 
ATOM      7  C   UNL     1      47.099   4.575  13.971  0.00  0.00    +0.000 A 
BRANCH   5   8
ATOM      8  C   UNL     1      44.595   3.361  11.354  0.00  0.00    +0.000 C 
BRANCH   8   9
ATOM      9  N   UNL     1      45.271   2.806  10.205  0.00  0.00    +0.000 N 
ATOM     10  C   UNL     1      45.200   3.419   8.973  0.00  0.00    +0.000 C 
ATOM     11  O   UNL     1      44.549   4.441   8.784  0.00  0.00    +0.000 OA
ATOM     12  H   UNL     1      45.879   2.015  10.338  0.00  0.00    +0.000 HD
BRANCH  10  13
ATOM     13  C   UNL     1      45.952   2.770   7.914  0.00  0.00    +0.000 A 
ATOM     14  C   UNL     1      46.377   3.209   6.669  0.00  0.00    +0.000 A 
ATOM     15  C   UNL     1      47.100   2.160   6.050  0.00  0.00    +0.000 A 
ATOM     16  C   UNL     1      47.103   1.097   6.922  0.00  0.00    +0.000 A 
ATOM     17  N   UNL     1      46.407   1.470   8.039  0.00  0.00    +0.000 N 
ATOM     18  H   UNL     1      46.243   0.893   8.855  0.00  0.00    +0.000 HD
ENDBRANCH  10  13
ENDBRANCH   8   9
ENDBRANCH   5   8
ENDBRANCH   1   2
BRANCH   1  19
ATOM     19  N   UNL     1      49.140   7.345  13.763  0.00  0.00    +0.000 N 
ATOM     20  C   UNL     1      49.348   8.647  13.391  0.00  0.00    +0.000 C 
ATOM     21  O   UNL     1      48.541   9.542  13.615  0.00  0.00    +0.000 OA
ATOM     22  H   UNL     1      49.888   6.677  13.641  0.00  0.00    +0.000 HD
BRANCH  20  23
ATOM     23  C   UNL     1      50.598   8.904  12.663  0.00  0.00    +0.000 A 
ATOM     24  C   UNL     1      50.569   9.393  11.364  0.00  0.00    +0.000 A 
ATOM     25  S   UNL     1      52.116   9.541  10.659  0.00  0.00    +0.000 S 
ATOM     26  C   UNL     1      52.879   9.000  12.080  0.00  0.00    +0.000 A 
ATOM     27  N   UNL     1      54.233   8.869  12.149  0.00  0.00    +0.000 NA
ATOM     28  C   UNL     1      54.672   8.464  13.294  0.00  0.00    +0.000 A 
ATOM     29  N   UNL     1      53.886   8.198  14.384  0.00  0.00    +0.000 N 
ATOM     30  C   UNL     1      52.522   8.340  14.365  0.00  0.00    +0.000 A 
ATOM     31  O   UNL     1      51.852   8.124  15.369  0.00  0.00    +0.000 OA
ATOM     32  C   UNL     1      51.969   8.738  13.085  0.00  0.00    +0.000 A 
ATOM     33  H   UNL     1      54.290   7.901  15.260  0.00  0.00    +0.000 HD
ENDBRANCH  20  23
ENDBRANCH   1  19
BRANCH   1  34
ATOM     34  C   UNL     1      48.508   6.223  15.905  0.00  0.00    +0.000 C 
BRANCH  34  35
ATOM     35  N   UNL     1      49.950   5.953  15.953  0.00  0.00    +0.000 NA
ATOM     36  H   UNL     1      50.096   5.007  16.306  0.00  0.00    +0.000 HD
ATOM     37  H   UNL     1      50.392   6.582  16.623  0.00  0.00    +0.000 HD
ENDBRANCH  34  35
ENDBRANCH   1  34
TORSDOF 8
ENDMDL
MODEL 8
REMARK VINA RESULT:    -6.215      4.751      8.308
REMARK INTER + INTRA:         -10.406
REMARK INTER:                  -9.361
REMARK INTRA:                  -1.044
REMARK UNBOUND:                -1.466
REMARK  Name = 
REMARK  8 active torsions:
REMARK  status: ('A' for Active; 'I' for Inactive)
REMARK    1  A    between atoms: N_1  and  C_2
REMARK    2  A    between atoms: C_2  and  C_3
REMARK    3  A    between atoms: C_3  and  N_4
REMARK    4  A    between atoms: C_3  and  C_17
REMARK    5  A    between atoms: C_5  and  C_7
REMARK    6  A    between atoms: C_20  and  C_21
REMARK    7  A    between atoms: C_21  and  N_22
REMARK    8  A    between atoms: C_23  and  C_25
REMARK                            x       y       z     vdW  Elec       q    Type
REMARK                         _______ _______ _______ _____ _____    ______ ____
ROOT
ATOM      1  C   UNL     1      46.139   8.081  12.955  0.00  0.00    +0.000 C 
ENDROOT
BRANCH   1   2
ATOM      2  C   UNL     1      47.544   8.344  12.399  0.00  0.00    +0.000 A 
ATOM      3  C   UNL     1      47.901   9.623  11.946  0.00  0.00    +0.000 A 
ATOM      4  C   UNL     1      49.176   9.874  11.431  0.00  0.00    +0.000 A 
ATOM      5  C   UNL     1      50.140   8.857  11.356  0.00  0.00    +0.000 A 
ATOM      6  C   UNL     1      49.802   7.587  11.836  0.00  0.00    +0.000 A 
ATOM      7  C   UNL     1      48.521   7.332  12.343  0.00  0.00    +0.000 A 
BRANCH   5   8
ATOM      8  C   UNL     1      51.506   9.125  10.770  0.00  0.00    +0.000 C 
BRANCH   8   9
ATOM      9  N   UNL     1      52.484   8.155  11.201  0.00  0.00    +0.000 N 
ATOM     10  C   UNL     1      53.048   7.268  10.310  0.00  0.00    +0.000 C 
ATOM     11  O   UNL     1      52.735   7.240   9.125  0.00  0.00    +0.000 OA
ATOM     12  H   UNL     1      52.824   8.199  12.148  0.00  0.00    +0.000 HD
BRANCH  10  13
ATOM     13  C   UNL     1      54.039   6.369  10.873  0.00  0.00    +0.000 A 
ATOM     14  C   UNL     1      55.116   6.582  11.721  0.00  0.00    +0.000 A 
ATOM     15  C   UNL     1      55.739   5.335  11.970  0.00  0.00    +0.000 A 
ATOM     16  C   UNL     1      55.039   4.382  11.271  0.00  0.00    +0.000 A 
ATOM     17  N   UNL     1      54.020   5.012  10.610  0.00  0.00    +0.000 N 
ATOM     18  H   UNL     1      53.334   4.564  10.013  0.00  0.00    +0.000 HD
ENDBRANCH  10  13
ENDBRANCH   8   9
ENDBRANCH   5   8
ENDBRANCH   1   2
BRANCH   1  19
ATOM     19  N   UNL     1      45.604   6.886  12.316  0.00  0.00    +0.000 N 
ATOM     20  C   UNL     1      45.575   5.647  12.901  0.00  0.00    +0.000 C 
ATOM     21  O   UNL     1      46.110   5.403  13.977  0.00  0.00    +0.000 OA
ATOM     22  H   UNL     1      45.057   7.045  11.482  0.00  0.00    +0.000 HD
BRANCH  20  23
ATOM     23  C   UNL     1      44.885   4.602  12.131  0.00  0.00    +0.000 A 
ATOM     24  C   UNL     1      44.016   3.722  12.761  0.00  0.00    +0.000 A 
ATOM     25  S   UNL     1      43.383   2.528  11.718  0.00  0.00    +0.000 S 
ATOM     26  C   UNL     1      44.215   3.174  10.381  0.00  0.00    +0.000 A 
ATOM     27  N   UNL     1      44.127   2.600   9.149  0.00  0.00    +0.000 NA
ATOM     28  C   UNL     1      44.798   3.207   8.228  0.00  0.00    +0.000 A 
ATOM     29  N   UNL     1      45.533   4.347   8.419  0.00  0.00    +0.000 N 
ATOM     30  C   UNL     1      45.630   4.971   9.637  0.00  0.00    +0.000 A 
ATOM     31  O   UNL     1      46.270   6.009   9.764  0.00  0.00    +0.000 OA
ATOM     32  C   UNL     1      44.941   4.299  10.721  0.00  0.00    +0.000 A 
ATOM     33  H   UNL     1      46.023   4.788   7.654  0.00  0.00    +0.000 HD
ENDBRANCH  20  23
ENDBRANCH   1  19
BRANCH   1  34
ATOM     34  C   UNL     1      45.189   9.306  12.780  0.00  0.00    +0.000 C 
BRANCH  34  35
ATOM     35  N   UNL     1      44.184   9.147  11.721  0.00  0.00    +0.000 NA
ATOM     36  H   UNL     1      43.342   8.738  12.126  0.00  0.00    +0.000 HD
ATOM     37  H   UNL     1      44.523   8.482  11.027  0.00  0.00    +0.000 HD
ENDBRANCH  34  35
ENDBRANCH   1  34
TORSDOF 8
ENDMDL
MODEL 9
REMARK VINA RESULT:    -5.872      3.887      5.845
REMARK INTER + INTRA:          -9.913
REMARK INTER:                  -8.580
REMARK INTRA:                  -1.333
REMARK UNBOUND:                -1.466
REMARK  Name = 
REMARK  8 active torsions:
REMARK  status: ('A' for Active; 'I' for Inactive)
REMARK    1  A    between atoms: N_1  and  C_2
REMARK    2  A    between atoms: C_2  and  C_3
REMARK    3  A    between atoms: C_3  and  N_4
REMARK    4  A    between atoms: C_3  and  C_17
REMARK    5  A    between atoms: C_5  and  C_7
REMARK    6  A    between atoms: C_20  and  C_21
REMARK    7  A    between atoms: C_21  and  N_22
REMARK    8  A    between atoms: C_23  and  C_25
REMARK                            x       y       z     vdW  Elec       q    Type
REMARK                         _______ _______ _______ _____ _____    ______ ____
ROOT
ATOM      1  C   UNL     1      48.180   8.871  14.156  0.00  0.00    +0.000 C 
ENDROOT
BRANCH   1   2
ATOM      2  C   UNL     1      47.247   7.752  13.678  0.00  0.00    +0.000 A 
ATOM      3  C   UNL     1      46.057   8.058  13.003  0.00  0.00    +0.000 A 
ATOM      4  C   UNL     1      45.194   7.047  12.568  0.00  0.00    +0.000 A 
ATOM      5  C   UNL     1      45.495   5.695  12.789  0.00  0.00    +0.000 A 
ATOM      6  C   UNL     1      46.697   5.380  13.432  0.00  0.00    +0.000 A 
ATOM      7  C   UNL     1      47.557   6.393  13.877  0.00  0.00    +0.000 A 
BRANCH   5   8
ATOM      8  C   UNL     1      44.546   4.607  12.345  0.00  0.00    +0.000 C 
BRANCH   8   9
ATOM      9  N   UNL     1      45.077   3.834  11.247  0.00  0.00    +0.000 N 
ATOM     10  C   UNL     1      44.593   3.993   9.967  0.00  0.00    +0.000 C 
ATOM     11  O   UNL     1      43.683   4.770   9.700  0.00  0.00    +0.000 OA
ATOM     12  H   UNL     1      45.877   3.246  11.412  0.00  0.00    +0.000 HD
BRANCH  10  13
ATOM     13  C   UNL     1      45.238   3.175   8.955  0.00  0.00    +0.000 A 
ATOM     14  C   UNL     1      45.777   3.480   7.714  0.00  0.00    +0.000 A 
ATOM     15  C   UNL     1      46.303   2.291   7.153  0.00  0.00    +0.000 A 
ATOM     16  C   UNL     1      46.075   1.279   8.054  0.00  0.00    +0.000 A 
ATOM     17  N   UNL     1      45.429   1.817   9.134  0.00  0.00    +0.000 N 
ATOM     18  H   UNL     1      45.132   1.311   9.960  0.00  0.00    +0.000 HD
ENDBRANCH  10  13
ENDBRANCH   8   9
ENDBRANCH   5   8
ENDBRANCH   1   2
BRANCH   1  19
ATOM     19  N   UNL     1      49.505   8.641  13.597  0.00  0.00    +0.000 N 
ATOM     20  C   UNL     1      50.442   9.622  13.404  0.00  0.00    +0.000 C 
ATOM     21  O   UNL     1      50.206  10.813  13.573  0.00  0.00    +0.000 OA
ATOM     22  H   UNL     1      49.792   7.674  13.540  0.00  0.00    +0.000 HD
BRANCH  20  23
ATOM     23  C   UNL     1      51.756   9.158  12.938  0.00  0.00    +0.000 A 
ATOM     24  C   UNL     1      52.910   9.501  13.631  0.00  0.00    +0.000 A 
ATOM     25  S   UNL     1      54.340   8.942  12.885  0.00  0.00    +0.000 S 
ATOM     26  C   UNL     1      53.464   8.187  11.638  0.00  0.00    +0.000 A 
ATOM     27  N   UNL     1      54.097   7.528  10.628  0.00  0.00    +0.000 NA
ATOM     28  C   UNL     1      53.305   6.990   9.761  0.00  0.00    +0.000 A 
ATOM     29  N   UNL     1      51.937   7.032   9.821  0.00  0.00    +0.000 N 
ATOM     30  C   UNL     1      51.258   7.665  10.832  0.00  0.00    +0.000 A 
ATOM     31  O   UNL     1      50.033   7.655  10.871  0.00  0.00    +0.000 OA
ATOM     32  C   UNL     1      52.101   8.334  11.804  0.00  0.00    +0.000 A 
ATOM     33  H   UNL     1      51.369   6.577   9.122  0.00  0.00    +0.000 HD
ENDBRANCH  20  23
ENDBRANCH   1  19
BRANCH   1  34
ATOM     34  C   UNL     1      48.220   8.991  15.711  0.00  0.00    +0.000 C 
BRANCH  34  35
ATOM     35  N   UNL     1      48.337  10.367  16.209  0.00  0.00    +0.000 NA
ATOM     36  H   UNL     1      48.081  11.010  15.461  0.00  0.00    +0.000 HD
ATOM     37  H   UNL     1      49.310  10.564  16.439  0.00  0.00    +0.000 HD
ENDBRANCH  34  35
ENDBRANCH   1  34
TORSDOF 8
ENDMDL
