MODEL 1
REMARK VINA RESULT:    -7.856      0.000      0.000
REMARK INTER + INTRA:         -12.187
REMARK INTER:                 -11.071
REMARK INTRA:                  -1.116
REMARK UNBOUND:                -1.116
REMARK  Name = 
REMARK  7 active torsions:
REMARK  status: ('A' for Active; 'I' for Inactive)
REMARK    1  A    between atoms: C_2  and  C_19
REMARK    2  A    between atoms: N_3  and  C_4
REMARK    3  A    between atoms: C_4  and  C_5
REMARK    4  A    between atoms: C_8  and  C_9
REMARK    5  A    between atoms: C_9  and  O_10
REMARK    6  A    between atoms: O_10  and  C_11
REMARK    7  A    between atoms: C_11  and  C_12
REMARK                            x       y       z     vdW  Elec       q    Type
REMARK                         _______ _______ _______ _____ _____    ______ ____
ROOT
ATOM      1  C   UNL     1      46.848   7.013  13.012  0.00  0.00    +0.000 C 
ENDROOT
BRANCH   1   2
ATOM      2  C   UNL     1      46.173   5.935  12.216  0.00  0.00    +0.000 A 
ATOM      3  C   UNL     1      45.948   6.066  10.846  0.00  0.00    +0.000 A 
ATOM      4  C   UNL     1      45.294   5.048  10.150  0.00  0.00    +0.000 A 
ATOM      5  C   UNL     1      44.900   3.898  10.832  0.00  0.00    +0.000 A 
ATOM      6  N   UNL     1      45.121   3.744  12.163  0.00  0.00    +0.000 NA
ATOM      7  C   UNL     1      45.757   4.750  12.814  0.00  0.00    +0.000 A 
BRANCH   5   8
ATOM      8  C   UNL     1      44.141   2.793  10.123  0.00  0.00    +0.000 C 
BRANCH   8   9
ATOM      9  O   UNL     1      44.450   2.773   8.725  0.00  0.00    +0.000 OA
BRANCH   9  10
ATOM     10  C   UNL     1      45.297   1.678   8.373  0.00  0.00    +0.000 C 
BRANCH  10  11
ATOM     11  C   UNL     1      46.679   2.230   8.004  0.00  0.00    +0.000 C 
ATOM     12  C   UNL     1      46.603   3.394   7.017  0.00  0.00    +0.000 C 
ATOM     13  C   UNL     1      46.794   2.728   5.672  0.00  0.00    +0.000 C 
ATOM     14  N   UNL     1      47.804   1.698   5.929  0.00  0.00    +0.000 NA
ATOM     15  C   UNL     1      47.536   1.187   7.283  0.00  0.00    +0.000 C 
ATOM     16  H   UNL     1      48.722   2.146   5.932  0.00  0.00    +0.000 HD
ENDBRANCH  10  11
ENDBRANCH   9  10
ENDBRANCH   8   9
ENDBRANCH   5   8
ENDBRANCH   1   2
BRANCH   1  19
ATOM     17  O   UNL     1      49.460   6.874  13.947  0.00  0.00    +0.000 OA
ATOM     18  C   UNL     1      48.550   6.583  14.719  0.00  0.00    +0.000 C 
ATOM     19  N   UNL     1      47.236   6.550  14.319  0.00  0.00    +0.000 N 
ATOM     20  H   UNL     1      46.510   6.524  15.028  0.00  0.00    +0.000 HD
BRANCH  18  21
ATOM     21  C   UNL     1      48.815   6.213  16.114  0.00  0.00    +0.000 A 
ATOM     22  C   UNL     1      49.411   7.122  16.978  0.00  0.00    +0.000 A 
ATOM     23  S   UNL     1      49.667   6.503  18.548  0.00  0.00    +0.000 S 
ATOM     24  C   UNL     1      48.943   5.017  18.141  0.00  0.00    +0.000 A 
ATOM     25  N   UNL     1      48.814   4.022  19.059  0.00  0.00    +0.000 NA
ATOM     26  C   UNL     1      48.216   2.965  18.617  0.00  0.00    +0.000 A 
ATOM     27  N   UNL     1      47.741   2.809  17.344  0.00  0.00    +0.000 N 
ATOM     28  C   UNL     1      47.874   3.774  16.377  0.00  0.00    +0.000 A 
ATOM     29  O   UNL     1      47.478   3.587  15.230  0.00  0.00    +0.000 OA
ATOM     30  C   UNL     1      48.530   4.988  16.822  0.00  0.00    +0.000 A 
ATOM     31  H   UNL     1      47.289   1.952  17.058  0.00  0.00    +0.000 HD
ENDBRANCH  18  21
ENDBRANCH   1  19
TORSDOF 7
ENDMDL
MODEL 2
REMARK VINA RESULT:    -7.119      1.817      2.411
REMARK INTER + INTRA:         -11.148
REMARK INTER:                 -10.247
REMARK INTRA:                  -0.901
REMARK UNBOUND:                -1.116
REMARK  Name = 
REMARK  7 active torsions:
REMARK  status: ('A' for Active; 'I' for Inactive)
REMARK    1  A    between atoms: C_2  and  C_19
REMARK    2  A    between atoms: N_3  and  C_4
REMARK    3  A    between atoms: C_4  and  C_5
REMARK    4  A    between atoms: C_8  and  C_9
REMARK    5  A    between atoms: C_9  and  O_10
REMARK    6  A    between atoms: O_10  and  C_11
REMARK    7  A    between atoms: C_11  and  C_12
REMARK                            x       y       z     vdW  Elec       q    Type
REMARK                         _______ _______ _______ _____ _____    ______ ____
ROOT
ATOM      1  C   UNL     1      47.611   6.868  13.590  0.00  0.00    +0.000 C 
ENDROOT
BRANCH   1   2
ATOM      2  C   UNL     1      46.712   6.034  12.724  0.00  0.00    +0.000 A 
ATOM      3  C   UNL     1      46.470   6.359  11.389  0.00  0.00    +0.000 A 
ATOM      4  C   UNL     1      45.608   5.569  10.629  0.00  0.00    +0.000 A 
ATOM      5  C   UNL     1      45.021   4.445  11.207  0.00  0.00    +0.000 A 
ATOM      6  N   UNL     1      45.253   4.103  12.501  0.00  0.00    +0.000 NA
ATOM      7  C   UNL     1      46.094   4.890  13.217  0.00  0.00    +0.000 A 
BRANCH   5   8
ATOM      8  C   UNL     1      44.038   3.592  10.430  0.00  0.00    +0.000 C 
BRANCH   8   9
ATOM      9  O   UNL     1      44.263   3.704   9.020  0.00  0.00    +0.000 OA
BRANCH   9  10
ATOM     10  C   UNL     1      44.668   2.466   8.435  0.00  0.00    +0.000 C 
BRANCH  10  11
ATOM     11  C   UNL     1      46.191   2.486   8.259  0.00  0.00    +0.000 C 
ATOM     12  C   UNL     1      46.648   3.497   7.209  0.00  0.00    +0.000 C 
ATOM     13  C   UNL     1      46.771   2.666   5.950  0.00  0.00    +0.000 C 
ATOM     14  N   UNL     1      47.323   1.393   6.420  0.00  0.00    +0.000 NA
ATOM     15  C   UNL     1      46.722   1.147   7.742  0.00  0.00    +0.000 C 
ATOM     16  H   UNL     1      48.331   1.508   6.544  0.00  0.00    +0.000 HD
ENDBRANCH  10  11
ENDBRANCH   9  10
ENDBRANCH   8   9
ENDBRANCH   5   8
ENDBRANCH   1   2
BRANCH   1  19
ATOM     17  O   UNL     1      49.912   6.675  15.133  0.00  0.00    +0.000 OA
ATOM     18  C   UNL     1      48.839   6.379  15.651  0.00  0.00    +0.000 C 
ATOM     19  N   UNL     1      47.663   6.372  14.941  0.00  0.00    +0.000 N 
ATOM     20  H   UNL     1      46.785   6.339  15.450  0.00  0.00    +0.000 HD
BRANCH  18  21
ATOM     21  C   UNL     1      48.752   5.975  17.059  0.00  0.00    +0.000 A 
ATOM     22  C   UNL     1      49.066   4.676  17.434  0.00  0.00    +0.000 A 
ATOM     23  S   UNL     1      48.878   4.384  19.105  0.00  0.00    +0.000 S 
ATOM     24  C   UNL     1      48.420   5.998  19.392  0.00  0.00    +0.000 A 
ATOM     25  N   UNL     1      48.133   6.437  20.647  0.00  0.00    +0.000 NA
ATOM     26  C   UNL     1      47.834   7.692  20.717  0.00  0.00    +0.000 A 
ATOM     27  N   UNL     1      47.789   8.546  19.650  0.00  0.00    +0.000 N 
ATOM     28  C   UNL     1      48.041   8.143  18.362  0.00  0.00    +0.000 A 
ATOM     29  O   UNL     1      47.947   8.922  17.420  0.00  0.00    +0.000 OA
ATOM     30  C   UNL     1      48.393   6.743  18.227  0.00  0.00    +0.000 A 
ATOM     31  H   UNL     1      47.537   9.517  19.771  0.00  0.00    +0.000 HD
ENDBRANCH  18  21
ENDBRANCH   1  19
TORSDOF 7
ENDMDL
MODEL 3
REMARK VINA RESULT:    -6.926      1.575      2.073
REMARK INTER + INTRA:         -10.877
REMARK INTER:                 -10.313
REMARK INTRA:                  -0.564
REMARK UNBOUND:                -1.116
REMARK  Name = 
REMARK  7 active torsions:
REMARK  status: ('A' for Active; 'I' for Inactive)
REMARK    1  A    between atoms: C_2  and  C_19
REMARK    2  A    between atoms: N_3  and  C_4
REMARK    3  A    between atoms: C_4  and  C_5
REMARK    4  A    between atoms: C_8  and  C_9
REMARK    5  A    between atoms: C_9  and  O_10
REMARK    6  A    between atoms: O_10  and  C_11
REMARK    7  A    between atoms: C_11  and  C_12
REMARK                            x       y       z     vdW  Elec       q    Type
REMARK                         _______ _______ _______ _____ _____    ______ ____
ROOT
ATOM      1  C   UNL     1      48.076   6.947  13.616  0.00  0.00    +0.000 C 
ENDROOT
BRANCH   1   2
ATOM      2  C   UNL     1      46.893   6.350  12.912  0.00  0.00    +0.000 A 
ATOM      3  C   UNL     1      46.586   6.673  11.591  0.00  0.00    +0.000 A 
ATOM      4  C   UNL     1      45.461   6.113  10.984  0.00  0.00    +0.000 A 
ATOM      5  C   UNL     1      44.674   5.213  11.701  0.00  0.00    +0.000 A 
ATOM      6  N   UNL     1      44.963   4.875  12.983  0.00  0.00    +0.000 NA
ATOM      7  C   UNL     1      46.061   5.436  13.549  0.00  0.00    +0.000 A 
BRANCH   5   8
ATOM      8  C   UNL     1      43.416   4.624  11.095  0.00  0.00    +0.000 C 
BRANCH   8   9
ATOM      9  O   UNL     1      43.534   3.204  10.944  0.00  0.00    +0.000 OA
BRANCH   9  10
ATOM     10  C   UNL     1      44.794   2.820  10.393  0.00  0.00    +0.000 C 
BRANCH  10  11
ATOM     11  C   UNL     1      44.591   2.458   8.917  0.00  0.00    +0.000 C 
ATOM     12  C   UNL     1      45.570   1.390   8.434  0.00  0.00    +0.000 C 
ATOM     13  C   UNL     1      46.693   2.195   7.816  0.00  0.00    +0.000 C 
ATOM     14  N   UNL     1      46.005   3.300   7.143  0.00  0.00    +0.000 NA
ATOM     15  C   UNL     1      44.858   3.651   7.996  0.00  0.00    +0.000 C 
ATOM     16  H   UNL     1      45.647   2.956   6.250  0.00  0.00    +0.000 HD
ENDBRANCH  10  11
ENDBRANCH   9  10
ENDBRANCH   8   9
ENDBRANCH   5   8
ENDBRANCH   1   2
BRANCH   1  19
ATOM     17  O   UNL     1      50.152   6.536  15.415  0.00  0.00    +0.000 OA
ATOM     18  C   UNL     1      49.029   6.752  15.864  0.00  0.00    +0.000 C 
ATOM     19  N   UNL     1      47.932   6.890  15.048  0.00  0.00    +0.000 N 
ATOM     20  H   UNL     1      47.080   7.282  15.437  0.00  0.00    +0.000 HD
BRANCH  18  21
ATOM     21  C   UNL     1      48.782   6.838  17.307  0.00  0.00    +0.000 A 
ATOM     22  C   UNL     1      48.395   8.041  17.881  0.00  0.00    +0.000 A 
ATOM     23  S   UNL     1      48.182   7.954  19.572  0.00  0.00    +0.000 S 
ATOM     24  C   UNL     1      48.550   6.293  19.588  0.00  0.00    +0.000 A 
ATOM     25  N   UNL     1      48.527   5.578  20.745  0.00  0.00    +0.000 NA
ATOM     26  C   UNL     1      48.794   4.321  20.600  0.00  0.00    +0.000 A 
ATOM     27  N   UNL     1      49.087   3.716  19.409  0.00  0.00    +0.000 N 
ATOM     28  C   UNL     1      49.150   4.402  18.221  0.00  0.00    +0.000 A 
ATOM     29  O   UNL     1      49.460   3.840  17.175  0.00  0.00    +0.000 OA
ATOM     30  C   UNL     1      48.848   5.817  18.325  0.00  0.00    +0.000 A 
ATOM     31  H   UNL     1      49.297   2.729  19.364  0.00  0.00    +0.000 HD
ENDBRANCH  18  21
ENDBRANCH   1  19
TORSDOF 7
ENDMDL
MODEL 4
REMARK VINA RESULT:    -6.910      3.506      8.407
REMARK INTER + INTRA:         -10.854
REMARK INTER:                  -9.596
REMARK INTRA:                  -1.257
REMARK UNBOUND:                -1.116
REMARK  Name = 
REMARK  7 active torsions:
REMARK  status: ('A' for Active; 'I' for Inactive)
REMARK    1  A    between atoms: C_2  and  C_19
REMARK    2  A    between atoms: N_3  and  C_4
REMARK    3  A    between atoms: C_4  and  C_5
REMARK    4  A    between atoms: C_8  and  C_9
REMARK    5  A    between atoms: C_9  and  O_10
REMARK    6  A    between atoms: O_10  and  C_11
REMARK    7  A    between atoms: C_11  and  C_12
REMARK                            x       y       z     vdW  Elec       q    Type
REMARK                         _______ _______ _______ _____ _____    ______ ____
ROOT
ATOM      1  C   UNL     1      48.309   7.831  12.256  0.00  0.00    +0.000 C 
ENDROOT
BRANCH   1   2
ATOM      2  C   UNL     1      48.995   7.495  13.548  0.00  0.00    +0.000 A 
ATOM      3  C   UNL     1      50.240   8.030  13.878  0.00  0.00    +0.000 A 
ATOM      4  C   UNL     1      50.853   7.670  15.079  0.00  0.00    +0.000 A 
ATOM      5  C   UNL     1      50.196   6.801  15.948  0.00  0.00    +0.000 A 
ATOM      6  N   UNL     1      48.977   6.281  15.653  0.00  0.00    +0.000 NA
ATOM      7  C   UNL     1      48.406   6.646  14.478  0.00  0.00    +0.000 A 
BRANCH   5   8
ATOM      8  C   UNL     1      50.850   6.347  17.237  0.00  0.00    +0.000 C 
BRANCH   8   9
ATOM      9  O   UNL     1      49.900   6.300  18.308  0.00  0.00    +0.000 OA
BRANCH   9  10
ATOM     10  C   UNL     1      50.055   5.135  19.120  0.00  0.00    +0.000 C 
BRANCH  10  11
ATOM     11  C   UNL     1      48.666   4.550  19.402  0.00  0.00    +0.000 C 
ATOM     12  C   UNL     1      48.397   3.269  18.615  0.00  0.00    +0.000 C 
ATOM     13  C   UNL     1      47.659   3.757  17.388  0.00  0.00    +0.000 C 
ATOM     14  N   UNL     1      46.788   4.818  17.900  0.00  0.00    +0.000 NA
ATOM     15  C   UNL     1      47.548   5.497  18.963  0.00  0.00    +0.000 C 
ATOM     16  H   UNL     1      45.967   4.381  18.323  0.00  0.00    +0.000 HD
ENDBRANCH  10  11
ENDBRANCH   9  10
ENDBRANCH   8   9
ENDBRANCH   5   8
ENDBRANCH   1   2
BRANCH   1  19
ATOM     17  O   UNL     1      45.568   7.797  11.808  0.00  0.00    +0.000 OA
ATOM     18  C   UNL     1      46.222   6.810  11.481  0.00  0.00    +0.000 C 
ATOM     19  N   UNL     1      47.568   6.710  11.736  0.00  0.00    +0.000 N 
ATOM     20  H   UNL     1      48.103   5.990  11.261  0.00  0.00    +0.000 HD
BRANCH  18  21
ATOM     21  C   UNL     1      45.595   5.654  10.832  0.00  0.00    +0.000 A 
ATOM     22  C   UNL     1      45.737   5.458   9.465  0.00  0.00    +0.000 A 
ATOM     23  S   UNL     1      44.915   4.079   8.884  0.00  0.00    +0.000 S 
ATOM     24  C   UNL     1      44.384   3.669  10.448  0.00  0.00    +0.000 A 
ATOM     25  N   UNL     1      43.634   2.555  10.668  0.00  0.00    +0.000 NA
ATOM     26  C   UNL     1      43.333   2.352  11.909  0.00  0.00    +0.000 A 
ATOM     27  N   UNL     1      43.707   3.161  12.946  0.00  0.00    +0.000 N 
ATOM     28  C   UNL     1      44.438   4.310  12.770  0.00  0.00    +0.000 A 
ATOM     29  O   UNL     1      44.719   5.039  13.716  0.00  0.00    +0.000 OA
ATOM     30  C   UNL     1      44.813   4.580  11.395  0.00  0.00    +0.000 A 
ATOM     31  H   UNL     1      43.430   2.952  13.896  0.00  0.00    +0.000 HD
ENDBRANCH  18  21
ENDBRANCH   1  19
TORSDOF 7
ENDMDL
MODEL 5
REMARK VINA RESULT:    -6.897      2.561      3.710
REMARK INTER + INTRA:         -10.835
REMARK INTER:                 -10.249
REMARK INTRA:                  -0.587
REMARK UNBOUND:                -1.116
REMARK  Name = 
REMARK  7 active torsions:
REMARK  status: ('A' for Active; 'I' for Inactive)
REMARK    1  A    between atoms: C_2  and  C_19
REMARK    2  A    between atoms: N_3  and  C_4
REMARK    3  A    between atoms: C_4  and  C_5
REMARK    4  A    between atoms: C_8  and  C_9
REMARK    5  A    between atoms: C_9  and  O_10
REMARK    6  A    between atoms: O_10  and  C_11
REMARK    7  A    between atoms: C_11  and  C_12
REMARK                            x       y       z     vdW  Elec       q    Type
REMARK                         _______ _______ _______ _____ _____    ______ ____
ROOT
ATOM      1  C   UNL     1      44.032   5.768  12.919  0.00  0.00    +0.000 C 
ENDROOT
BRANCH   1   2
ATOM      2  C   UNL     1      44.205   4.767  11.814  0.00  0.00    +0.000 A 
ATOM      3  C   UNL     1      44.911   5.072  10.651  0.00  0.00    +0.000 A 
ATOM      4  C   UNL     1      45.025   4.118   9.639  0.00  0.00    +0.000 A 
ATOM      5  C   UNL     1      44.455   2.859   9.819  0.00  0.00    +0.000 A 
ATOM      6  N   UNL     1      43.775   2.537  10.949  0.00  0.00    +0.000 NA
ATOM      7  C   UNL     1      43.678   3.484  11.915  0.00  0.00    +0.000 A 
BRANCH   5   8
ATOM      8  C   UNL     1      44.513   1.814   8.722  0.00  0.00    +0.000 C 
BRANCH   8   9
ATOM      9  O   UNL     1      45.708   1.031   8.820  0.00  0.00    +0.000 OA
BRANCH   9  10
ATOM     10  C   UNL     1      46.377   0.903   7.565  0.00  0.00    +0.000 C 
BRANCH  10  11
ATOM     11  C   UNL     1      47.179   2.185   7.308  0.00  0.00    +0.000 C 
ATOM     12  C   UNL     1      46.411   3.199   6.462  0.00  0.00    +0.000 C 
ATOM     13  C   UNL     1      46.893   2.921   5.055  0.00  0.00    +0.000 C 
ATOM     14  N   UNL     1      48.320   2.634   5.222  0.00  0.00    +0.000 NA
ATOM     15  C   UNL     1      48.448   1.911   6.498  0.00  0.00    +0.000 C 
ATOM     16  H   UNL     1      48.816   3.523   5.307  0.00  0.00    +0.000 HD
ENDBRANCH  10  11
ENDBRANCH   9  10
ENDBRANCH   8   9
ENDBRANCH   5   8
ENDBRANCH   1   2
BRANCH   1  19
ATOM     17  O   UNL     1      46.050   4.303  14.143  0.00  0.00    +0.000 OA
ATOM     18  C   UNL     1      46.262   5.486  13.892  0.00  0.00    +0.000 C 
ATOM     19  N   UNL     1      45.295   6.303  13.359  0.00  0.00    +0.000 N 
ATOM     20  H   UNL     1      45.573   7.198  12.967  0.00  0.00    +0.000 HD
BRANCH  18  21
ATOM     21  C   UNL     1      47.556   6.113  14.184  0.00  0.00    +0.000 A 
ATOM     22  C   UNL     1      48.134   5.972  15.439  0.00  0.00    +0.000 A 
ATOM     23  S   UNL     1      49.620   6.794  15.601  0.00  0.00    +0.000 S 
ATOM     24  C   UNL     1      49.568   7.324  13.984  0.00  0.00    +0.000 A 
ATOM     25  N   UNL     1      50.572   8.073  13.456  0.00  0.00    +0.000 NA
ATOM     26  C   UNL     1      50.412   8.373  12.208  0.00  0.00    +0.000 A 
ATOM     27  N   UNL     1      49.341   7.999  11.445  0.00  0.00    +0.000 N 
ATOM     28  C   UNL     1      48.291   7.269  11.942  0.00  0.00    +0.000 A 
ATOM     29  O   UNL     1      47.322   6.987  11.244  0.00  0.00    +0.000 OA
ATOM     30  C   UNL     1      48.424   6.895  13.337  0.00  0.00    +0.000 A 
ATOM     31  H   UNL     1      49.272   8.275  10.475  0.00  0.00    +0.000 HD
ENDBRANCH  18  21
ENDBRANCH   1  19
TORSDOF 7
ENDMDL
MODEL 6
REMARK VINA RESULT:    -6.745      3.190      4.516
REMARK INTER + INTRA:         -10.622
REMARK INTER:                  -9.756
REMARK INTRA:                  -0.866
REMARK UNBOUND:                -1.116
REMARK  Name = 
REMARK  7 active torsions:
REMARK  status: ('A' for Active; 'I' for Inactive)
REMARK    1  A    between atoms: C_2  and  C_19
REMARK    2  A    between atoms: N_3  and  C_4
REMARK    3  A    between atoms: C_4  and  C_5
REMARK    4  A    between atoms: C_8  and  C_9
REMARK    5  A    between atoms: C_9  and  O_10
REMARK    6  A    between atoms: O_10  and  C_11
REMARK    7  A    between atoms: C_11  and  C_12
REMARK                            x       y       z     vdW  Elec       q    Type
REMARK                         _______ _______ _______ _____ _____    ______ ____
ROOT
ATOM      1  C   UNL     1      49.036   6.639  16.500  0.00  0.00    +0.000 C 
ENDROOT
BRANCH   1   2
ATOM      2  C   UNL     1      48.232   5.832  15.522  0.00  0.00    +0.000 A 
ATOM      3  C   UNL     1      48.053   6.246  14.202  0.00  0.00    +0.000 A 
ATOM      4  C   UNL     1      47.277   5.477  13.334  0.00  0.00    +0.000 A 
ATOM      5  C   UNL     1      46.714   4.287  13.793  0.00  0.00    +0.000 A 
ATOM      6  N   UNL     1      46.887   3.859  15.070  0.00  0.00    +0.000 NA
ATOM      7  C   UNL     1      47.645   4.628  15.892  0.00  0.00    +0.000 A 
BRANCH   5   8
ATOM      8  C   UNL     1      45.822   3.451  12.896  0.00  0.00    +0.000 C 
BRANCH   8   9
ATOM      9  O   UNL     1      44.453   3.853  13.013  0.00  0.00    +0.000 OA
BRANCH   9  10
ATOM     10  C   UNL     1      43.634   3.294  11.986  0.00  0.00    +0.000 C 
BRANCH  10  11
ATOM     11  C   UNL     1      43.319   4.392  10.963  0.00  0.00    +0.000 C 
ATOM     12  C   UNL     1      44.158   4.268   9.692  0.00  0.00    +0.000 C 
ATOM     13  C   UNL     1      45.324   5.198   9.947  0.00  0.00    +0.000 C 
ATOM     14  N   UNL     1      44.720   6.338  10.640  0.00  0.00    +0.000 NA
ATOM     15  C   UNL     1      43.659   5.784  11.497  0.00  0.00    +0.000 C 
ATOM     16  H   UNL     1      44.283   6.942   9.941  0.00  0.00    +0.000 HD
ENDBRANCH  10  11
ENDBRANCH   9  10
ENDBRANCH   8   9
ENDBRANCH   5   8
ENDBRANCH   1   2
BRANCH   1  19
ATOM     17  O   UNL     1      49.238   5.390  18.972  0.00  0.00    +0.000 OA
ATOM     18  C   UNL     1      50.171   5.269  18.183  0.00  0.00    +0.000 C 
ATOM     19  N   UNL     1      50.189   5.915  16.971  0.00  0.00    +0.000 N 
ATOM     20  H   UNL     1      50.860   5.618  16.269  0.00  0.00    +0.000 HD
BRANCH  18  21
ATOM     21  C   UNL     1      51.348   4.455  18.505  0.00  0.00    +0.000 A 
ATOM     22  C   UNL     1      52.345   4.962  19.328  0.00  0.00    +0.000 A 
ATOM     23  S   UNL     1      53.647   3.885  19.564  0.00  0.00    +0.000 S 
ATOM     24  C   UNL     1      52.900   2.685  18.617  0.00  0.00    +0.000 A 
ATOM     25  N   UNL     1      53.485   1.472  18.426  0.00  0.00    +0.000 NA
ATOM     26  C   UNL     1      52.787   0.650  17.713  0.00  0.00    +0.000 A 
ATOM     27  N   UNL     1      51.563   0.931  17.170  0.00  0.00    +0.000 N 
ATOM     28  C   UNL     1      50.947   2.149  17.312  0.00  0.00    +0.000 A 
ATOM     29  O   UNL     1      49.870   2.386  16.775  0.00  0.00    +0.000 OA
ATOM     30  C   UNL     1      51.684   3.107  18.113  0.00  0.00    +0.000 A 
ATOM     31  H   UNL     1      51.072   0.246  16.613  0.00  0.00    +0.000 HD
ENDBRANCH  18  21
ENDBRANCH   1  19
TORSDOF 7
ENDMDL
MODEL 7
REMARK VINA RESULT:    -6.711      1.842      2.381
REMARK INTER + INTRA:         -10.573
REMARK INTER:                  -9.723
REMARK INTRA:                  -0.850
REMARK UNBOUND:                -1.116
REMARK  Name = 
REMARK  7 active torsions:
REMARK  status: ('A' for Active; 'I' for Inactive)
REMARK    1  A    between atoms: C_2  and  C_19
REMARK    2  A    between atoms: N_3  and  C_4
REMARK    3  A    between atoms: C_4  and  C_5
REMARK    4  A    between atoms: C_8  and  C_9
REMARK    5  A    between atoms: C_9  and  O_10
REMARK    6  A    between atoms: O_10  and  C_11
REMARK    7  A    between atoms: C_11  and  C_12
REMARK                            x       y       z     vdW  Elec       q    Type
REMARK                         _______ _______ _______ _____ _____    ______ ____
ROOT
ATOM      1  C   UNL     1      47.543   7.125  13.652  0.00  0.00    +0.000 C 
ENDROOT
BRANCH   1   2
ATOM      2  C   UNL     1      46.671   6.310  12.743  0.00  0.00    +0.000 A 
ATOM      3  C   UNL     1      46.613   6.551  11.371  0.00  0.00    +0.000 A 
ATOM      4  C   UNL     1      45.769   5.783  10.567  0.00  0.00    +0.000 A 
ATOM      5  C   UNL     1      45.015   4.764  11.146  0.00  0.00    +0.000 A 
ATOM      6  N   UNL     1      45.067   4.503  12.477  0.00  0.00    +0.000 NA
ATOM      7  C   UNL     1      45.894   5.266  13.235  0.00  0.00    +0.000 A 
BRANCH   5   8
ATOM      8  C   UNL     1      44.048   3.943  10.315  0.00  0.00    +0.000 C 
BRANCH   8   9
ATOM      9  O   UNL     1      44.258   4.162   8.915  0.00  0.00    +0.000 OA
BRANCH   9  10
ATOM     10  C   UNL     1      44.572   2.956   8.219  0.00  0.00    +0.000 C 
BRANCH  10  11
ATOM     11  C   UNL     1      46.096   2.784   8.207  0.00  0.00    +0.000 C 
ATOM     12  C   UNL     1      46.770   3.592   7.099  0.00  0.00    +0.000 C 
ATOM     13  C   UNL     1      46.906   2.596   5.969  0.00  0.00    +0.000 C 
ATOM     14  N   UNL     1      47.251   1.342   6.644  0.00  0.00    +0.000 NA
ATOM     15  C   UNL     1      46.505   1.339   7.913  0.00  0.00    +0.000 C 
ATOM     16  H   UNL     1      48.249   1.360   6.860  0.00  0.00    +0.000 HD
ENDBRANCH  10  11
ENDBRANCH   9  10
ENDBRANCH   8   9
ENDBRANCH   5   8
ENDBRANCH   1   2
BRANCH   1  19
ATOM     17  O   UNL     1      48.644   8.082  16.016  0.00  0.00    +0.000 OA
ATOM     18  C   UNL     1      48.628   6.868  15.833  0.00  0.00    +0.000 C 
ATOM     19  N   UNL     1      48.173   6.313  14.661  0.00  0.00    +0.000 N 
ATOM     20  H   UNL     1      47.972   5.318  14.637  0.00  0.00    +0.000 HD
BRANCH  18  21
ATOM     21  C   UNL     1      49.132   5.931  16.843  0.00  0.00    +0.000 A 
ATOM     22  C   UNL     1      48.247   5.180  17.605  0.00  0.00    +0.000 A 
ATOM     23  S   UNL     1      49.015   4.171  18.746  0.00  0.00    +0.000 S 
ATOM     24  C   UNL     1      50.559   4.665  18.227  0.00  0.00    +0.000 A 
ATOM     25  N   UNL     1      51.688   4.153  18.787  0.00  0.00    +0.000 NA
ATOM     26  C   UNL     1      52.787   4.596  18.269  0.00  0.00    +0.000 A 
ATOM     27  N   UNL     1      52.861   5.504  17.250  0.00  0.00    +0.000 N 
ATOM     28  C   UNL     1      51.750   6.069  16.674  0.00  0.00    +0.000 A 
ATOM     29  O   UNL     1      51.850   6.916  15.792  0.00  0.00    +0.000 OA
ATOM     30  C   UNL     1      50.488   5.599  17.211  0.00  0.00    +0.000 A 
ATOM     31  H   UNL     1      53.754   5.817  16.896  0.00  0.00    +0.000 HD
ENDBRANCH  18  21
ENDBRANCH   1  19
TORSDOF 7
ENDMDL
MODEL 8
REMARK VINA RESULT:    -6.627      3.001      8.830
REMARK INTER + INTRA:         -10.455
REMARK INTER:                  -9.195
REMARK INTRA:                  -1.260
REMARK UNBOUND:                -1.116
REMARK  Name = 
REMARK  7 active torsions:
REMARK  status: ('A' for Active; 'I' for Inactive)
REMARK    1  A    between atoms: C_2  and  C_19
REMARK    2  A    between atoms: N_3  and  C_4
REMARK    3  A    between atoms: C_4  and  C_5
REMARK    4  A    between atoms: C_8  and  C_9
REMARK    5  A    between atoms: C_9  and  O_10
REMARK    6  A    between atoms: O_10  and  C_11
REMARK    7  A    between atoms: C_11  and  C_12
REMARK                            x       y       z     vdW  Elec       q    Type
REMARK                         _______ _______ _______ _____ _____    ______ ____
ROOT
ATOM      1  C   UNL     1      47.552   7.755  11.976  0.00  0.00    +0.000 C 
ENDROOT
BRANCH   1   2
ATOM      2  C   UNL     1      48.149   7.908  13.344  0.00  0.00    +0.000 A 
ATOM      3  C   UNL     1      48.997   6.944  13.887  0.00  0.00    +0.000 A 
ATOM      4  C   UNL     1      49.509   7.116  15.174  0.00  0.00    +0.000 A 
ATOM      5  C   UNL     1      49.188   8.269  15.889  0.00  0.00    +0.000 A 
ATOM      6  N   UNL     1      48.376   9.227  15.373  0.00  0.00    +0.000 NA
ATOM      7  C   UNL     1      47.890   9.032  14.122  0.00  0.00    +0.000 A 
BRANCH   5   8
ATOM      8  C   UNL     1      49.682   8.468  17.308  0.00  0.00    +0.000 C 
BRANCH   8   9
ATOM      9  O   UNL     1      48.965   7.633  18.224  0.00  0.00    +0.000 OA
BRANCH   9  10
ATOM     10  C   UNL     1      49.783   6.597  18.767  0.00  0.00    +0.000 C 
BRANCH  10  11
ATOM     11  C   UNL     1      48.874   5.452  19.232  0.00  0.00    +0.000 C 
ATOM     12  C   UNL     1      48.760   4.335  18.195  0.00  0.00    +0.000 C 
ATOM     13  C   UNL     1      47.498   4.686  17.437  0.00  0.00    +0.000 C 
ATOM     14  N   UNL     1      46.592   5.186  18.474  0.00  0.00    +0.000 NA
ATOM     15  C   UNL     1      47.431   5.917  19.437  0.00  0.00    +0.000 C 
ATOM     16  H   UNL     1      46.181   4.382  18.953  0.00  0.00    +0.000 HD
ENDBRANCH  10  11
ENDBRANCH   9  10
ENDBRANCH   8   9
ENDBRANCH   5   8
ENDBRANCH   1   2
BRANCH   1  19
ATOM     17  O   UNL     1      44.790   7.465  12.004  0.00  0.00    +0.000 OA
ATOM     18  C   UNL     1      45.477   6.469  11.791  0.00  0.00    +0.000 C 
ATOM     19  N   UNL     1      46.849   6.506  11.835  0.00  0.00    +0.000 N 
ATOM     20  H   UNL     1      47.372   5.730  11.441  0.00  0.00    +0.000 HD
BRANCH  18  21
ATOM     21  C   UNL     1      44.869   5.162  11.514  0.00  0.00    +0.000 A 
ATOM     22  C   UNL     1      44.086   4.537  12.475  0.00  0.00    +0.000 A 
ATOM     23  S   UNL     1      43.491   3.015  11.985  0.00  0.00    +0.000 S 
ATOM     24  C   UNL     1      44.217   3.162  10.453  0.00  0.00    +0.000 A 
ATOM     25  N   UNL     1      44.077   2.191   9.510  0.00  0.00    +0.000 NA
ATOM     26  C   UNL     1      44.655   2.454   8.384  0.00  0.00    +0.000 A 
ATOM     27  N   UNL     1      45.363   3.593   8.116  0.00  0.00    +0.000 N 
ATOM     28  C   UNL     1      45.556   4.586   9.044  0.00  0.00    +0.000 A 
ATOM     29  O   UNL     1      46.235   5.575   8.788  0.00  0.00    +0.000 OA
ATOM     30  C   UNL     1      44.918   4.346  10.324  0.00  0.00    +0.000 A 
ATOM     31  H   UNL     1      45.800   3.734   7.216  0.00  0.00    +0.000 HD
ENDBRANCH  18  21
ENDBRANCH   1  19
TORSDOF 7
ENDMDL
MODEL 9
REMARK VINA RESULT:    -6.607      2.214      3.760
REMARK INTER + INTRA:         -10.427
REMARK INTER:                  -9.364
REMARK INTRA:                  -1.062
REMARK UNBOUND:                -1.116
REMARK  Name = 
REMARK  7 active torsions:
REMARK  status: ('A' for Active; 'I' for Inactive)
REMARK    1  A    between atoms: C_2  and  C_19
REMARK    2  A    between atoms: N_3  and  C_4
REMARK    3  A    between atoms: C_4  and  C_5
REMARK    4  A    between atoms: C_8  and  C_9
REMARK    5  A    between atoms: C_9  and  O_10
REMARK    6  A    between atoms: O_10  and  C_11
REMARK    7  A    between atoms: C_11  and  C_12
REMARK                            x       y       z     vdW  Elec       q    Type
REMARK                         _______ _______ _______ _____ _____    ______ ____
ROOT
ATOM      1  C   UNL     1      47.184   4.690  14.599  0.00  0.00    +0.000 C 
ENDROOT
BRANCH   1   2
ATOM      2  C   UNL     1      46.363   4.632  13.345  0.00  0.00    +0.000 A 
ATOM      3  C   UNL     1      46.105   5.771  12.583  0.00  0.00    +0.000 A 
ATOM      4  C   UNL     1      45.316   5.675  11.436  0.00  0.00    +0.000 A 
ATOM      5  C   UNL     1      44.819   4.431  11.051  0.00  0.00    +0.000 A 
ATOM      6  N   UNL     1      45.070   3.307  11.771  0.00  0.00    +0.000 NA
ATOM      7  C   UNL     1      45.838   3.431  12.882  0.00  0.00    +0.000 A 
BRANCH   5   8
ATOM      8  C   UNL     1      43.916   4.293   9.842  0.00  0.00    +0.000 C 
BRANCH   8   9
ATOM      9  O   UNL     1      44.225   3.107   9.101  0.00  0.00    +0.000 OA
BRANCH   9  10
ATOM     10  C   UNL     1      44.941   3.390   7.899  0.00  0.00    +0.000 C 
BRANCH  10  11
ATOM     11  C   UNL     1      46.372   2.861   8.048  0.00  0.00    +0.000 C 
ATOM     12  C   UNL     1      47.278   3.284   6.893  0.00  0.00    +0.000 C 
ATOM     13  C   UNL     1      47.216   2.105   5.947  0.00  0.00    +0.000 C 
ATOM     14  N   UNL     1      47.206   0.940   6.835  0.00  0.00    +0.000 NA
ATOM     15  C   UNL     1      46.422   1.332   8.018  0.00  0.00    +0.000 C 
ATOM     16  H   UNL     1      48.165   0.758   7.133  0.00  0.00    +0.000 HD
ENDBRANCH  10  11
ENDBRANCH   9  10
ENDBRANCH   8   9
ENDBRANCH   5   8
ENDBRANCH   1   2
BRANCH   1  19
ATOM     17  O   UNL     1      49.153   5.331  16.451  0.00  0.00    +0.000 OA
ATOM     18  C   UNL     1      48.712   6.229  15.738  0.00  0.00    +0.000 C 
ATOM     19  N   UNL     1      47.685   6.017  14.851  0.00  0.00    +0.000 N 
ATOM     20  H   UNL     1      47.504   6.716  14.137  0.00  0.00    +0.000 HD
BRANCH  18  21
ATOM     21  C   UNL     1      49.230   7.599  15.819  0.00  0.00    +0.000 A 
ATOM     22  C   UNL     1      49.366   8.223  17.052  0.00  0.00    +0.000 A 
ATOM     23  S   UNL     1      49.955   9.821  16.946  0.00  0.00    +0.000 S 
ATOM     24  C   UNL     1      50.097   9.716  15.253  0.00  0.00    +0.000 A 
ATOM     25  N   UNL     1      50.576  10.757  14.520  0.00  0.00    +0.000 NA
ATOM     26  C   UNL     1      50.659  10.521  13.251  0.00  0.00    +0.000 A 
ATOM     27  N   UNL     1      50.304   9.346  12.650  0.00  0.00    +0.000 N 
ATOM     28  C   UNL     1      49.790   8.279  13.344  0.00  0.00    +0.000 A 
ATOM     29  O   UNL     1      49.437   7.254  12.770  0.00  0.00    +0.000 OA
ATOM     30  C   UNL     1      49.684   8.486  14.775  0.00  0.00    +0.000 A 
ATOM     31  H   UNL     1      50.385   9.228  11.649  0.00  0.00    +0.000 HD
ENDBRANCH  18  21
ENDBRANCH   1  19
TORSDOF 7
ENDMDL
