MODEL 1
REMARK VINA RESULT:    -8.884      0.000      0.000
REMARK INTER + INTRA:         -11.795
REMARK INTER:                 -10.961
REMARK INTRA:                  -0.834
REMARK UNBOUND:                -0.834
REMARK  Name = 
REMARK  4 active torsions:
REMARK  status: ('A' for Active; 'I' for Inactive)
REMARK    1  A    between atoms: C_2  and  C_4
REMARK    2  A    between atoms: N_8  and  C_9
REMARK    3  A    between atoms: C_9  and  C_10
REMARK    4  A    between atoms: C_13  and  C_14
REMARK                            x       y       z     vdW  Elec       q    Type
REMARK                         _______ _______ _______ _____ _____    ______ ____
ROOT
ATOM      1  C   UNL     1      46.399   2.285   7.695  0.00  0.00    +0.000 A 
ATOM      2  C   UNL     1      45.600   1.809   8.727  0.00  0.00    +0.000 A 
ATOM      3  C   UNL     1      44.753   2.694   9.393  0.00  0.00    +0.000 A 
ATOM      4  C   UNL     1      44.730   4.036   9.031  0.00  0.00    +0.000 A 
ATOM      5  N   UNL     1      43.836   4.945   9.568  0.00  0.00    +0.000 N 
ATOM      6  N   UNL     1      45.534   4.517   8.063  0.00  0.00    +0.000 NA
ATOM      7  C   UNL     1      46.353   3.642   7.421  0.00  0.00    +0.000 A 
ATOM      8  H   UNL     1      44.095   5.873   9.240  0.00  0.00    +0.000 HD
ENDROOT
BRANCH   1  10
ATOM      9  N   UNL     1      48.336   1.990   6.264  0.00  0.00    +0.000 N 
ATOM     10  C   UNL     1      47.266   1.407   6.886  0.00  0.00    +0.000 C 
ATOM     11  O   UNL     1      47.063   0.201   6.806  0.00  0.00    +0.000 OA
ATOM     12  H   UNL     1      48.991   1.362   5.817  0.00  0.00    +0.000 HD
ATOM     13  H   UNL     1      48.677   2.905   6.524  0.00  0.00    +0.000 HD
ENDBRANCH   1  10
BRANCH   5  14
ATOM     14  C   UNL     1      43.513   4.862  10.978  0.00  0.00    +0.000 C 
BRANCH  14  15
ATOM     15  C   UNL     1      44.701   5.291  11.803  0.00  0.00    +0.000 A 
ATOM     16  C   UNL     1      45.196   4.468  12.820  0.00  0.00    +0.000 A 
ATOM     17  C   UNL     1      46.306   4.858  13.579  0.00  0.00    +0.000 A 
ATOM     18  C   UNL     1      46.961   6.081  13.350  0.00  0.00    +0.000 A 
ATOM     19  C   UNL     1      46.440   6.900  12.330  0.00  0.00    +0.000 A 
ATOM     20  C   UNL     1      45.322   6.520  11.577  0.00  0.00    +0.000 A 
BRANCH  18  21
ATOM     21  C   UNL     1      48.147   6.494  14.144  0.00  0.00    +0.000 A 
ATOM     22  C   UNL     1      48.328   6.084  15.477  0.00  0.00    +0.000 A 
ATOM     23  C   UNL     1      49.452   6.469  16.217  0.00  0.00    +0.000 A 
ATOM     24  C   UNL     1      50.432   7.267  15.636  0.00  0.00    +0.000 A 
ATOM     25  C   UNL     1      50.282   7.688  14.320  0.00  0.00    +0.000 A 
ATOM     26  C   UNL     1      49.150   7.313  13.589  0.00  0.00    +0.000 A 
ENDBRANCH  18  21
ENDBRANCH  14  15
ENDBRANCH   5  14
TORSDOF 4
ENDMDL
MODEL 2
REMARK VINA RESULT:    -7.846      3.356      7.278
REMARK INTER + INTRA:         -10.515
REMARK INTER:                 -10.183
REMARK INTRA:                  -0.331
REMARK UNBOUND:                -0.834
REMARK  Name = 
REMARK  4 active torsions:
REMARK  status: ('A' for Active; 'I' for Inactive)
REMARK    1  A    between atoms: C_2  and  C_4
REMARK    2  A    between atoms: N_8  and  C_9
REMARK    3  A    between atoms: C_9  and  C_10
REMARK    4  A    between atoms: C_13  and  C_14
REMARK                            x       y       z     vdW  Elec       q    Type
REMARK                         _______ _______ _______ _____ _____    ______ ____
ROOT
ATOM      1  C   UNL     1      47.402   6.116  13.609  0.00  0.00    +0.000 A 
ATOM      2  C   UNL     1      46.527   6.770  12.750  0.00  0.00    +0.000 A 
ATOM      3  C   UNL     1      45.225   6.292  12.614  0.00  0.00    +0.000 A 
ATOM      4  C   UNL     1      44.825   5.162  13.320  0.00  0.00    +0.000 A 
ATOM      5  N   UNL     1      43.521   4.700  13.322  0.00  0.00    +0.000 N 
ATOM      6  N   UNL     1      45.678   4.493  14.119  0.00  0.00    +0.000 NA
ATOM      7  C   UNL     1      46.944   4.974  14.244  0.00  0.00    +0.000 A 
ATOM      8  H   UNL     1      43.505   3.804  13.805  0.00  0.00    +0.000 HD
ENDROOT
BRANCH   1  10
ATOM      9  N   UNL     1      49.476   7.085  12.805  0.00  0.00    +0.000 N 
ATOM     10  C   UNL     1      48.771   6.598  13.873  0.00  0.00    +0.000 C 
ATOM     11  O   UNL     1      49.245   6.603  15.003  0.00  0.00    +0.000 OA
ATOM     12  H   UNL     1      50.362   7.525  13.018  0.00  0.00    +0.000 HD
ATOM     13  H   UNL     1      49.029   7.340  11.936  0.00  0.00    +0.000 HD
ENDBRANCH   1  10
BRANCH   5  14
ATOM     14  C   UNL     1      42.759   4.744  12.090  0.00  0.00    +0.000 C 
BRANCH  14  15
ATOM     15  C   UNL     1      43.598   4.226  10.948  0.00  0.00    +0.000 A 
ATOM     16  C   UNL     1      43.917   5.052   9.866  0.00  0.00    +0.000 A 
ATOM     17  C   UNL     1      44.706   4.578   8.811  0.00  0.00    +0.000 A 
ATOM     18  C   UNL     1      45.203   3.262   8.799  0.00  0.00    +0.000 A 
ATOM     19  C   UNL     1      44.860   2.443   9.891  0.00  0.00    +0.000 A 
ATOM     20  C   UNL     1      44.061   2.909  10.942  0.00  0.00    +0.000 A 
BRANCH  18  21
ATOM     21  C   UNL     1      46.051   2.758   7.688  0.00  0.00    +0.000 A 
ATOM     22  C   UNL     1      46.268   3.508   6.518  0.00  0.00    +0.000 A 
ATOM     23  C   UNL     1      47.074   3.030   5.479  0.00  0.00    +0.000 A 
ATOM     24  C   UNL     1      47.695   1.791   5.589  0.00  0.00    +0.000 A 
ATOM     25  C   UNL     1      47.501   1.026   6.733  0.00  0.00    +0.000 A 
ATOM     26  C   UNL     1      46.682   1.500   7.762  0.00  0.00    +0.000 A 
ENDBRANCH  18  21
ENDBRANCH  14  15
ENDBRANCH   5  14
TORSDOF 4
ENDMDL
MODEL 3
REMARK VINA RESULT:    -7.080      1.852      2.335
REMARK INTER + INTRA:          -9.569
REMARK INTER:                  -9.065
REMARK INTRA:                  -0.504
REMARK UNBOUND:                -0.834
REMARK  Name = 
REMARK  4 active torsions:
REMARK  status: ('A' for Active; 'I' for Inactive)
REMARK    1  A    between atoms: C_2  and  C_4
REMARK    2  A    between atoms: N_8  and  C_9
REMARK    3  A    between atoms: C_9  and  C_10
REMARK    4  A    between atoms: C_13  and  C_14
REMARK                            x       y       z     vdW  Elec       q    Type
REMARK                         _______ _______ _______ _____ _____    ______ ____
ROOT
ATOM      1  C   UNL     1      46.559   2.552   7.324  0.00  0.00    +0.000 A 
ATOM      2  C   UNL     1      46.388   3.819   7.868  0.00  0.00    +0.000 A 
ATOM      3  C   UNL     1      45.669   3.958   9.054  0.00  0.00    +0.000 A 
ATOM      4  C   UNL     1      45.118   2.837   9.665  0.00  0.00    +0.000 A 
ATOM      5  N   UNL     1      44.492   2.885  10.898  0.00  0.00    +0.000 N 
ATOM      6  N   UNL     1      45.237   1.610   9.122  0.00  0.00    +0.000 NA
ATOM      7  C   UNL     1      45.944   1.490   7.967  0.00  0.00    +0.000 A 
ATOM      8  H   UNL     1      44.071   1.974  11.073  0.00  0.00    +0.000 HD
ENDROOT
BRANCH   1  10
ATOM      9  N   UNL     1      47.193   3.157   5.062  0.00  0.00    +0.000 N 
ATOM     10  C   UNL     1      47.369   2.303   6.117  0.00  0.00    +0.000 C 
ATOM     11  O   UNL     1      48.195   1.398   6.072  0.00  0.00    +0.000 OA
ATOM     12  H   UNL     1      47.839   3.054   4.290  0.00  0.00    +0.000 HD
ATOM     13  H   UNL     1      46.731   4.050   5.163  0.00  0.00    +0.000 HD
ENDBRANCH   1  10
BRANCH   5  14
ATOM     14  C   UNL     1      43.649   4.019  11.213  0.00  0.00    +0.000 C 
BRANCH  14  15
ATOM     15  C   UNL     1      44.497   5.176  11.683  0.00  0.00    +0.000 A 
ATOM     16  C   UNL     1      45.579   4.963  12.543  0.00  0.00    +0.000 A 
ATOM     17  C   UNL     1      46.375   6.033  12.969  0.00  0.00    +0.000 A 
ATOM     18  C   UNL     1      46.119   7.352  12.553  0.00  0.00    +0.000 A 
ATOM     19  C   UNL     1      45.018   7.546  11.698  0.00  0.00    +0.000 A 
ATOM     20  C   UNL     1      44.211   6.481  11.279  0.00  0.00    +0.000 A 
BRANCH  18  21
ATOM     21  C   UNL     1      46.968   8.489  12.993  0.00  0.00    +0.000 A 
ATOM     22  C   UNL     1      47.729   8.435  14.175  0.00  0.00    +0.000 A 
ATOM     23  C   UNL     1      48.533   9.507  14.579  0.00  0.00    +0.000 A 
ATOM     24  C   UNL     1      48.606  10.659  13.803  0.00  0.00    +0.000 A 
ATOM     25  C   UNL     1      47.866  10.742  12.629  0.00  0.00    +0.000 A 
ATOM     26  C   UNL     1      47.052   9.675  12.237  0.00  0.00    +0.000 A 
ENDBRANCH  18  21
ENDBRANCH  14  15
ENDBRANCH   5  14
TORSDOF 4
ENDMDL
MODEL 4
REMARK VINA RESULT:    -6.065      3.514      5.333
REMARK INTER + INTRA:          -8.318
REMARK INTER:                  -7.549
REMARK INTRA:                  -0.769
REMARK UNBOUND:                -0.834
REMARK  Name = 
REMARK  4 active torsions:
REMARK  status: ('A' for Active; 'I' for Inactive)
REMARK    1  A    between atoms: C_2  and  C_4
REMARK    2  A    between atoms: N_8  and  C_9
REMARK    3  A    between atoms: C_9  and  C_10
REMARK    4  A    between atoms: C_13  and  C_14
REMARK                            x       y       z     vdW  Elec       q    Type
REMARK                         _______ _______ _______ _____ _____    ______ ____
ROOT
ATOM      1  C   UNL     1      44.331   4.164  11.555  0.00  0.00    +0.000 A 
ATOM      2  C   UNL     1      44.783   4.412  12.845  0.00  0.00    +0.000 A 
ATOM      3  C   UNL     1      45.136   5.713  13.202  0.00  0.00    +0.000 A 
ATOM      4  C   UNL     1      45.049   6.736  12.264  0.00  0.00    +0.000 A 
ATOM      5  N   UNL     1      45.273   8.065  12.578  0.00  0.00    +0.000 N 
ATOM      6  N   UNL     1      44.657   6.498  10.997  0.00  0.00    +0.000 NA
ATOM      7  C   UNL     1      44.313   5.225  10.665  0.00  0.00    +0.000 A 
ATOM      8  H   UNL     1      45.271   8.598  11.711  0.00  0.00    +0.000 HD
ENDROOT
BRANCH   1  10
ATOM      9  N   UNL     1      44.500   2.276  10.040  0.00  0.00    +0.000 N 
ATOM     10  C   UNL     1      43.863   2.836  11.115  0.00  0.00    +0.000 C 
ATOM     11  O   UNL     1      42.972   2.238  11.708  0.00  0.00    +0.000 OA
ATOM     12  H   UNL     1      44.257   1.317   9.825  0.00  0.00    +0.000 HD
ATOM     13  H   UNL     1      45.393   2.613   9.708  0.00  0.00    +0.000 HD
ENDBRANCH   1  10
BRANCH   5  14
ATOM     14  C   UNL     1      46.341   8.398  13.498  0.00  0.00    +0.000 C 
BRANCH  14  15
ATOM     15  C   UNL     1      47.663   8.405  12.771  0.00  0.00    +0.000 A 
ATOM     16  C   UNL     1      48.074   9.532  12.051  0.00  0.00    +0.000 A 
ATOM     17  C   UNL     1      49.307   9.545  11.386  0.00  0.00    +0.000 A 
ATOM     18  C   UNL     1      50.171   8.436  11.416  0.00  0.00    +0.000 A 
ATOM     19  C   UNL     1      49.733   7.308  12.135  0.00  0.00    +0.000 A 
ATOM     20  C   UNL     1      48.495   7.285  12.791  0.00  0.00    +0.000 A 
BRANCH  18  21
ATOM     21  C   UNL     1      51.485   8.450  10.722  0.00  0.00    +0.000 A 
ATOM     22  C   UNL     1      52.213   9.638  10.533  0.00  0.00    +0.000 A 
ATOM     23  C   UNL     1      53.454   9.643   9.886  0.00  0.00    +0.000 A 
ATOM     24  C   UNL     1      54.005   8.453   9.421  0.00  0.00    +0.000 A 
ATOM     25  C   UNL     1      53.309   7.262   9.593  0.00  0.00    +0.000 A 
ATOM     26  C   UNL     1      52.063   7.264  10.226  0.00  0.00    +0.000 A 
ENDBRANCH  18  21
ENDBRANCH  14  15
ENDBRANCH   5  14
TORSDOF 4
ENDMDL
