MODEL 1
REMARK VINA RESULT:    -8.620      0.000      0.000
REMARK INTER + INTRA:         -13.502
REMARK INTER:                 -12.399
REMARK INTRA:                  -1.103
REMARK UNBOUND:                -1.103
REMARK  Name = 
REMARK  8 active torsions:
REMARK  status: ('A' for Active; 'I' for Inactive)
REMARK    1  A    between atoms: C_2  and  C_4
REMARK    2  A    between atoms: N_8  and  C_9
REMARK    3  A    between atoms: C_9  and  C_10
REMARK    4  A    between atoms: C_10  and  C_11
REMARK    5  A    between atoms: C_10  and  C_13
REMARK    6  A    between atoms: C_11  and  O_12
REMARK    7  A    between atoms: C_17  and  N_18
REMARK    8  A    between atoms: N_18  and  C_19
REMARK                            x       y       z     vdW  Elec       q    Type
REMARK                         _______ _______ _______ _____ _____    ______ ____
ROOT
ATOM      1  C   UNL     1      43.812   4.847  12.287  0.00  0.00    +0.000 C 
ENDROOT
BRANCH   1   2
ATOM      2  C   UNL     1      45.220   5.331  12.604  0.00  0.00    +0.000 A 
ATOM      3  C   UNL     1      45.936   6.085  11.667  0.00  0.00    +0.000 A 
ATOM      4  C   UNL     1      47.230   6.524  11.951  0.00  0.00    +0.000 A 
ATOM      5  C   UNL     1      47.832   6.203  13.172  0.00  0.00    +0.000 A 
ATOM      6  C   UNL     1      47.139   5.459  14.124  0.00  0.00    +0.000 A 
ATOM      7  C   UNL     1      45.832   5.042  13.836  0.00  0.00    +0.000 A 
BRANCH   6   8
ATOM      8  N   UNL     1      47.679   5.117  15.382  0.00  0.00    +0.000 N 
ATOM      9  H   UNL     1      48.698   5.105  15.319  0.00  0.00    +0.000 HD
BRANCH   8  10
ATOM     10  C   UNL     1      47.171   4.111  16.277  0.00  0.00    +0.000 C 
ATOM     11  C   UNL     1      47.179   4.579  17.747  0.00  0.00    +0.000 C 
ATOM     12  N   UNL     1      47.811   3.306  18.142  0.00  0.00    +0.000 NA
ATOM     13  C   UNL     1      48.179   3.045  16.737  0.00  0.00    +0.000 C 
ATOM     14  H   UNL     1      47.149   2.630  18.522  0.00  0.00    +0.000 HD
ENDBRANCH   8  10
ENDBRANCH   6   8
ENDBRANCH   1   2
BRANCH   1  15
ATOM     15  C   UNL     1      43.491   5.002  10.778  0.00  0.00    +0.000 C 
BRANCH  15  20
ATOM     16  C   UNL     1      46.619   2.668   7.474  0.00  0.00    +0.000 A 
ATOM     17  C   UNL     1      46.225   4.004   7.517  0.00  0.00    +0.000 A 
ATOM     18  C   UNL     1      45.222   4.389   8.410  0.00  0.00    +0.000 A 
ATOM     19  C   UNL     1      44.647   3.444   9.253  0.00  0.00    +0.000 A 
ATOM     20  N   UNL     1      43.586   3.719  10.096  0.00  0.00    +0.000 N 
ATOM     21  N   UNL     1      45.032   2.153   9.228  0.00  0.00    +0.000 NA
ATOM     22  C   UNL     1      45.990   1.788   8.337  0.00  0.00    +0.000 A 
ATOM     23  H   UNL     1      43.493   2.910  10.718  0.00  0.00    +0.000 HD
BRANCH  16  25
ATOM     24  N   UNL     1      47.869   2.888   5.400  0.00  0.00    +0.000 N 
ATOM     25  C   UNL     1      47.623   2.148   6.523  0.00  0.00    +0.000 C 
ATOM     26  O   UNL     1      48.230   1.108   6.738  0.00  0.00    +0.000 OA
ATOM     27  H   UNL     1      48.620   2.560   4.803  0.00  0.00    +0.000 HD
ATOM     28  H   UNL     1      47.580   3.850   5.304  0.00  0.00    +0.000 HD
ENDBRANCH  16  25
ENDBRANCH  15  20
ENDBRANCH   1  15
BRANCH   1  29
ATOM     29  C   UNL     1      43.622   3.403  12.788  0.00  0.00    +0.000 C 
BRANCH  29  30
ATOM     30  O   UNL     1      44.711   2.560  12.422  0.00  0.00    +0.000 OA
ATOM     31  H   UNL     1      44.708   1.795  13.023  0.00  0.00    +0.000 HD
ENDBRANCH  29  30
ENDBRANCH   1  29
TORSDOF 8
ENDMDL
MODEL 2
REMARK VINA RESULT:    -7.616      2.071      3.312
REMARK INTER + INTRA:         -12.059
REMARK INTER:                 -11.110
REMARK INTRA:                  -0.949
REMARK UNBOUND:                -1.103
REMARK  Name = 
REMARK  8 active torsions:
REMARK  status: ('A' for Active; 'I' for Inactive)
REMARK    1  A    between atoms: C_2  and  C_4
REMARK    2  A    between atoms: N_8  and  C_9
REMARK    3  A    between atoms: C_9  and  C_10
REMARK    4  A    between atoms: C_10  and  C_11
REMARK    5  A    between atoms: C_10  and  C_13
REMARK    6  A    between atoms: C_11  and  O_12
REMARK    7  A    between atoms: C_17  and  N_18
REMARK    8  A    between atoms: N_18  and  C_19
REMARK                            x       y       z     vdW  Elec       q    Type
REMARK                         _______ _______ _______ _____ _____    ______ ____
ROOT
ATOM      1  C   UNL     1      43.954   4.817  12.377  0.00  0.00    +0.000 C 
ENDROOT
BRANCH   1   2
ATOM      2  C   UNL     1      45.354   5.228  12.812  0.00  0.00    +0.000 A 
ATOM      3  C   UNL     1      45.918   4.692  13.976  0.00  0.00    +0.000 A 
ATOM      4  C   UNL     1      47.197   5.073  14.382  0.00  0.00    +0.000 A 
ATOM      5  C   UNL     1      47.927   6.006  13.638  0.00  0.00    +0.000 A 
ATOM      6  C   UNL     1      47.391   6.550  12.473  0.00  0.00    +0.000 A 
ATOM      7  C   UNL     1      46.113   6.143  12.063  0.00  0.00    +0.000 A 
BRANCH   6   8
ATOM      8  N   UNL     1      48.079   7.480  11.666  0.00  0.00    +0.000 N 
ATOM      9  H   UNL     1      49.047   7.176  11.552  0.00  0.00    +0.000 HD
BRANCH   8  10
ATOM     10  C   UNL     1      47.956   8.913  11.731  0.00  0.00    +0.000 C 
ATOM     11  C   UNL     1      49.043   9.551  12.621  0.00  0.00    +0.000 C 
ATOM     12  N   UNL     1      48.007  10.348  13.303  0.00  0.00    +0.000 NA
ATOM     13  C   UNL     1      46.959   9.458  12.766  0.00  0.00    +0.000 C 
ATOM     14  H   UNL     1      47.944  11.306  12.959  0.00  0.00    +0.000 HD
ENDBRANCH   8  10
ENDBRANCH   6   8
ENDBRANCH   1   2
BRANCH   1  15
ATOM     15  C   UNL     1      43.734   5.088  10.866  0.00  0.00    +0.000 C 
BRANCH  15  20
ATOM     16  C   UNL     1      46.720   2.739   7.442  0.00  0.00    +0.000 A 
ATOM     17  C   UNL     1      46.416   4.094   7.560  0.00  0.00    +0.000 A 
ATOM     18  C   UNL     1      45.436   4.495   8.471  0.00  0.00    +0.000 A 
ATOM     19  C   UNL     1      44.793   3.544   9.258  0.00  0.00    +0.000 A 
ATOM     20  N   UNL     1      43.748   3.842  10.112  0.00  0.00    +0.000 N 
ATOM     21  N   UNL     1      45.091   2.234   9.160  0.00  0.00    +0.000 NA
ATOM     22  C   UNL     1      46.029   1.856   8.252  0.00  0.00    +0.000 A 
ATOM     23  H   UNL     1      43.597   3.006  10.687  0.00  0.00    +0.000 HD
BRANCH  16  25
ATOM     24  N   UNL     1      47.941   2.959   5.350  0.00  0.00    +0.000 N 
ATOM     25  C   UNL     1      47.693   2.208   6.465  0.00  0.00    +0.000 C 
ATOM     26  O   UNL     1      48.274   1.148   6.653  0.00  0.00    +0.000 OA
ATOM     27  H   UNL     1      48.672   2.621   4.735  0.00  0.00    +0.000 HD
ATOM     28  H   UNL     1      47.677   3.931   5.275  0.00  0.00    +0.000 HD
ENDBRANCH  16  25
ENDBRANCH  15  20
ENDBRANCH   1  15
BRANCH   1  29
ATOM     29  C   UNL     1      43.687   3.350  12.762  0.00  0.00    +0.000 C 
BRANCH  29  30
ATOM     30  O   UNL     1      44.755   2.491  12.373  0.00  0.00    +0.000 OA
ATOM     31  H   UNL     1      45.047   2.004  13.164  0.00  0.00    +0.000 HD
ENDBRANCH  29  30
ENDBRANCH   1  29
TORSDOF 8
ENDMDL
MODEL 3
REMARK VINA RESULT:    -7.549      2.009      2.375
REMARK INTER + INTRA:         -11.963
REMARK INTER:                 -11.307
REMARK INTRA:                  -0.655
REMARK UNBOUND:                -1.103
REMARK  Name = 
REMARK  8 active torsions:
REMARK  status: ('A' for Active; 'I' for Inactive)
REMARK    1  A    between atoms: C_2  and  C_4
REMARK    2  A    between atoms: N_8  and  C_9
REMARK    3  A    between atoms: C_9  and  C_10
REMARK    4  A    between atoms: C_10  and  C_11
REMARK    5  A    between atoms: C_10  and  C_13
REMARK    6  A    between atoms: C_11  and  O_12
REMARK    7  A    between atoms: C_17  and  N_18
REMARK    8  A    between atoms: N_18  and  C_19
REMARK                            x       y       z     vdW  Elec       q    Type
REMARK                         _______ _______ _______ _____ _____    ______ ____
ROOT
ATOM      1  C   UNL     1      44.269   4.916  12.097  0.00  0.00    +0.000 C 
ENDROOT
BRANCH   1   2
ATOM      2  C   UNL     1      44.935   6.277  12.244  0.00  0.00    +0.000 A 
ATOM      3  C   UNL     1      44.483   7.369  11.494  0.00  0.00    +0.000 A 
ATOM      4  C   UNL     1      45.097   8.616  11.620  0.00  0.00    +0.000 A 
ATOM      5  C   UNL     1      46.179   8.786  12.489  0.00  0.00    +0.000 A 
ATOM      6  C   UNL     1      46.645   7.717  13.251  0.00  0.00    +0.000 A 
ATOM      7  C   UNL     1      46.006   6.474  13.132  0.00  0.00    +0.000 A 
BRANCH   6   8
ATOM      8  N   UNL     1      47.718   7.824  14.160  0.00  0.00    +0.000 N 
ATOM      9  H   UNL     1      47.918   8.810  14.332  0.00  0.00    +0.000 HD
BRANCH   8  10
ATOM     10  C   UNL     1      48.908   7.013  14.165  0.00  0.00    +0.000 C 
ATOM     11  C   UNL     1      49.401   6.709  15.594  0.00  0.00    +0.000 C 
ATOM     12  N   UNL     1      50.768   7.093  15.198  0.00  0.00    +0.000 NA
ATOM     13  C   UNL     1      50.238   7.765  13.995  0.00  0.00    +0.000 C 
ATOM     14  H   UNL     1      51.366   6.293  14.987  0.00  0.00    +0.000 HD
ENDBRANCH   8  10
ENDBRANCH   6   8
ENDBRANCH   1   2
BRANCH   1  15
ATOM     15  C   UNL     1      43.461   4.825  10.777  0.00  0.00    +0.000 C 
BRANCH  15  20
ATOM     16  C   UNL     1      46.639   2.663   7.404  0.00  0.00    +0.000 A 
ATOM     17  C   UNL     1      46.114   3.953   7.414  0.00  0.00    +0.000 A 
ATOM     18  C   UNL     1      45.124   4.278   8.344  0.00  0.00    +0.000 A 
ATOM     19  C   UNL     1      44.692   3.321   9.256  0.00  0.00    +0.000 A 
ATOM     20  N   UNL     1      43.653   3.527  10.144  0.00  0.00    +0.000 N 
ATOM     21  N   UNL     1      45.206   2.075   9.263  0.00  0.00    +0.000 NA
ATOM     22  C   UNL     1      46.149   1.766   8.337  0.00  0.00    +0.000 A 
ATOM     23  H   UNL     1      43.675   2.742  10.804  0.00  0.00    +0.000 HD
BRANCH  16  25
ATOM     24  N   UNL     1      47.797   2.944   5.283  0.00  0.00    +0.000 N 
ATOM     25  C   UNL     1      47.642   2.202   6.421  0.00  0.00    +0.000 C 
ATOM     26  O   UNL     1      48.325   1.208   6.622  0.00  0.00    +0.000 OA
ATOM     27  H   UNL     1      48.546   2.662   4.662  0.00  0.00    +0.000 HD
ATOM     28  H   UNL     1      47.439   3.884   5.190  0.00  0.00    +0.000 HD
ENDBRANCH  16  25
ENDBRANCH  15  20
ENDBRANCH   1  15
BRANCH   1  29
ATOM     29  C   UNL     1      45.317   3.795  12.230  0.00  0.00    +0.000 C 
BRANCH  29  30
ATOM     30  O   UNL     1      44.725   2.547  12.579  0.00  0.00    +0.000 OA
ATOM     31  H   UNL     1      45.403   1.857  12.469  0.00  0.00    +0.000 HD
ENDBRANCH  29  30
ENDBRANCH   1  29
TORSDOF 8
ENDMDL
MODEL 4
REMARK VINA RESULT:    -7.086      2.511      8.113
REMARK INTER + INTRA:         -11.296
REMARK INTER:                 -10.470
REMARK INTRA:                  -0.826
REMARK UNBOUND:                -1.103
REMARK  Name = 
REMARK  8 active torsions:
REMARK  status: ('A' for Active; 'I' for Inactive)
REMARK    1  A    between atoms: C_2  and  C_4
REMARK    2  A    between atoms: N_8  and  C_9
REMARK    3  A    between atoms: C_9  and  C_10
REMARK    4  A    between atoms: C_10  and  C_11
REMARK    5  A    between atoms: C_10  and  C_13
REMARK    6  A    between atoms: C_11  and  O_12
REMARK    7  A    between atoms: C_17  and  N_18
REMARK    8  A    between atoms: N_18  and  C_19
REMARK                            x       y       z     vdW  Elec       q    Type
REMARK                         _______ _______ _______ _____ _____    ______ ____
ROOT
ATOM      1  C   UNL     1      45.187   5.776  11.800  0.00  0.00    +0.000 C 
ENDROOT
BRANCH   1   2
ATOM      2  C   UNL     1      45.010   4.639  10.804  0.00  0.00    +0.000 A 
ATOM      3  C   UNL     1      44.186   3.550  11.114  0.00  0.00    +0.000 A 
ATOM      4  C   UNL     1      44.028   2.502  10.206  0.00  0.00    +0.000 A 
ATOM      5  C   UNL     1      44.703   2.520   8.982  0.00  0.00    +0.000 A 
ATOM      6  C   UNL     1      45.525   3.594   8.646  0.00  0.00    +0.000 A 
ATOM      7  C   UNL     1      45.658   4.652   9.557  0.00  0.00    +0.000 A 
BRANCH   6   8
ATOM      8  N   UNL     1      46.218   3.685   7.421  0.00  0.00    +0.000 N 
ATOM      9  H   UNL     1      45.894   4.507   6.911  0.00  0.00    +0.000 HD
BRANCH   8  10
ATOM     10  C   UNL     1      46.542   2.587   6.548  0.00  0.00    +0.000 C 
ATOM     11  C   UNL     1      47.797   1.821   7.014  0.00  0.00    +0.000 C 
ATOM     12  N   UNL     1      48.332   1.875   5.641  0.00  0.00    +0.000 NA
ATOM     13  C   UNL     1      47.367   2.938   5.300  0.00  0.00    +0.000 C 
ATOM     14  H   UNL     1      48.187   1.010   5.119  0.00  0.00    +0.000 HD
ENDBRANCH   8  10
ENDBRANCH   6   8
ENDBRANCH   1   2
BRANCH   1  15
ATOM     15  C   UNL     1      45.277   5.243  13.253  0.00  0.00    +0.000 C 
BRANCH  15  20
ATOM     16  C   UNL     1      48.428   3.699  16.973  0.00  0.00    +0.000 A 
ATOM     17  C   UNL     1      47.878   4.960  16.755  0.00  0.00    +0.000 A 
ATOM     18  C   UNL     1      47.175   5.201  15.572  0.00  0.00    +0.000 A 
ATOM     19  C   UNL     1      47.018   4.179  14.641  0.00  0.00    +0.000 A 
ATOM     20  N   UNL     1      46.423   4.357  13.407  0.00  0.00    +0.000 N 
ATOM     21  N   UNL     1      47.534   2.952  14.851  0.00  0.00    +0.000 NA
ATOM     22  C   UNL     1      48.236   2.740  15.994  0.00  0.00    +0.000 A 
ATOM     23  H   UNL     1      46.278   3.420  13.016  0.00  0.00    +0.000 HD
BRANCH  16  25
ATOM     24  N   UNL     1      48.592   3.260  19.360  0.00  0.00    +0.000 N 
ATOM     25  C   UNL     1      49.241   3.362  18.160  0.00  0.00    +0.000 C 
ATOM     26  O   UNL     1      50.443   3.159  18.075  0.00  0.00    +0.000 OA
ATOM     27  H   UNL     1      49.150   2.945  20.145  0.00  0.00    +0.000 HD
ATOM     28  H   UNL     1      47.589   3.178  19.434  0.00  0.00    +0.000 HD
ENDBRANCH  16  25
ENDBRANCH  15  20
ENDBRANCH   1  15
BRANCH   1  29
ATOM     29  C   UNL     1      46.401   6.640  11.409  0.00  0.00    +0.000 C 
BRANCH  29  30
ATOM     30  O   UNL     1      47.078   7.160  12.550  0.00  0.00    +0.000 OA
ATOM     31  H   UNL     1      47.922   7.539  12.246  0.00  0.00    +0.000 HD
ENDBRANCH  29  30
ENDBRANCH   1  29
TORSDOF 8
ENDMDL
MODEL 5
REMARK VINA RESULT:    -7.066      2.947      4.623
REMARK INTER + INTRA:         -11.267
REMARK INTER:                 -10.973
REMARK INTRA:                  -0.294
REMARK UNBOUND:                -1.103
REMARK  Name = 
REMARK  8 active torsions:
REMARK  status: ('A' for Active; 'I' for Inactive)
REMARK    1  A    between atoms: C_2  and  C_4
REMARK    2  A    between atoms: N_8  and  C_9
REMARK    3  A    between atoms: C_9  and  C_10
REMARK    4  A    between atoms: C_10  and  C_11
REMARK    5  A    between atoms: C_10  and  C_13
REMARK    6  A    between atoms: C_11  and  O_12
REMARK    7  A    between atoms: C_17  and  N_18
REMARK    8  A    between atoms: N_18  and  C_19
REMARK                            x       y       z     vdW  Elec       q    Type
REMARK                         _______ _______ _______ _____ _____    ______ ____
ROOT
ATOM      1  C   UNL     1      43.440   5.205  12.240  0.00  0.00    +0.000 C 
ENDROOT
BRANCH   1   2
ATOM      2  C   UNL     1      44.531   6.240  12.475  0.00  0.00    +0.000 A 
ATOM      3  C   UNL     1      45.844   5.836  12.746  0.00  0.00    +0.000 A 
ATOM      4  C   UNL     1      46.844   6.783  12.970  0.00  0.00    +0.000 A 
ATOM      5  C   UNL     1      46.544   8.148  12.939  0.00  0.00    +0.000 A 
ATOM      6  C   UNL     1      45.247   8.578  12.667  0.00  0.00    +0.000 A 
ATOM      7  C   UNL     1      44.254   7.618  12.422  0.00  0.00    +0.000 A 
BRANCH   6   8
ATOM      8  N   UNL     1      44.880   9.939  12.602  0.00  0.00    +0.000 N 
ATOM      9  H   UNL     1      44.187  10.136  13.325  0.00  0.00    +0.000 HD
BRANCH   8  10
ATOM     10  C   UNL     1      44.653  10.699  11.400  0.00  0.00    +0.000 C 
ATOM     11  C   UNL     1      43.303  11.444  11.428  0.00  0.00    +0.000 C 
ATOM     12  N   UNL     1      43.007  10.942  10.073  0.00  0.00    +0.000 NA
ATOM     13  C   UNL     1      44.064   9.923  10.211  0.00  0.00    +0.000 C 
ATOM     14  H   UNL     1      43.194  11.627   9.340  0.00  0.00    +0.000 HD
ENDBRANCH   8  10
ENDBRANCH   6   8
ENDBRANCH   1   2
BRANCH   1  15
ATOM     15  C   UNL     1      43.353   4.811  10.743  0.00  0.00    +0.000 C 
BRANCH  15  20
ATOM     16  C   UNL     1      46.530   2.478   7.485  0.00  0.00    +0.000 A 
ATOM     17  C   UNL     1      45.811   1.938   8.550  0.00  0.00    +0.000 A 
ATOM     18  C   UNL     1      45.133   2.797   9.418  0.00  0.00    +0.000 A 
ATOM     19  C   UNL     1      45.168   4.170   9.199  0.00  0.00    +0.000 A 
ATOM     20  N   UNL     1      44.608   5.094  10.061  0.00  0.00    +0.000 N 
ATOM     21  N   UNL     1      45.848   4.699   8.164  0.00  0.00    +0.000 NA
ATOM     22  C   UNL     1      46.524   3.855   7.342  0.00  0.00    +0.000 A 
ATOM     23  H   UNL     1      44.619   5.994   9.569  0.00  0.00    +0.000 HD
BRANCH  16  25
ATOM     24  N   UNL     1      48.329   2.292   5.859  0.00  0.00    +0.000 N 
ATOM     25  C   UNL     1      47.331   1.662   6.549  0.00  0.00    +0.000 C 
ATOM     26  O   UNL     1      47.128   0.464   6.410  0.00  0.00    +0.000 OA
ATOM     27  H   UNL     1      48.922   1.701   5.288  0.00  0.00    +0.000 HD
ATOM     28  H   UNL     1      48.684   3.201   6.118  0.00  0.00    +0.000 HD
ENDBRANCH  16  25
ENDBRANCH  15  20
ENDBRANCH   1  15
BRANCH   1  29
ATOM     29  C   UNL     1      43.654   3.990  13.162  0.00  0.00    +0.000 C 
BRANCH  29  30
ATOM     30  O   UNL     1      44.072   2.836  12.439  0.00  0.00    +0.000 OA
ATOM     31  H   UNL     1      45.040   2.771  12.519  0.00  0.00    +0.000 HD
ENDBRANCH  29  30
ENDBRANCH   1  29
TORSDOF 8
ENDMDL
MODEL 6
REMARK VINA RESULT:    -6.844      2.497      7.966
REMARK INTER + INTRA:         -10.948
REMARK INTER:                 -10.175
REMARK INTRA:                  -0.773
REMARK UNBOUND:                -1.103
REMARK  Name = 
REMARK  8 active torsions:
REMARK  status: ('A' for Active; 'I' for Inactive)
REMARK    1  A    between atoms: C_2  and  C_4
REMARK    2  A    between atoms: N_8  and  C_9
REMARK    3  A    between atoms: C_9  and  C_10
REMARK    4  A    between atoms: C_10  and  C_11
REMARK    5  A    between atoms: C_10  and  C_13
REMARK    6  A    between atoms: C_11  and  O_12
REMARK    7  A    between atoms: C_17  and  N_18
REMARK    8  A    between atoms: N_18  and  C_19
REMARK                            x       y       z     vdW  Elec       q    Type
REMARK                         _______ _______ _______ _____ _____    ______ ____
ROOT
ATOM      1  C   UNL     1      45.364   6.176  11.968  0.00  0.00    +0.000 C 
ENDROOT
BRANCH   1   2
ATOM      2  C   UNL     1      44.987   4.963  11.129  0.00  0.00    +0.000 A 
ATOM      3  C   UNL     1      44.217   3.933  11.682  0.00  0.00    +0.000 A 
ATOM      4  C   UNL     1      43.877   2.816  10.918  0.00  0.00    +0.000 A 
ATOM      5  C   UNL     1      44.314   2.706   9.594  0.00  0.00    +0.000 A 
ATOM      6  C   UNL     1      45.077   3.719   9.018  0.00  0.00    +0.000 A 
ATOM      7  C   UNL     1      45.394   4.847   9.789  0.00  0.00    +0.000 A 
BRANCH   6   8
ATOM      8  N   UNL     1      45.534   3.680   7.684  0.00  0.00    +0.000 N 
ATOM      9  H   UNL     1      44.785   3.338   7.081  0.00  0.00    +0.000 HD
BRANCH   8  10
ATOM     10  C   UNL     1      46.835   3.246   7.246  0.00  0.00    +0.000 C 
ATOM     11  C   UNL     1      46.870   2.939   5.735  0.00  0.00    +0.000 C 
ATOM     12  N   UNL     1      47.548   1.661   6.017  0.00  0.00    +0.000 NA
ATOM     13  C   UNL     1      47.148   1.753   7.435  0.00  0.00    +0.000 C 
ATOM     14  H   UNL     1      48.557   1.700   5.875  0.00  0.00    +0.000 HD
ENDBRANCH   8  10
ENDBRANCH   6   8
ENDBRANCH   1   2
BRANCH   1  15
ATOM     15  C   UNL     1      46.896   6.249  12.194  0.00  0.00    +0.000 C 
BRANCH  15  20
ATOM     16  C   UNL     1      48.316   4.093  16.609  0.00  0.00    +0.000 A 
ATOM     17  C   UNL     1      47.433   3.616  15.642  0.00  0.00    +0.000 A 
ATOM     18  C   UNL     1      47.059   4.454  14.589  0.00  0.00    +0.000 A 
ATOM     19  C   UNL     1      47.585   5.740  14.508  0.00  0.00    +0.000 A 
ATOM     20  N   UNL     1      47.197   6.664  13.557  0.00  0.00    +0.000 N 
ATOM     21  N   UNL     1      48.451   6.203  15.431  0.00  0.00    +0.000 NA
ATOM     22  C   UNL     1      48.786   5.387  16.463  0.00  0.00    +0.000 A 
ATOM     23  H   UNL     1      47.865   7.440  13.617  0.00  0.00    +0.000 HD
BRANCH  16  25
ATOM     24  N   UNL     1      50.040   2.962  17.897  0.00  0.00    +0.000 N 
ATOM     25  C   UNL     1      48.722   3.310  17.794  0.00  0.00    +0.000 C 
ATOM     26  O   UNL     1      47.920   3.002  18.664  0.00  0.00    +0.000 OA
ATOM     27  H   UNL     1      50.317   2.499  18.755  0.00  0.00    +0.000 HD
ATOM     28  H   UNL     1      50.766   3.393  17.342  0.00  0.00    +0.000 HD
ENDBRANCH  16  25
ENDBRANCH  15  20
ENDBRANCH   1  15
BRANCH   1  29
ATOM     29  C   UNL     1      44.797   7.459  11.332  0.00  0.00    +0.000 C 
BRANCH  29  30
ATOM     30  O   UNL     1      43.380   7.403  11.186  0.00  0.00    +0.000 OA
ATOM     31  H   UNL     1      43.187   7.129  10.272  0.00  0.00    +0.000 HD
ENDBRANCH  29  30
ENDBRANCH   1  29
TORSDOF 8
ENDMDL
MODEL 7
REMARK VINA RESULT:    -6.409      2.822      8.644
REMARK INTER + INTRA:         -10.322
REMARK INTER:                  -9.615
REMARK INTRA:                  -0.708
REMARK UNBOUND:                -1.103
REMARK  Name = 
REMARK  8 active torsions:
REMARK  status: ('A' for Active; 'I' for Inactive)
REMARK    1  A    between atoms: C_2  and  C_4
REMARK    2  A    between atoms: N_8  and  C_9
REMARK    3  A    between atoms: C_9  and  C_10
REMARK    4  A    between atoms: C_10  and  C_11
REMARK    5  A    between atoms: C_10  and  C_13
REMARK    6  A    between atoms: C_11  and  O_12
REMARK    7  A    between atoms: C_17  and  N_18
REMARK    8  A    between atoms: N_18  and  C_19
REMARK                            x       y       z     vdW  Elec       q    Type
REMARK                         _______ _______ _______ _____ _____    ______ ____
ROOT
ATOM      1  C   UNL     1      46.559   5.398  13.618  0.00  0.00    +0.000 C 
ENDROOT
BRANCH   1   2
ATOM      2  C   UNL     1      45.360   5.200  12.702  0.00  0.00    +0.000 A 
ATOM      3  C   UNL     1      44.065   5.147  13.233  0.00  0.00    +0.000 A 
ATOM      4  C   UNL     1      42.964   4.957  12.397  0.00  0.00    +0.000 A 
ATOM      5  C   UNL     1      43.142   4.804  11.018  0.00  0.00    +0.000 A 
ATOM      6  C   UNL     1      44.419   4.858  10.463  0.00  0.00    +0.000 A 
ATOM      7  C   UNL     1      45.516   5.070  11.311  0.00  0.00    +0.000 A 
BRANCH   6   8
ATOM      8  N   UNL     1      44.668   4.730   9.081  0.00  0.00    +0.000 N 
ATOM      9  H   UNL     1      44.176   5.471   8.579  0.00  0.00    +0.000 HD
BRANCH   8  10
ATOM     10  C   UNL     1      44.709   3.497   8.338  0.00  0.00    +0.000 C 
ATOM     11  C   UNL     1      44.881   2.269   9.255  0.00  0.00    +0.000 C 
ATOM     12  N   UNL     1      45.953   1.770   8.374  0.00  0.00    +0.000 NA
ATOM     13  C   UNL     1      46.077   3.104   7.757  0.00  0.00    +0.000 C 
ATOM     14  H   UNL     1      45.638   1.048   7.726  0.00  0.00    +0.000 HD
ENDBRANCH   8  10
ENDBRANCH   6   8
ENDBRANCH   1   2
BRANCH   1  15
ATOM     15  C   UNL     1      47.072   4.044  14.172  0.00  0.00    +0.000 C 
BRANCH  15  20
ATOM     16  C   UNL     1      48.936   5.116  18.812  0.00  0.00    +0.000 A 
ATOM     17  C   UNL     1      49.612   4.688  17.671  0.00  0.00    +0.000 A 
ATOM     18  C   UNL     1      48.875   4.288  16.554  0.00  0.00    +0.000 A 
ATOM     19  C   UNL     1      47.485   4.341  16.587  0.00  0.00    +0.000 A 
ATOM     20  N   UNL     1      46.680   3.875  15.565  0.00  0.00    +0.000 N 
ATOM     21  N   UNL     1      46.825   4.768  17.681  0.00  0.00    +0.000 NA
ATOM     22  C   UNL     1      47.553   5.129  18.769  0.00  0.00    +0.000 A 
ATOM     23  H   UNL     1      45.731   4.203  15.771  0.00  0.00    +0.000 HD
BRANCH  16  25
ATOM     24  N   UNL     1      50.075   4.489  20.868  0.00  0.00    +0.000 N 
ATOM     25  C   UNL     1      49.619   5.498  20.066  0.00  0.00    +0.000 C 
ATOM     26  O   UNL     1      49.794   6.670  20.367  0.00  0.00    +0.000 OA
ATOM     27  H   UNL     1      50.614   4.770  21.678  0.00  0.00    +0.000 HD
ATOM     28  H   UNL     1      50.169   3.536  20.548  0.00  0.00    +0.000 HD
ENDBRANCH  16  25
ENDBRANCH  15  20
ENDBRANCH   1  15
BRANCH   1  29
ATOM     29  C   UNL     1      47.657   6.195  12.890  0.00  0.00    +0.000 C 
BRANCH  29  30
ATOM     30  O   UNL     1      48.867   6.248  13.640  0.00  0.00    +0.000 OA
ATOM     31  H   UNL     1      48.645   6.072  14.572  0.00  0.00    +0.000 HD
ENDBRANCH  29  30
ENDBRANCH   1  29
TORSDOF 8
ENDMDL
MODEL 8
REMARK VINA RESULT:    -6.402      3.783      6.089
REMARK INTER + INTRA:         -10.313
REMARK INTER:                  -9.530
REMARK INTRA:                  -0.783
REMARK UNBOUND:                -1.103
REMARK  Name = 
REMARK  8 active torsions:
REMARK  status: ('A' for Active; 'I' for Inactive)
REMARK    1  A    between atoms: C_2  and  C_4
REMARK    2  A    between atoms: N_8  and  C_9
REMARK    3  A    between atoms: C_9  and  C_10
REMARK    4  A    between atoms: C_10  and  C_11
REMARK    5  A    between atoms: C_10  and  C_13
REMARK    6  A    between atoms: C_11  and  O_12
REMARK    7  A    between atoms: C_17  and  N_18
REMARK    8  A    between atoms: N_18  and  C_19
REMARK                            x       y       z     vdW  Elec       q    Type
REMARK                         _______ _______ _______ _____ _____    ______ ____
ROOT
ATOM      1  C   UNL     1      48.191   4.432  17.055  0.00  0.00    +0.000 C 
ENDROOT
BRANCH   1   2
ATOM      2  C   UNL     1      49.685   4.521  17.328  0.00  0.00    +0.000 A 
ATOM      3  C   UNL     1      50.371   5.724  17.123  0.00  0.00    +0.000 A 
ATOM      4  C   UNL     1      51.743   5.806  17.364  0.00  0.00    +0.000 A 
ATOM      5  C   UNL     1      52.452   4.684  17.802  0.00  0.00    +0.000 A 
ATOM      6  C   UNL     1      51.793   3.476  18.020  0.00  0.00    +0.000 A 
ATOM      7  C   UNL     1      50.410   3.410  17.794  0.00  0.00    +0.000 A 
BRANCH   6   8
ATOM      8  N   UNL     1      52.443   2.311  18.479  0.00  0.00    +0.000 N 
ATOM      9  H   UNL     1      52.405   2.283  19.498  0.00  0.00    +0.000 HD
BRANCH   8  10
ATOM     10  C   UNL     1      53.670   1.765  17.959  0.00  0.00    +0.000 C 
ATOM     11  C   UNL     1      53.477   0.348  17.378  0.00  0.00    +0.000 C 
ATOM     12  N   UNL     1      54.661  -0.112  18.127  0.00  0.00    +0.000 NA
ATOM     13  C   UNL     1      54.596   1.089  18.983  0.00  0.00    +0.000 C 
ATOM     14  H   UNL     1      55.505  -0.160  17.556  0.00  0.00    +0.000 HD
ENDBRANCH   8  10
ENDBRANCH   6   8
ENDBRANCH   1   2
BRANCH   1  15
ATOM     15  C   UNL     1      47.820   5.133  15.723  0.00  0.00    +0.000 C 
BRANCH  15  20
ATOM     16  C   UNL     1      45.549   4.809  11.152  0.00  0.00    +0.000 A 
ATOM     17  C   UNL     1      46.234   5.882  11.719  0.00  0.00    +0.000 A 
ATOM     18  C   UNL     1      46.629   5.808  13.057  0.00  0.00    +0.000 A 
ATOM     19  C   UNL     1      46.351   4.663  13.796  0.00  0.00    +0.000 A 
ATOM     20  N   UNL     1      46.619   4.543  15.147  0.00  0.00    +0.000 N 
ATOM     21  N   UNL     1      45.702   3.615  13.252  0.00  0.00    +0.000 NA
ATOM     22  C   UNL     1      45.303   3.711  11.957  0.00  0.00    +0.000 A 
ATOM     23  H   UNL     1      46.488   3.554  15.383  0.00  0.00    +0.000 HD
BRANCH  16  25
ATOM     24  N   UNL     1      43.721   4.484   9.582  0.00  0.00    +0.000 N 
ATOM     25  C   UNL     1      45.034   4.815   9.767  0.00  0.00    +0.000 C 
ATOM     26  O   UNL     1      45.744   5.125   8.822  0.00  0.00    +0.000 OA
ATOM     27  H   UNL     1      43.364   4.575   8.638  0.00  0.00    +0.000 HD
ATOM     28  H   UNL     1      43.050   4.461  10.337  0.00  0.00    +0.000 HD
ENDBRANCH  16  25
ENDBRANCH  15  20
ENDBRANCH   1  15
BRANCH   1  29
ATOM     29  C   UNL     1      47.729   2.963  17.101  0.00  0.00    +0.000 C 
BRANCH  29  30
ATOM     30  O   UNL     1      46.421   2.830  17.651  0.00  0.00    +0.000 OA
ATOM     31  H   UNL     1      46.401   2.005  18.168  0.00  0.00    +0.000 HD
ENDBRANCH  29  30
ENDBRANCH   1  29
TORSDOF 8
ENDMDL
MODEL 9
REMARK VINA RESULT:    -6.222      2.955      4.868
REMARK INTER + INTRA:         -10.053
REMARK INTER:                  -9.129
REMARK INTRA:                  -0.924
REMARK UNBOUND:                -1.103
REMARK  Name = 
REMARK  8 active torsions:
REMARK  status: ('A' for Active; 'I' for Inactive)
REMARK    1  A    between atoms: C_2  and  C_4
REMARK    2  A    between atoms: N_8  and  C_9
REMARK    3  A    between atoms: C_9  and  C_10
REMARK    4  A    between atoms: C_10  and  C_11
REMARK    5  A    between atoms: C_10  and  C_13
REMARK    6  A    between atoms: C_11  and  O_12
REMARK    7  A    between atoms: C_17  and  N_18
REMARK    8  A    between atoms: N_18  and  C_19
REMARK                            x       y       z     vdW  Elec       q    Type
REMARK                         _______ _______ _______ _____ _____    ______ ____
ROOT
ATOM      1  C   UNL     1      48.349   7.754  13.154  0.00  0.00    +0.000 C 
ENDROOT
BRANCH   1   2
ATOM      2  C   UNL     1      48.540   7.680  14.662  0.00  0.00    +0.000 A 
ATOM      3  C   UNL     1      48.367   8.822  15.454  0.00  0.00    +0.000 A 
ATOM      4  C   UNL     1      48.549   8.758  16.836  0.00  0.00    +0.000 A 
ATOM      5  C   UNL     1      48.921   7.556  17.445  0.00  0.00    +0.000 A 
ATOM      6  C   UNL     1      49.094   6.404  16.681  0.00  0.00    +0.000 A 
ATOM      7  C   UNL     1      48.887   6.474  15.296  0.00  0.00    +0.000 A 
BRANCH   6   8
ATOM      8  N   UNL     1      49.449   5.155  17.233  0.00  0.00    +0.000 N 
ATOM      9  H   UNL     1      50.070   4.665  16.587  0.00  0.00    +0.000 HD
BRANCH   8  10
ATOM     10  C   UNL     1      48.569   4.259  17.937  0.00  0.00    +0.000 C 
ATOM     11  C   UNL     1      48.144   3.057  17.068  0.00  0.00    +0.000 C 
ATOM     12  N   UNL     1      46.740   3.279  17.461  0.00  0.00    +0.000 NA
ATOM     13  C   UNL     1      47.079   4.635  17.933  0.00  0.00    +0.000 C 
ATOM     14  H   UNL     1      46.427   2.655  18.204  0.00  0.00    +0.000 HD
ENDBRANCH   8  10
ENDBRANCH   6   8
ENDBRANCH   1   2
BRANCH   1  15
ATOM     15  C   UNL     1      47.030   8.484  12.789  0.00  0.00    +0.000 C 
BRANCH  15  20
ATOM     16  C   UNL     1      44.645   4.208  11.314  0.00  0.00    +0.000 A 
ATOM     17  C   UNL     1      45.238   5.198  10.533  0.00  0.00    +0.000 A 
ATOM     18  C   UNL     1      45.685   6.372  11.144  0.00  0.00    +0.000 A 
ATOM     19  C   UNL     1      45.550   6.529  12.520  0.00  0.00    +0.000 A 
ATOM     20  N   UNL     1      45.876   7.693  13.190  0.00  0.00    +0.000 N 
ATOM     21  N   UNL     1      44.991   5.571  13.285  0.00  0.00    +0.000 NA
ATOM     22  C   UNL     1      44.539   4.445  12.673  0.00  0.00    +0.000 A 
ATOM     23  H   UNL     1      45.853   7.468  14.190  0.00  0.00    +0.000 HD
BRANCH  16  25
ATOM     24  N   UNL     1      43.385   2.149  11.606  0.00  0.00    +0.000 N 
ATOM     25  C   UNL     1      44.084   2.960  10.756  0.00  0.00    +0.000 C 
ATOM     26  O   UNL     1      44.217   2.671   9.576  0.00  0.00    +0.000 OA
ATOM     27  H   UNL     1      42.936   1.342  11.188  0.00  0.00    +0.000 HD
ATOM     28  H   UNL     1      43.048   2.459  12.506  0.00  0.00    +0.000 HD
ENDBRANCH  16  25
ENDBRANCH  15  20
ENDBRANCH   1  15
BRANCH   1  29
ATOM     29  C   UNL     1      49.584   8.395  12.493  0.00  0.00    +0.000 C 
BRANCH  29  30
ATOM     30  O   UNL     1      50.537   7.420  12.081  0.00  0.00    +0.000 OA
ATOM     31  H   UNL     1      50.516   6.693  12.728  0.00  0.00    +0.000 HD
ENDBRANCH  29  30
ENDBRANCH   1  29
TORSDOF 8
ENDMDL
