MODEL 1
REMARK VINA RESULT:    -7.571      0.000      0.000
REMARK INTER + INTRA:          -9.984
REMARK INTER:                  -9.562
REMARK INTRA:                  -0.422
REMARK UNBOUND:                -0.422
REMARK  Name = 
REMARK  5 active torsions:
REMARK  status: ('A' for Active; 'I' for Inactive)
REMARK    1  A    between atoms: N_1  and  C_2
REMARK    2  A    between atoms: C_2  and  C_3
REMARK    3  A    between atoms: C_3  and  C_4
REMARK    4  A    between atoms: C_7  and  C_8
REMARK    5  A    between atoms: C_8  and  N_9
REMARK                            x       y       z     vdW  Elec       q    Type
REMARK                         _______ _______ _______ _____ _____    ______ ____
ROOT
ATOM      1  C   UNL     1      46.119   2.261   7.826  0.00  0.00    +0.000 A 
ATOM      2  C   UNL     1      45.315   1.603   8.765  0.00  0.00    +0.000 A 
ATOM      3  C   UNL     1      44.518   2.332   9.655  0.00  0.00    +0.000 A 
ATOM      4  C   UNL     1      44.503   3.733   9.616  0.00  0.00    +0.000 A 
ATOM      5  C   UNL     1      45.289   4.387   8.657  0.00  0.00    +0.000 A 
ATOM      6  C   UNL     1      46.084   3.659   7.769  0.00  0.00    +0.000 A 
ENDROOT
BRANCH   1   7
ATOM      7  C   UNL     1      47.032   1.479   6.912  0.00  0.00    +0.000 C 
BRANCH   7   8
ATOM      8  C   UNL     1      48.277   2.266   6.492  0.00  0.00    +0.000 C 
BRANCH   8   9
ATOM      9  N   UNL     1      48.271   2.515   5.048  0.00  0.00    +0.000 NA
ATOM     10  H   UNL     1      47.417   3.009   4.794  0.00  0.00    +0.000 HD
ATOM     11  H   UNL     1      48.246   1.627   4.549  0.00  0.00    +0.000 HD
ENDBRANCH   8   9
ENDBRANCH   7   8
ENDBRANCH   1   7
BRANCH   4  12
ATOM     12  C   UNL     1      43.680   4.530  10.598  0.00  0.00    +0.000 C 
BRANCH  12  13
ATOM     13  N   UNL     1      44.507   5.396  11.426  0.00  0.00    +0.000 N 
ATOM     14  C   UNL     1      44.561   6.768  11.333  0.00  0.00    +0.000 A 
ATOM     15  C   UNL     1      45.491   7.220  12.247  0.00  0.00    +0.000 A 
ATOM     16  C   UNL     1      46.031   6.085  12.909  0.00  0.00    +0.000 A 
ATOM     17  C   UNL     1      46.990   5.880  13.914  0.00  0.00    +0.000 A 
ATOM     18  C   UNL     1      47.254   4.566  14.296  0.00  0.00    +0.000 A 
ATOM     19  C   UNL     1      46.573   3.532  13.668  0.00  0.00    +0.000 A 
ATOM     20  N   UNL     1      45.646   3.672  12.694  0.00  0.00    +0.000 NA
ATOM     21  C   UNL     1      45.412   4.961  12.365  0.00  0.00    +0.000 A 
ENDBRANCH  12  13
ENDBRANCH   4  12
TORSDOF 5
ENDMDL
MODEL 2
REMARK VINA RESULT:    -7.550      0.999      2.448
REMARK INTER + INTRA:          -9.958
REMARK INTER:                  -9.418
REMARK INTRA:                  -0.540
REMARK UNBOUND:                -0.422
REMARK  Name = 
REMARK  5 active torsions:
REMARK  status: ('A' for Active; 'I' for Inactive)
REMARK    1  A    between atoms: N_1  and  C_2
REMARK    2  A    between atoms: C_2  and  C_3
REMARK    3  A    between atoms: C_3  and  C_4
REMARK    4  A    between atoms: C_7  and  C_8
REMARK    5  A    between atoms: C_8  and  N_9
REMARK                            x       y       z     vdW  Elec       q    Type
REMARK                         _______ _______ _______ _____ _____    ______ ____
ROOT
ATOM      1  C   UNL     1      46.152   2.289   7.888  0.00  0.00    +0.000 A 
ATOM      2  C   UNL     1      45.276   1.718   8.819  0.00  0.00    +0.000 A 
ATOM      3  C   UNL     1      44.524   2.525   9.678  0.00  0.00    +0.000 A 
ATOM      4  C   UNL     1      44.627   3.922   9.617  0.00  0.00    +0.000 A 
ATOM      5  C   UNL     1      45.486   4.491   8.666  0.00  0.00    +0.000 A 
ATOM      6  C   UNL     1      46.236   3.684   7.808  0.00  0.00    +0.000 A 
ENDROOT
BRANCH   1   7
ATOM      7  C   UNL     1      47.016   1.417   7.007  0.00  0.00    +0.000 C 
BRANCH   7   8
ATOM      8  C   UNL     1      48.323   2.097   6.588  0.00  0.00    +0.000 C 
BRANCH   8   9
ATOM      9  N   UNL     1      48.383   2.254   5.133  0.00  0.00    +0.000 NA
ATOM     10  H   UNL     1      48.727   3.186   4.907  0.00  0.00    +0.000 HD
ATOM     11  H   UNL     1      47.443   2.195   4.744  0.00  0.00    +0.000 HD
ENDBRANCH   8   9
ENDBRANCH   7   8
ENDBRANCH   1   7
BRANCH   4  12
ATOM     12  C   UNL     1      43.854   4.803  10.568  0.00  0.00    +0.000 C 
BRANCH  12  13
ATOM     13  N   UNL     1      44.721   5.445  11.545  0.00  0.00    +0.000 N 
ATOM     14  C   UNL     1      45.473   4.787  12.492  0.00  0.00    +0.000 A 
ATOM     15  C   UNL     1      46.118   5.736  13.257  0.00  0.00    +0.000 A 
ATOM     16  C   UNL     1      45.736   7.014  12.769  0.00  0.00    +0.000 A 
ATOM     17  C   UNL     1      46.037   8.343  13.111  0.00  0.00    +0.000 A 
ATOM     18  C   UNL     1      45.430   9.354  12.369  0.00  0.00    +0.000 A 
ATOM     19  C   UNL     1      44.559   9.008  11.344  0.00  0.00    +0.000 A 
ATOM     20  N   UNL     1      44.230   7.749  10.977  0.00  0.00    +0.000 NA
ATOM     21  C   UNL     1      44.852   6.802  11.713  0.00  0.00    +0.000 A 
ENDBRANCH  12  13
ENDBRANCH   4  12
TORSDOF 5
ENDMDL
MODEL 3
REMARK VINA RESULT:    -6.564      1.944      6.431
REMARK INTER + INTRA:          -8.713
REMARK INTER:                  -8.229
REMARK INTRA:                  -0.484
REMARK UNBOUND:                -0.422
REMARK  Name = 
REMARK  5 active torsions:
REMARK  status: ('A' for Active; 'I' for Inactive)
REMARK    1  A    between atoms: N_1  and  C_2
REMARK    2  A    between atoms: C_2  and  C_3
REMARK    3  A    between atoms: C_3  and  C_4
REMARK    4  A    between atoms: C_7  and  C_8
REMARK    5  A    between atoms: C_8  and  N_9
REMARK                            x       y       z     vdW  Elec       q    Type
REMARK                         _______ _______ _______ _____ _____    ______ ____
ROOT
ATOM      1  C   UNL     1      46.782   6.094  12.893  0.00  0.00    +0.000 A 
ATOM      2  C   UNL     1      46.874   6.656  11.614  0.00  0.00    +0.000 A 
ATOM      3  C   UNL     1      46.049   6.207  10.577  0.00  0.00    +0.000 A 
ATOM      4  C   UNL     1      45.108   5.193  10.803  0.00  0.00    +0.000 A 
ATOM      5  C   UNL     1      45.000   4.651  12.091  0.00  0.00    +0.000 A 
ATOM      6  C   UNL     1      45.824   5.100  13.126  0.00  0.00    +0.000 A 
ENDROOT
BRANCH   1   7
ATOM      7  C   UNL     1      47.720   6.528  13.995  0.00  0.00    +0.000 C 
BRANCH   7   8
ATOM      8  C   UNL     1      48.096   8.010  13.912  0.00  0.00    +0.000 C 
BRANCH   8   9
ATOM      9  N   UNL     1      47.024   8.848  14.455  0.00  0.00    +0.000 NA
ATOM     10  H   UNL     1      46.789   9.574  13.780  0.00  0.00    +0.000 HD
ATOM     11  H   UNL     1      47.356   9.330  15.288  0.00  0.00    +0.000 HD
ENDBRANCH   8   9
ENDBRANCH   7   8
ENDBRANCH   1   7
BRANCH   4  12
ATOM     12  C   UNL     1      44.242   4.671   9.683  0.00  0.00    +0.000 C 
BRANCH  12  13
ATOM     13  N   UNL     1      44.743   3.415   9.146  0.00  0.00    +0.000 N 
ATOM     14  C   UNL     1      44.329   2.162   9.539  0.00  0.00    +0.000 A 
ATOM     15  C   UNL     1      45.067   1.231   8.839  0.00  0.00    +0.000 A 
ATOM     16  C   UNL     1      45.971   1.939   8.002  0.00  0.00    +0.000 A 
ATOM     17  C   UNL     1      46.960   1.578   7.074  0.00  0.00    +0.000 A 
ATOM     18  C   UNL     1      47.659   2.606   6.443  0.00  0.00    +0.000 A 
ATOM     19  C   UNL     1      47.356   3.922   6.763  0.00  0.00    +0.000 A 
ATOM     20  N   UNL     1      46.419   4.325   7.651  0.00  0.00    +0.000 NA
ATOM     21  C   UNL     1      45.758   3.297   8.227  0.00  0.00    +0.000 A 
ENDBRANCH  12  13
ENDBRANCH   4  12
TORSDOF 5
ENDMDL
MODEL 4
REMARK VINA RESULT:    -6.248      2.102      6.395
REMARK INTER + INTRA:          -8.313
REMARK INTER:                  -7.866
REMARK INTRA:                  -0.447
REMARK UNBOUND:                -0.422
REMARK  Name = 
REMARK  5 active torsions:
REMARK  status: ('A' for Active; 'I' for Inactive)
REMARK    1  A    between atoms: N_1  and  C_2
REMARK    2  A    between atoms: C_2  and  C_3
REMARK    3  A    between atoms: C_3  and  C_4
REMARK    4  A    between atoms: C_7  and  C_8
REMARK    5  A    between atoms: C_8  and  N_9
REMARK                            x       y       z     vdW  Elec       q    Type
REMARK                         _______ _______ _______ _____ _____    ______ ____
ROOT
ATOM      1  C   UNL     1      47.811   6.634  13.410  0.00  0.00    +0.000 A 
ATOM      2  C   UNL     1      46.869   5.683  13.821  0.00  0.00    +0.000 A 
ATOM      3  C   UNL     1      45.786   5.351  13.000  0.00  0.00    +0.000 A 
ATOM      4  C   UNL     1      45.630   5.958  11.747  0.00  0.00    +0.000 A 
ATOM      5  C   UNL     1      46.588   6.891  11.328  0.00  0.00    +0.000 A 
ATOM      6  C   UNL     1      47.669   7.221  12.148  0.00  0.00    +0.000 A 
ENDROOT
BRANCH   1   7
ATOM      7  C   UNL     1      48.941   7.045  14.324  0.00  0.00    +0.000 C 
BRANCH   7   8
ATOM      8  C   UNL     1      48.912   8.533  14.683  0.00  0.00    +0.000 C 
BRANCH   8   9
ATOM      9  N   UNL     1      47.580   8.929  15.147  0.00  0.00    +0.000 NA
ATOM     10  H   UNL     1      47.285   8.305  15.897  0.00  0.00    +0.000 HD
ATOM     11  H   UNL     1      46.906   8.808  14.394  0.00  0.00    +0.000 HD
ENDBRANCH   8   9
ENDBRANCH   7   8
ENDBRANCH   1   7
BRANCH   4  12
ATOM     12  C   UNL     1      44.442   5.641  10.871  0.00  0.00    +0.000 C 
BRANCH  12  13
ATOM     13  N   UNL     1      44.539   4.315  10.279  0.00  0.00    +0.000 N 
ATOM     14  C   UNL     1      43.952   3.176  10.783  0.00  0.00    +0.000 A 
ATOM     15  C   UNL     1      44.313   2.118   9.975  0.00  0.00    +0.000 A 
ATOM     16  C   UNL     1      45.159   2.626   8.953  0.00  0.00    +0.000 A 
ATOM     17  C   UNL     1      45.838   2.075   7.855  0.00  0.00    +0.000 A 
ATOM     18  C   UNL     1      46.601   2.936   7.067  0.00  0.00    +0.000 A 
ATOM     19  C   UNL     1      46.661   4.280   7.405  0.00  0.00    +0.000 A 
ATOM     20  N   UNL     1      46.034   4.863   8.452  0.00  0.00    +0.000 NA
ATOM     21  C   UNL     1      45.297   3.994   9.178  0.00  0.00    +0.000 A 
ENDBRANCH  12  13
ENDBRANCH   4  12
TORSDOF 5
ENDMDL
MODEL 5
REMARK VINA RESULT:    -5.960      2.318      5.920
REMARK INTER + INTRA:          -7.949
REMARK INTER:                  -7.645
REMARK INTRA:                  -0.304
REMARK UNBOUND:                -0.422
REMARK  Name = 
REMARK  5 active torsions:
REMARK  status: ('A' for Active; 'I' for Inactive)
REMARK    1  A    between atoms: N_1  and  C_2
REMARK    2  A    between atoms: C_2  and  C_3
REMARK    3  A    between atoms: C_3  and  C_4
REMARK    4  A    between atoms: C_7  and  C_8
REMARK    5  A    between atoms: C_8  and  N_9
REMARK                            x       y       z     vdW  Elec       q    Type
REMARK                         _______ _______ _______ _____ _____    ______ ____
ROOT
ATOM      1  C   UNL     1      48.288   7.325  13.025  0.00  0.00    +0.000 A 
ATOM      2  C   UNL     1      47.503   8.361  12.503  0.00  0.00    +0.000 A 
ATOM      3  C   UNL     1      46.245   8.094  11.953  0.00  0.00    +0.000 A 
ATOM      4  C   UNL     1      45.743   6.786  11.924  0.00  0.00    +0.000 A 
ATOM      5  C   UNL     1      46.520   5.755  12.470  0.00  0.00    +0.000 A 
ATOM      6  C   UNL     1      47.776   6.023  13.020  0.00  0.00    +0.000 A 
ENDROOT
BRANCH   1   7
ATOM      7  C   UNL     1      49.675   7.601  13.555  0.00  0.00    +0.000 C 
BRANCH   7   8
ATOM      8  C   UNL     1      50.587   8.275  12.526  0.00  0.00    +0.000 C 
BRANCH   8   9
ATOM      9  N   UNL     1      50.860   7.372  11.405  0.00  0.00    +0.000 NA
ATOM     10  H   UNL     1      51.865   7.328  11.244  0.00  0.00    +0.000 HD
ATOM     11  H   UNL     1      50.452   7.752  10.553  0.00  0.00    +0.000 HD
ENDBRANCH   8   9
ENDBRANCH   7   8
ENDBRANCH   1   7
BRANCH   4  12
ATOM     12  C   UNL     1      44.406   6.479  11.294  0.00  0.00    +0.000 C 
BRANCH  12  13
ATOM     13  N   UNL     1      44.239   5.057  11.032  0.00  0.00    +0.000 N 
ATOM     14  C   UNL     1      43.563   4.174  11.843  0.00  0.00    +0.000 A 
ATOM     15  C   UNL     1      43.668   2.918  11.283  0.00  0.00    +0.000 A 
ATOM     16  C   UNL     1      44.444   3.036  10.100  0.00  0.00    +0.000 A 
ATOM     17  C   UNL     1      44.896   2.148   9.111  0.00  0.00    +0.000 A 
ATOM     18  C   UNL     1      45.669   2.672   8.076  0.00  0.00    +0.000 A 
ATOM     19  C   UNL     1      45.962   4.029   8.076  0.00  0.00    +0.000 A 
ATOM     20  N   UNL     1      45.559   4.926   9.003  0.00  0.00    +0.000 NA
ATOM     21  C   UNL     1      44.801   4.377   9.977  0.00  0.00    +0.000 A 
ENDBRANCH  12  13
ENDBRANCH   4  12
TORSDOF 5
ENDMDL
MODEL 6
REMARK VINA RESULT:    -5.524      3.441      5.468
REMARK INTER + INTRA:          -7.399
REMARK INTER:                  -6.888
REMARK INTRA:                  -0.511
REMARK UNBOUND:                -0.422
REMARK  Name = 
REMARK  5 active torsions:
REMARK  status: ('A' for Active; 'I' for Inactive)
REMARK    1  A    between atoms: N_1  and  C_2
REMARK    2  A    between atoms: C_2  and  C_3
REMARK    3  A    between atoms: C_3  and  C_4
REMARK    4  A    between atoms: C_7  and  C_8
REMARK    5  A    between atoms: C_8  and  N_9
REMARK                            x       y       z     vdW  Elec       q    Type
REMARK                         _______ _______ _______ _____ _____    ______ ____
ROOT
ATOM      1  C   UNL     1      44.914   5.148  11.839  0.00  0.00    +0.000 A 
ATOM      2  C   UNL     1      45.439   4.715  13.062  0.00  0.00    +0.000 A 
ATOM      3  C   UNL     1      46.655   5.220  13.535  0.00  0.00    +0.000 A 
ATOM      4  C   UNL     1      47.364   6.178  12.796  0.00  0.00    +0.000 A 
ATOM      5  C   UNL     1      46.823   6.629  11.585  0.00  0.00    +0.000 A 
ATOM      6  C   UNL     1      45.608   6.124  11.114  0.00  0.00    +0.000 A 
ENDROOT
BRANCH   1   7
ATOM      7  C   UNL     1      43.637   4.553  11.294  0.00  0.00    +0.000 C 
BRANCH   7   8
ATOM      8  C   UNL     1      43.806   3.107  10.818  0.00  0.00    +0.000 C 
BRANCH   8   9
ATOM      9  N   UNL     1      43.031   2.191  11.659  0.00  0.00    +0.000 NA
ATOM     10  H   UNL     1      42.050   2.462  11.639  0.00  0.00    +0.000 HD
ATOM     11  H   UNL     1      43.332   2.280  12.628  0.00  0.00    +0.000 HD
ENDBRANCH   8   9
ENDBRANCH   7   8
ENDBRANCH   1   7
BRANCH   4  12
ATOM     12  C   UNL     1      48.698   6.698  13.275  0.00  0.00    +0.000 C 
BRANCH  12  13
ATOM     13  N   UNL     1      48.578   7.444  14.519  0.00  0.00    +0.000 N 
ATOM     14  C   UNL     1      48.193   8.762  14.621  0.00  0.00    +0.000 A 
ATOM     15  C   UNL     1      48.249   9.119  15.952  0.00  0.00    +0.000 A 
ATOM     16  C   UNL     1      48.696   7.987  16.683  0.00  0.00    +0.000 A 
ATOM     17  C   UNL     1      48.954   7.712  18.036  0.00  0.00    +0.000 A 
ATOM     18  C   UNL     1      49.405   6.434  18.361  0.00  0.00    +0.000 A 
ATOM     19  C   UNL     1      49.585   5.505  17.346  0.00  0.00    +0.000 A 
ATOM     20  N   UNL     1      49.359   5.717  16.030  0.00  0.00    +0.000 NA
ATOM     21  C   UNL     1      48.910   6.963  15.763  0.00  0.00    +0.000 A 
ENDBRANCH  12  13
ENDBRANCH   4  12
TORSDOF 5
ENDMDL
MODEL 7
REMARK VINA RESULT:    -5.521      2.211      3.178
REMARK INTER + INTRA:          -7.395
REMARK INTER:                  -7.247
REMARK INTRA:                  -0.148
REMARK UNBOUND:                -0.422
REMARK  Name = 
REMARK  5 active torsions:
REMARK  status: ('A' for Active; 'I' for Inactive)
REMARK    1  A    between atoms: N_1  and  C_2
REMARK    2  A    between atoms: C_2  and  C_3
REMARK    3  A    between atoms: C_3  and  C_4
REMARK    4  A    between atoms: C_7  and  C_8
REMARK    5  A    between atoms: C_8  and  N_9
REMARK                            x       y       z     vdW  Elec       q    Type
REMARK                         _______ _______ _______ _____ _____    ______ ____
ROOT
ATOM      1  C   UNL     1      45.233   3.739   9.200  0.00  0.00    +0.000 A 
ATOM      2  C   UNL     1      45.647   5.076   9.237  0.00  0.00    +0.000 A 
ATOM      3  C   UNL     1      45.646   5.789  10.441  0.00  0.00    +0.000 A 
ATOM      4  C   UNL     1      45.241   5.174  11.634  0.00  0.00    +0.000 A 
ATOM      5  C   UNL     1      44.852   3.828  11.597  0.00  0.00    +0.000 A 
ATOM      6  C   UNL     1      44.853   3.117  10.395  0.00  0.00    +0.000 A 
ENDROOT
BRANCH   1   7
ATOM      7  C   UNL     1      45.166   2.989   7.890  0.00  0.00    +0.000 C 
BRANCH   7   8
ATOM      8  C   UNL     1      46.529   2.857   7.205  0.00  0.00    +0.000 C 
BRANCH   8   9
ATOM      9  N   UNL     1      46.775   3.994   6.315  0.00  0.00    +0.000 NA
ATOM     10  H   UNL     1      46.733   4.859   6.851  0.00  0.00    +0.000 HD
ATOM     11  H   UNL     1      46.030   4.053   5.622  0.00  0.00    +0.000 HD
ENDBRANCH   8   9
ENDBRANCH   7   8
ENDBRANCH   1   7
BRANCH   4  12
ATOM     12  C   UNL     1      45.195   5.944  12.931  0.00  0.00    +0.000 C 
BRANCH  12  13
ATOM     13  N   UNL     1      45.824   7.252  12.812  0.00  0.00    +0.000 N 
ATOM     14  C   UNL     1      45.171   8.420  12.489  0.00  0.00    +0.000 A 
ATOM     15  C   UNL     1      46.110   9.428  12.426  0.00  0.00    +0.000 A 
ATOM     16  C   UNL     1      47.378   8.853  12.707  0.00  0.00    +0.000 A 
ATOM     17  C   UNL     1      48.694   9.336  12.794  0.00  0.00    +0.000 A 
ATOM     18  C   UNL     1      49.700   8.419  13.094  0.00  0.00    +0.000 A 
ATOM     19  C   UNL     1      49.361   7.086  13.282  0.00  0.00    +0.000 A 
ATOM     20  N   UNL     1      48.115   6.567  13.204  0.00  0.00    +0.000 NA
ATOM     21  C   UNL     1      47.172   7.493  12.926  0.00  0.00    +0.000 A 
ENDBRANCH  12  13
ENDBRANCH   4  12
TORSDOF 5
ENDMDL
MODEL 8
REMARK VINA RESULT:    -5.174      4.338      6.367
REMARK INTER + INTRA:          -6.957
REMARK INTER:                  -6.418
REMARK INTRA:                  -0.539
REMARK UNBOUND:                -0.422
REMARK  Name = 
REMARK  5 active torsions:
REMARK  status: ('A' for Active; 'I' for Inactive)
REMARK    1  A    between atoms: N_1  and  C_2
REMARK    2  A    between atoms: C_2  and  C_3
REMARK    3  A    between atoms: C_3  and  C_4
REMARK    4  A    between atoms: C_7  and  C_8
REMARK    5  A    between atoms: C_8  and  N_9
REMARK                            x       y       z     vdW  Elec       q    Type
REMARK                         _______ _______ _______ _____ _____    ______ ____
ROOT
ATOM      1  C   UNL     1      45.264   6.450  12.213  0.00  0.00    +0.000 A 
ATOM      2  C   UNL     1      46.072   5.357  12.550  0.00  0.00    +0.000 A 
ATOM      3  C   UNL     1      47.261   5.542  13.264  0.00  0.00    +0.000 A 
ATOM      4  C   UNL     1      47.659   6.825  13.665  0.00  0.00    +0.000 A 
ATOM      5  C   UNL     1      46.835   7.914  13.349  0.00  0.00    +0.000 A 
ATOM      6  C   UNL     1      45.648   7.728  12.636  0.00  0.00    +0.000 A 
ENDROOT
BRANCH   1   7
ATOM      7  C   UNL     1      44.018   6.260  11.382  0.00  0.00    +0.000 C 
BRANCH   7   8
ATOM      8  C   UNL     1      43.118   5.134  11.900  0.00  0.00    +0.000 C 
BRANCH   8   9
ATOM      9  N   UNL     1      42.620   5.444  13.242  0.00  0.00    +0.000 NA
ATOM     10  H   UNL     1      43.171   4.937  13.933  0.00  0.00    +0.000 HD
ATOM     11  H   UNL     1      41.663   5.106  13.338  0.00  0.00    +0.000 HD
ENDBRANCH   8   9
ENDBRANCH   7   8
ENDBRANCH   1   7
BRANCH   4  12
ATOM     12  C   UNL     1      48.960   7.042  14.398  0.00  0.00    +0.000 C 
BRANCH  12  13
ATOM     13  N   UNL     1      48.764   7.163  15.835  0.00  0.00    +0.000 N 
ATOM     14  C   UNL     1      48.670   8.350  16.526  0.00  0.00    +0.000 A 
ATOM     15  C   UNL     1      48.537   8.052  17.866  0.00  0.00    +0.000 A 
ATOM     16  C   UNL     1      48.564   6.639  17.998  0.00  0.00    +0.000 A 
ATOM     17  C   UNL     1      48.478   5.735  19.069  0.00  0.00    +0.000 A 
ATOM     18  C   UNL     1      48.557   4.375  18.776  0.00  0.00    +0.000 A 
ATOM     19  C   UNL     1      48.725   3.980  17.456  0.00  0.00    +0.000 A 
ATOM     20  N   UNL     1      48.820   4.805  16.389  0.00  0.00    +0.000 NA
ATOM     21  C   UNL     1      48.724   6.111  16.718  0.00  0.00    +0.000 A 
ENDBRANCH  12  13
ENDBRANCH   4  12
TORSDOF 5
ENDMDL
MODEL 9
REMARK VINA RESULT:    -4.866      3.698      6.260
REMARK INTER + INTRA:          -6.569
REMARK INTER:                  -6.083
REMARK INTRA:                  -0.485
REMARK UNBOUND:                -0.422
REMARK  Name = 
REMARK  5 active torsions:
REMARK  status: ('A' for Active; 'I' for Inactive)
REMARK    1  A    between atoms: N_1  and  C_2
REMARK    2  A    between atoms: C_2  and  C_3
REMARK    3  A    between atoms: C_3  and  C_4
REMARK    4  A    between atoms: C_7  and  C_8
REMARK    5  A    between atoms: C_8  and  N_9
REMARK                            x       y       z     vdW  Elec       q    Type
REMARK                         _______ _______ _______ _____ _____    ______ ____
ROOT
ATOM      1  C   UNL     1      50.732   8.193  12.273  0.00  0.00    +0.000 A 
ATOM      2  C   UNL     1      50.274   8.269  13.594  0.00  0.00    +0.000 A 
ATOM      3  C   UNL     1      48.938   7.988  13.902  0.00  0.00    +0.000 A 
ATOM      4  C   UNL     1      48.037   7.616  12.895  0.00  0.00    +0.000 A 
ATOM      5  C   UNL     1      48.506   7.516  11.578  0.00  0.00    +0.000 A 
ATOM      6  C   UNL     1      49.839   7.796  11.271  0.00  0.00    +0.000 A 
ENDROOT
BRANCH   1   7
ATOM      7  C   UNL     1      52.155   8.563  11.929  0.00  0.00    +0.000 C 
BRANCH   7   8
ATOM      8  C   UNL     1      52.736   7.718  10.792  0.00  0.00    +0.000 C 
BRANCH   8   9
ATOM      9  N   UNL     1      53.869   6.920  11.266  0.00  0.00    +0.000 NA
ATOM     10  H   UNL     1      53.639   6.510  12.169  0.00  0.00    +0.000 HD
ATOM     11  H   UNL     1      54.672   7.526  11.425  0.00  0.00    +0.000 HD
ENDBRANCH   8   9
ENDBRANCH   7   8
ENDBRANCH   1   7
BRANCH   4  12
ATOM     12  C   UNL     1      46.584   7.353  13.208  0.00  0.00    +0.000 C 
BRANCH  12  13
ATOM     13  N   UNL     1      46.257   5.937  13.128  0.00  0.00    +0.000 N 
ATOM     14  C   UNL     1      46.967   4.923  13.729  0.00  0.00    +0.000 A 
ATOM     15  C   UNL     1      46.376   3.726  13.382  0.00  0.00    +0.000 A 
ATOM     16  C   UNL     1      45.277   4.019  12.531  0.00  0.00    +0.000 A 
ATOM     17  C   UNL     1      44.305   3.260  11.860  0.00  0.00    +0.000 A 
ATOM     18  C   UNL     1      43.369   3.946  11.088  0.00  0.00    +0.000 A 
ATOM     19  C   UNL     1      43.444   5.329  11.011  0.00  0.00    +0.000 A 
ATOM     20  N   UNL     1      44.360   6.108  11.629  0.00  0.00    +0.000 NA
ATOM     21  C   UNL     1      45.237   5.403  12.376  0.00  0.00    +0.000 A 
ENDBRANCH  12  13
ENDBRANCH   4  12
TORSDOF 5
ENDMDL
