MODEL 1
REMARK VINA RESULT:    -8.641      0.000      0.000
REMARK INTER + INTRA:         -12.716
REMARK INTER:                 -11.672
REMARK INTRA:                  -1.044
REMARK UNBOUND:                -1.044
REMARK  Name = 
REMARK  6 active torsions:
REMARK  status: ('A' for Active; 'I' for Inactive)
REMARK    1  A    between atoms: C_2  and  C_19
REMARK    2  A    between atoms: N_3  and  C_4
REMARK    3  A    between atoms: C_4  and  C_5
REMARK    4  A    between atoms: C_8  and  O_9
REMARK    5  A    between atoms: O_9  and  C_10
REMARK    6  A    between atoms: C_10  and  C_11
REMARK                            x       y       z     vdW  Elec       q    Type
REMARK                         _______ _______ _______ _____ _____    ______ ____
ROOT
ATOM      1  O   UNL     1      49.192   6.693  13.369  0.00  0.00    +0.000 OA
ATOM      2  C   UNL     1      48.481   6.752  14.367  0.00  0.00    +0.000 C 
ATOM      3  N   UNL     1      47.217   7.278  14.336  0.00  0.00    +0.000 N 
ATOM      4  H   UNL     1      46.730   7.455  15.210  0.00  0.00    +0.000 HD
ENDROOT
BRANCH   2   5
ATOM      5  C   UNL     1      48.923   6.212  15.660  0.00  0.00    +0.000 A 
ATOM      6  C   UNL     1      49.950   6.837  16.357  0.00  0.00    +0.000 A 
ATOM      7  S   UNL     1      50.350   6.062  17.823  0.00  0.00    +0.000 S 
ATOM      8  C   UNL     1      49.134   4.891  17.602  0.00  0.00    +0.000 A 
ATOM      9  N   UNL     1      48.917   3.921  18.529  0.00  0.00    +0.000 NA
ATOM     10  C   UNL     1      47.939   3.125  18.253  0.00  0.00    +0.000 A 
ATOM     11  N   UNL     1      47.165   3.203  17.125  0.00  0.00    +0.000 N 
ATOM     12  C   UNL     1      47.397   4.117  16.126  0.00  0.00    +0.000 A 
ATOM     13  O   UNL     1      46.774   4.071  15.068  0.00  0.00    +0.000 OA
ATOM     14  C   UNL     1      48.451   5.073  16.412  0.00  0.00    +0.000 A 
ATOM     15  H   UNL     1      46.433   2.530  16.951  0.00  0.00    +0.000 HD
ENDBRANCH   2   5
BRANCH   3  16
ATOM     16  C   UNL     1      46.625   7.840  13.149  0.00  0.00    +0.000 C 
BRANCH  16  17
ATOM     17  C   UNL     1      45.979   6.792  12.295  0.00  0.00    +0.000 A 
ATOM     18  C   UNL     1      46.394   6.566  10.977  0.00  0.00    +0.000 A 
ATOM     19  C   UNL     1      45.792   5.560  10.227  0.00  0.00    +0.000 A 
ATOM     20  C   UNL     1      44.798   4.801  10.821  0.00  0.00    +0.000 A 
ATOM     21  N   UNL     1      44.346   5.011  12.076  0.00  0.00    +0.000 NA
ATOM     22  C   UNL     1      44.937   6.007  12.776  0.00  0.00    +0.000 A 
BRANCH  20  23
ATOM     23  O   UNL     1      44.229   3.806  10.052  0.00  0.00    +0.000 OA
BRANCH  23  24
ATOM     24  C   UNL     1      44.437   4.027   8.655  0.00  0.00    +0.000 C 
BRANCH  24  25
ATOM     25  C   UNL     1      45.434   3.039   8.104  0.00  0.00    +0.000 A 
ATOM     26  C   UNL     1      46.409   3.438   7.184  0.00  0.00    +0.000 A 
ATOM     27  C   UNL     1      47.358   2.524   6.737  0.00  0.00    +0.000 A 
ATOM     28  C   UNL     1      47.313   1.235   7.237  0.00  0.00    +0.000 A 
ATOM     29  N   UNL     1      46.402   0.814   8.141  0.00  0.00    +0.000 NA
ATOM     30  C   UNL     1      45.490   1.725   8.556  0.00  0.00    +0.000 A 
ENDBRANCH  24  25
ENDBRANCH  23  24
ENDBRANCH  20  23
ENDBRANCH  16  17
ENDBRANCH   3  16
TORSDOF 6
ENDMDL
MODEL 2
REMARK VINA RESULT:    -7.951      2.058      2.500
REMARK INTER + INTRA:         -11.783
REMARK INTER:                 -10.940
REMARK INTRA:                  -0.843
REMARK UNBOUND:                -1.044
REMARK  Name = 
REMARK  6 active torsions:
REMARK  status: ('A' for Active; 'I' for Inactive)
REMARK    1  A    between atoms: C_2  and  C_19
REMARK    2  A    between atoms: N_3  and  C_4
REMARK    3  A    between atoms: C_4  and  C_5
REMARK    4  A    between atoms: C_8  and  O_9
REMARK    5  A    between atoms: O_9  and  C_10
REMARK    6  A    between atoms: C_10  and  C_11
REMARK                            x       y       z     vdW  Elec       q    Type
REMARK                         _______ _______ _______ _____ _____    ______ ____
ROOT
ATOM      1  O   UNL     1      49.857   6.665  15.344  0.00  0.00    +0.000 OA
ATOM      2  C   UNL     1      48.784   6.233  15.753  0.00  0.00    +0.000 C 
ATOM      3  N   UNL     1      47.657   6.218  14.975  0.00  0.00    +0.000 N 
ATOM      4  H   UNL     1      46.760   6.005  15.403  0.00  0.00    +0.000 HD
ENDROOT
BRANCH   2   5
ATOM      5  C   UNL     1      48.649   5.652  17.096  0.00  0.00    +0.000 A 
ATOM      6  C   UNL     1      48.869   4.293  17.288  0.00  0.00    +0.000 A 
ATOM      7  S   UNL     1      48.645   3.788  18.902  0.00  0.00    +0.000 S 
ATOM      8  C   UNL     1      48.291   5.374  19.410  0.00  0.00    +0.000 A 
ATOM      9  N   UNL     1      48.026   5.650  20.714  0.00  0.00    +0.000 NA
ATOM     10  C   UNL     1      47.814   6.898  20.965  0.00  0.00    +0.000 A 
ATOM     11  N   UNL     1      47.832   7.896  20.026  0.00  0.00    +0.000 N 
ATOM     12  C   UNL     1      48.019   7.654  18.687  0.00  0.00    +0.000 A 
ATOM     13  O   UNL     1      47.891   8.550  17.857  0.00  0.00    +0.000 OA
ATOM     14  C   UNL     1      48.317   6.272  18.357  0.00  0.00    +0.000 A 
ATOM     15  H   UNL     1      47.628   8.852  20.281  0.00  0.00    +0.000 HD
ENDBRANCH   2   5
BRANCH   3  16
ATOM     16  C   UNL     1      47.618   6.738  13.633  0.00  0.00    +0.000 C 
BRANCH  16  17
ATOM     17  C   UNL     1      46.742   5.915  12.738  0.00  0.00    +0.000 A 
ATOM     18  C   UNL     1      46.284   4.651  13.127  0.00  0.00    +0.000 A 
ATOM     19  C   UNL     1      45.444   3.930  12.282  0.00  0.00    +0.000 A 
ATOM     20  C   UNL     1      45.078   4.501  11.076  0.00  0.00    +0.000 A 
ATOM     21  N   UNL     1      45.527   5.702  10.649  0.00  0.00    +0.000 NA
ATOM     22  C   UNL     1      46.356   6.371  11.482  0.00  0.00    +0.000 A 
BRANCH  20  23
ATOM     23  O   UNL     1      44.237   3.764  10.266  0.00  0.00    +0.000 OA
BRANCH  23  24
ATOM     24  C   UNL     1      44.432   4.064   8.882  0.00  0.00    +0.000 C 
BRANCH  24  25
ATOM     25  C   UNL     1      45.399   3.090   8.259  0.00  0.00    +0.000 A 
ATOM     26  C   UNL     1      46.350   3.517   7.326  0.00  0.00    +0.000 A 
ATOM     27  C   UNL     1      47.274   2.613   6.811  0.00  0.00    +0.000 A 
ATOM     28  C   UNL     1      47.228   1.304   7.258  0.00  0.00    +0.000 A 
ATOM     29  N   UNL     1      46.340   0.854   8.171  0.00  0.00    +0.000 NA
ATOM     30  C   UNL     1      45.452   1.757   8.652  0.00  0.00    +0.000 A 
ENDBRANCH  24  25
ENDBRANCH  23  24
ENDBRANCH  20  23
ENDBRANCH  16  17
ENDBRANCH   3  16
TORSDOF 6
ENDMDL
MODEL 3
REMARK VINA RESULT:    -7.580      2.494      4.235
REMARK INTER + INTRA:         -11.283
REMARK INTER:                 -10.250
REMARK INTRA:                  -1.033
REMARK UNBOUND:                -1.044
REMARK  Name = 
REMARK  6 active torsions:
REMARK  status: ('A' for Active; 'I' for Inactive)
REMARK    1  A    between atoms: C_2  and  C_19
REMARK    2  A    between atoms: N_3  and  C_4
REMARK    3  A    between atoms: C_4  and  C_5
REMARK    4  A    between atoms: C_8  and  O_9
REMARK    5  A    between atoms: O_9  and  C_10
REMARK    6  A    between atoms: C_10  and  C_11
REMARK                            x       y       z     vdW  Elec       q    Type
REMARK                         _______ _______ _______ _____ _____    ______ ____
ROOT
ATOM      1  O   UNL     1      49.390   6.179  15.539  0.00  0.00    +0.000 OA
ATOM      2  C   UNL     1      48.671   6.912  14.867  0.00  0.00    +0.000 C 
ATOM      3  N   UNL     1      47.525   6.463  14.266  0.00  0.00    +0.000 N 
ATOM      4  H   UNL     1      47.051   7.057  13.592  0.00  0.00    +0.000 HD
ENDROOT
BRANCH   2   5
ATOM      5  C   UNL     1      48.966   8.342  14.705  0.00  0.00    +0.000 A 
ATOM      6  C   UNL     1      48.972   9.179  15.814  0.00  0.00    +0.000 A 
ATOM      7  S   UNL     1      49.310  10.808  15.438  0.00  0.00    +0.000 S 
ATOM      8  C   UNL     1      49.506  10.446  13.786  0.00  0.00    +0.000 A 
ATOM      9  N   UNL     1      49.838  11.413  12.891  0.00  0.00    +0.000 NA
ATOM     10  C   UNL     1      49.994  10.991  11.680  0.00  0.00    +0.000 A 
ATOM     11  N   UNL     1      49.835   9.691  11.281  0.00  0.00    +0.000 N 
ATOM     12  C   UNL     1      49.426   8.695  12.135  0.00  0.00    +0.000 A 
ATOM     13  O   UNL     1      49.159   7.572  11.718  0.00  0.00    +0.000 OA
ATOM     14  C   UNL     1      49.290   9.105  13.522  0.00  0.00    +0.000 A 
ATOM     15  H   UNL     1      49.941   9.429  10.312  0.00  0.00    +0.000 HD
ENDBRANCH   2   5
BRANCH   3  16
ATOM     16  C   UNL     1      47.084   5.094  14.334  0.00  0.00    +0.000 C 
BRANCH  16  17
ATOM     17  C   UNL     1      46.237   4.719  13.155  0.00  0.00    +0.000 A 
ATOM     18  C   UNL     1      45.779   5.683  12.251  0.00  0.00    +0.000 A 
ATOM     19  C   UNL     1      45.023   5.292  11.149  0.00  0.00    +0.000 A 
ATOM     20  C   UNL     1      44.757   3.944  10.979  0.00  0.00    +0.000 A 
ATOM     21  N   UNL     1      45.152   2.988  11.848  0.00  0.00    +0.000 NA
ATOM     22  C   UNL     1      45.868   3.399  12.919  0.00  0.00    +0.000 A 
BRANCH  20  23
ATOM     23  O   UNL     1      44.014   3.589   9.871  0.00  0.00    +0.000 OA
BRANCH  23  24
ATOM     24  C   UNL     1      44.587   4.092   8.661  0.00  0.00    +0.000 C 
BRANCH  24  25
ATOM     25  C   UNL     1      45.576   3.106   8.093  0.00  0.00    +0.000 A 
ATOM     26  C   UNL     1      46.588   3.524   7.222  0.00  0.00    +0.000 A 
ATOM     27  C   UNL     1      47.528   2.609   6.760  0.00  0.00    +0.000 A 
ATOM     28  C   UNL     1      47.437   1.299   7.196  0.00  0.00    +0.000 A 
ATOM     29  N   UNL     1      46.490   0.858   8.051  0.00  0.00    +0.000 NA
ATOM     30  C   UNL     1      45.587   1.771   8.483  0.00  0.00    +0.000 A 
ENDBRANCH  24  25
ENDBRANCH  23  24
ENDBRANCH  20  23
ENDBRANCH  16  17
ENDBRANCH   3  16
TORSDOF 6
ENDMDL
MODEL 4
REMARK VINA RESULT:    -7.497      3.334      4.263
REMARK INTER + INTRA:         -11.171
REMARK INTER:                 -11.081
REMARK INTRA:                  -0.090
REMARK UNBOUND:                -1.044
REMARK  Name = 
REMARK  6 active torsions:
REMARK  status: ('A' for Active; 'I' for Inactive)
REMARK    1  A    between atoms: C_2  and  C_19
REMARK    2  A    between atoms: N_3  and  C_4
REMARK    3  A    between atoms: C_4  and  C_5
REMARK    4  A    between atoms: C_8  and  O_9
REMARK    5  A    between atoms: O_9  and  C_10
REMARK    6  A    between atoms: C_10  and  C_11
REMARK                            x       y       z     vdW  Elec       q    Type
REMARK                         _______ _______ _______ _____ _____    ______ ____
ROOT
ATOM      1  O   UNL     1      44.533   8.075  11.432  0.00  0.00    +0.000 OA
ATOM      2  C   UNL     1      45.410   7.848  12.260  0.00  0.00    +0.000 C 
ATOM      3  N   UNL     1      45.359   6.771  13.105  0.00  0.00    +0.000 N 
ATOM      4  H   UNL     1      46.016   6.713  13.877  0.00  0.00    +0.000 HD
ENDROOT
BRANCH   2   5
ATOM      5  C   UNL     1      46.606   8.694  12.365  0.00  0.00    +0.000 A 
ATOM      6  C   UNL     1      46.501  10.068  12.186  0.00  0.00    +0.000 A 
ATOM      7  S   UNL     1      47.991  10.889  12.318  0.00  0.00    +0.000 S 
ATOM      8  C   UNL     1      48.822   9.445  12.665  0.00  0.00    +0.000 A 
ATOM      9  N   UNL     1      50.158   9.447  12.915  0.00  0.00    +0.000 NA
ATOM     10  C   UNL     1      50.651   8.289  13.202  0.00  0.00    +0.000 A 
ATOM     11  N   UNL     1      49.930   7.125  13.250  0.00  0.00    +0.000 N 
ATOM     12  C   UNL     1      48.595   7.062  12.930  0.00  0.00    +0.000 A 
ATOM     13  O   UNL     1      48.013   5.985  12.848  0.00  0.00    +0.000 OA
ATOM     14  C   UNL     1      47.978   8.347  12.653  0.00  0.00    +0.000 A 
ATOM     15  H   UNL     1      50.380   6.244  13.451  0.00  0.00    +0.000 HD
ENDBRANCH   2   5
BRANCH   3  16
ATOM     16  C   UNL     1      44.263   5.837  13.126  0.00  0.00    +0.000 C 
BRANCH  16  17
ATOM     17  C   UNL     1      44.286   4.918  11.943  0.00  0.00    +0.000 A 
ATOM     18  C   UNL     1      45.186   5.110  10.888  0.00  0.00    +0.000 A 
ATOM     19  C   UNL     1      45.201   4.216   9.821  0.00  0.00    +0.000 A 
ATOM     20  C   UNL     1      44.322   3.147   9.848  0.00  0.00    +0.000 A 
ATOM     21  N   UNL     1      43.416   2.947  10.829  0.00  0.00    +0.000 NA
ATOM     22  C   UNL     1      43.411   3.843  11.844  0.00  0.00    +0.000 A 
BRANCH  20  23
ATOM     23  O   UNL     1      44.369   2.273   8.780  0.00  0.00    +0.000 OA
BRANCH  23  24
ATOM     24  C   UNL     1      45.599   1.544   8.742  0.00  0.00    +0.000 C 
BRANCH  24  25
ATOM     25  C   UNL     1      46.376   1.881   7.495  0.00  0.00    +0.000 A 
ATOM     26  C   UNL     1      46.018   2.972   6.697  0.00  0.00    +0.000 A 
ATOM     27  C   UNL     1      46.787   3.303   5.586  0.00  0.00    +0.000 A 
ATOM     28  C   UNL     1      47.907   2.537   5.313  0.00  0.00    +0.000 A 
ATOM     29  N   UNL     1      48.300   1.489   6.068  0.00  0.00    +0.000 NA
ATOM     30  C   UNL     1      47.530   1.190   7.142  0.00  0.00    +0.000 A 
ENDBRANCH  24  25
ENDBRANCH  23  24
ENDBRANCH  20  23
ENDBRANCH  16  17
ENDBRANCH   3  16
TORSDOF 6
ENDMDL
MODEL 5
REMARK VINA RESULT:    -7.314      2.431      3.320
REMARK INTER + INTRA:         -10.923
REMARK INTER:                 -10.571
REMARK INTRA:                  -0.352
REMARK UNBOUND:                -1.044
REMARK  Name = 
REMARK  6 active torsions:
REMARK  status: ('A' for Active; 'I' for Inactive)
REMARK    1  A    between atoms: C_2  and  C_19
REMARK    2  A    between atoms: N_3  and  C_4
REMARK    3  A    between atoms: C_4  and  C_5
REMARK    4  A    between atoms: C_8  and  O_9
REMARK    5  A    between atoms: O_9  and  C_10
REMARK    6  A    between atoms: C_10  and  C_11
REMARK                            x       y       z     vdW  Elec       q    Type
REMARK                         _______ _______ _______ _____ _____    ______ ____
ROOT
ATOM      1  O   UNL     1      47.170   4.824  13.399  0.00  0.00    +0.000 OA
ATOM      2  C   UNL     1      47.155   6.045  13.279  0.00  0.00    +0.000 C 
ATOM      3  N   UNL     1      45.989   6.753  13.156  0.00  0.00    +0.000 N 
ATOM      4  H   UNL     1      46.029   7.735  12.898  0.00  0.00    +0.000 HD
ENDROOT
BRANCH   2   5
ATOM      5  C   UNL     1      48.392   6.837  13.313  0.00  0.00    +0.000 A 
ATOM      6  C   UNL     1      48.777   7.568  12.195  0.00  0.00    +0.000 A 
ATOM      7  S   UNL     1      50.248   8.406  12.402  0.00  0.00    +0.000 S 
ATOM      8  C   UNL     1      50.399   7.861  14.008  0.00  0.00    +0.000 A 
ATOM      9  N   UNL     1      51.449   8.242  14.782  0.00  0.00    +0.000 NA
ATOM     10  C   UNL     1      51.417   7.787  15.990  0.00  0.00    +0.000 A 
ATOM     11  N   UNL     1      50.434   6.974  16.491  0.00  0.00    +0.000 N 
ATOM     12  C   UNL     1      49.397   6.502  15.724  0.00  0.00    +0.000 A 
ATOM     13  O   UNL     1      48.612   5.666  16.165  0.00  0.00    +0.000 OA
ATOM     14  C   UNL     1      49.355   7.028  14.372  0.00  0.00    +0.000 A 
ATOM     15  H   UNL     1      50.482   6.626  17.438  0.00  0.00    +0.000 HD
ENDBRANCH   2   5
BRANCH   3  16
ATOM     16  C   UNL     1      44.690   6.134  13.116  0.00  0.00    +0.000 C 
BRANCH  16  17
ATOM     17  C   UNL     1      44.583   5.128  12.009  0.00  0.00    +0.000 A 
ATOM     18  C   UNL     1      44.154   3.819  12.253  0.00  0.00    +0.000 A 
ATOM     19  C   UNL     1      44.035   2.923  11.194  0.00  0.00    +0.000 A 
ATOM     20  C   UNL     1      44.337   3.369   9.919  0.00  0.00    +0.000 A 
ATOM     21  N   UNL     1      44.787   4.614   9.648  0.00  0.00    +0.000 NA
ATOM     22  C   UNL     1      44.911   5.457  10.699  0.00  0.00    +0.000 A 
BRANCH  20  23
ATOM     23  O   UNL     1      44.199   2.459   8.890  0.00  0.00    +0.000 OA
BRANCH  23  24
ATOM     24  C   UNL     1      45.305   1.555   8.826  0.00  0.00    +0.000 C 
BRANCH  24  25
ATOM     25  C   UNL     1      46.175   1.865   7.635  0.00  0.00    +0.000 A 
ATOM     26  C   UNL     1      45.931   2.990   6.839  0.00  0.00    +0.000 A 
ATOM     27  C   UNL     1      46.784   3.293   5.783  0.00  0.00    +0.000 A 
ATOM     28  C   UNL     1      47.871   2.466   5.561  0.00  0.00    +0.000 A 
ATOM     29  N   UNL     1      48.155   1.383   6.316  0.00  0.00    +0.000 NA
ATOM     30  C   UNL     1      47.305   1.112   7.336  0.00  0.00    +0.000 A 
ENDBRANCH  24  25
ENDBRANCH  23  24
ENDBRANCH  20  23
ENDBRANCH  16  17
ENDBRANCH   3  16
TORSDOF 6
ENDMDL
MODEL 6
REMARK VINA RESULT:    -7.192      3.304      7.883
REMARK INTER + INTRA:         -10.759
REMARK INTER:                  -9.833
REMARK INTRA:                  -0.926
REMARK UNBOUND:                -1.044
REMARK  Name = 
REMARK  6 active torsions:
REMARK  status: ('A' for Active; 'I' for Inactive)
REMARK    1  A    between atoms: C_2  and  C_19
REMARK    2  A    between atoms: N_3  and  C_4
REMARK    3  A    between atoms: C_4  and  C_5
REMARK    4  A    between atoms: C_8  and  O_9
REMARK    5  A    between atoms: O_9  and  C_10
REMARK    6  A    between atoms: C_10  and  C_11
REMARK                            x       y       z     vdW  Elec       q    Type
REMARK                         _______ _______ _______ _____ _____    ______ ____
ROOT
ATOM      1  O   UNL     1      45.503   7.853  11.702  0.00  0.00    +0.000 OA
ATOM      2  C   UNL     1      46.162   6.851  11.442  0.00  0.00    +0.000 C 
ATOM      3  N   UNL     1      47.486   6.739  11.775  0.00  0.00    +0.000 N 
ATOM      4  H   UNL     1      48.029   5.966  11.400  0.00  0.00    +0.000 HD
ENDROOT
BRANCH   2   5
ATOM      5  C   UNL     1      45.556   5.677  10.799  0.00  0.00    +0.000 A 
ATOM      6  C   UNL     1      45.719   5.474   9.434  0.00  0.00    +0.000 A 
ATOM      7  S   UNL     1      44.928   4.078   8.854  0.00  0.00    +0.000 S 
ATOM      8  C   UNL     1      44.380   3.670  10.413  0.00  0.00    +0.000 A 
ATOM      9  N   UNL     1      43.649   2.544  10.627  0.00  0.00    +0.000 NA
ATOM     10  C   UNL     1      43.334   2.337  11.862  0.00  0.00    +0.000 A 
ATOM     11  N   UNL     1      43.674   3.161  12.903  0.00  0.00    +0.000 N 
ATOM     12  C   UNL     1      44.345   4.347  12.723  0.00  0.00    +0.000 A 
ATOM     13  O   UNL     1      44.512   5.128  13.656  0.00  0.00    +0.000 OA
ATOM     14  C   UNL     1      44.772   4.601  11.359  0.00  0.00    +0.000 A 
ATOM     15  H   UNL     1      43.371   2.960  13.844  0.00  0.00    +0.000 HD
ENDBRANCH   2   5
BRANCH   3  16
ATOM     16  C   UNL     1      48.230   7.791  12.418  0.00  0.00    +0.000 C 
BRANCH  16  17
ATOM     17  C   UNL     1      48.876   7.325  13.688  0.00  0.00    +0.000 A 
ATOM     18  C   UNL     1      50.116   7.825  14.101  0.00  0.00    +0.000 A 
ATOM     19  C   UNL     1      50.669   7.393  15.304  0.00  0.00    +0.000 A 
ATOM     20  C   UNL     1      49.958   6.480  16.063  0.00  0.00    +0.000 A 
ATOM     21  N   UNL     1      48.777   5.948  15.681  0.00  0.00    +0.000 NA
ATOM     22  C   UNL     1      48.272   6.372  14.500  0.00  0.00    +0.000 A 
BRANCH  20  23
ATOM     23  O   UNL     1      50.530   6.080  17.254  0.00  0.00    +0.000 OA
BRANCH  23  24
ATOM     24  C   UNL     1      49.826   4.983  17.841  0.00  0.00    +0.000 C 
BRANCH  24  25
ATOM     25  C   UNL     1      50.614   3.706  17.692  0.00  0.00    +0.000 A 
ATOM     26  C   UNL     1      51.931   3.616  18.156  0.00  0.00    +0.000 A 
ATOM     27  C   UNL     1      52.619   2.410  18.065  0.00  0.00    +0.000 A 
ATOM     28  C   UNL     1      51.960   1.319  17.524  0.00  0.00    +0.000 A 
ATOM     29  N   UNL     1      50.684   1.358  17.084  0.00  0.00    +0.000 NA
ATOM     30  C   UNL     1      50.041   2.546  17.183  0.00  0.00    +0.000 A 
ENDBRANCH  24  25
ENDBRANCH  23  24
ENDBRANCH  20  23
ENDBRANCH  16  17
ENDBRANCH   3  16
TORSDOF 6
ENDMDL
MODEL 7
REMARK VINA RESULT:    -6.523      3.734      9.119
REMARK INTER + INTRA:          -9.855
REMARK INTER:                  -8.925
REMARK INTRA:                  -0.929
REMARK UNBOUND:                -1.044
REMARK  Name = 
REMARK  6 active torsions:
REMARK  status: ('A' for Active; 'I' for Inactive)
REMARK    1  A    between atoms: C_2  and  C_19
REMARK    2  A    between atoms: N_3  and  C_4
REMARK    3  A    between atoms: C_4  and  C_5
REMARK    4  A    between atoms: C_8  and  O_9
REMARK    5  A    between atoms: O_9  and  C_10
REMARK    6  A    between atoms: C_10  and  C_11
REMARK                            x       y       z     vdW  Elec       q    Type
REMARK                         _______ _______ _______ _____ _____    ______ ____
ROOT
ATOM      1  O   UNL     1      47.319   3.257  13.819  0.00  0.00    +0.000 OA
ATOM      2  C   UNL     1      46.768   4.245  14.293  0.00  0.00    +0.000 C 
ATOM      3  N   UNL     1      46.718   4.478  15.642  0.00  0.00    +0.000 N 
ATOM      4  H   UNL     1      46.116   5.216  15.996  0.00  0.00    +0.000 HD
ENDROOT
BRANCH   2   5
ATOM      5  C   UNL     1      46.167   5.276  13.437  0.00  0.00    +0.000 A 
ATOM      6  C   UNL     1      46.889   6.421  13.120  0.00  0.00    +0.000 A 
ATOM      7  S   UNL     1      46.028   7.520  12.138  0.00  0.00    +0.000 S 
ATOM      8  C   UNL     1      44.679   6.485  12.063  0.00  0.00    +0.000 A 
ATOM      9  N   UNL     1      43.576   6.822  11.343  0.00  0.00    +0.000 NA
ATOM     10  C   UNL     1      42.645   5.928  11.341  0.00  0.00    +0.000 A 
ATOM     11  N   UNL     1      42.710   4.731  12.005  0.00  0.00    +0.000 N 
ATOM     12  C   UNL     1      43.770   4.383  12.807  0.00  0.00    +0.000 A 
ATOM     13  O   UNL     1      43.737   3.368  13.496  0.00  0.00    +0.000 OA
ATOM     14  C   UNL     1      44.872   5.329  12.800  0.00  0.00    +0.000 A 
ATOM     15  H   UNL     1      41.934   4.086  11.990  0.00  0.00    +0.000 HD
ENDBRANCH   2   5
BRANCH   3  16
ATOM     16  C   UNL     1      47.266   3.575  16.619  0.00  0.00    +0.000 C 
BRANCH  16  17
ATOM     17  C   UNL     1      48.301   4.238  17.477  0.00  0.00    +0.000 A 
ATOM     18  C   UNL     1      48.572   3.788  18.774  0.00  0.00    +0.000 A 
ATOM     19  C   UNL     1      49.564   4.409  19.528  0.00  0.00    +0.000 A 
ATOM     20  C   UNL     1      50.264   5.457  18.956  0.00  0.00    +0.000 A 
ATOM     21  N   UNL     1      50.009   5.943  17.723  0.00  0.00    +0.000 NA
ATOM     22  C   UNL     1      49.027   5.332  17.020  0.00  0.00    +0.000 A 
BRANCH  20  23
ATOM     23  O   UNL     1      51.248   6.044  19.727  0.00  0.00    +0.000 OA
BRANCH  23  24
ATOM     24  C   UNL     1      52.521   6.020  19.076  0.00  0.00    +0.000 C 
BRANCH  24  25
ATOM     25  C   UNL     1      53.070   4.616  19.036  0.00  0.00    +0.000 A 
ATOM     26  C   UNL     1      53.388   4.003  17.820  0.00  0.00    +0.000 A 
ATOM     27  C   UNL     1      53.953   2.732  17.809  0.00  0.00    +0.000 A 
ATOM     28  C   UNL     1      54.198   2.113  19.023  0.00  0.00    +0.000 A 
ATOM     29  N   UNL     1      53.925   2.678  20.219  0.00  0.00    +0.000 NA
ATOM     30  C   UNL     1      53.374   3.914  20.198  0.00  0.00    +0.000 A 
ENDBRANCH  24  25
ENDBRANCH  23  24
ENDBRANCH  20  23
ENDBRANCH  16  17
ENDBRANCH   3  16
TORSDOF 6
ENDMDL
MODEL 8
REMARK VINA RESULT:    -6.519      3.748      8.529
REMARK INTER + INTRA:          -9.849
REMARK INTER:                  -8.958
REMARK INTRA:                  -0.892
REMARK UNBOUND:                -1.044
REMARK  Name = 
REMARK  6 active torsions:
REMARK  status: ('A' for Active; 'I' for Inactive)
REMARK    1  A    between atoms: C_2  and  C_19
REMARK    2  A    between atoms: N_3  and  C_4
REMARK    3  A    between atoms: C_4  and  C_5
REMARK    4  A    between atoms: C_8  and  O_9
REMARK    5  A    between atoms: O_9  and  C_10
REMARK    6  A    between atoms: C_10  and  C_11
REMARK                            x       y       z     vdW  Elec       q    Type
REMARK                         _______ _______ _______ _____ _____    ______ ____
ROOT
ATOM      1  O   UNL     1      47.287   3.222  13.790  0.00  0.00    +0.000 OA
ATOM      2  C   UNL     1      46.751   4.201  14.301  0.00  0.00    +0.000 C 
ATOM      3  N   UNL     1      46.749   4.411  15.654  0.00  0.00    +0.000 N 
ATOM      4  H   UNL     1      46.159   5.141  16.043  0.00  0.00    +0.000 HD
ENDROOT
BRANCH   2   5
ATOM      5  C   UNL     1      46.119   5.246  13.484  0.00  0.00    +0.000 A 
ATOM      6  C   UNL     1      46.800   6.429  13.224  0.00  0.00    +0.000 A 
ATOM      7  S   UNL     1      45.907   7.537  12.283  0.00  0.00    +0.000 S 
ATOM      8  C   UNL     1      44.598   6.458  12.151  0.00  0.00    +0.000 A 
ATOM      9  N   UNL     1      43.489   6.784  11.435  0.00  0.00    +0.000 NA
ATOM     10  C   UNL     1      42.592   5.858  11.385  0.00  0.00    +0.000 A 
ATOM     11  N   UNL     1      42.697   4.636  11.997  0.00  0.00    +0.000 N 
ATOM     12  C   UNL     1      43.763   4.293  12.793  0.00  0.00    +0.000 A 
ATOM     13  O   UNL     1      43.762   3.248  13.438  0.00  0.00    +0.000 OA
ATOM     14  C   UNL     1      44.828   5.278  12.838  0.00  0.00    +0.000 A 
ATOM     15  H   UNL     1      41.945   3.965  11.947  0.00  0.00    +0.000 HD
ENDBRANCH   2   5
BRANCH   3  16
ATOM     16  C   UNL     1      47.333   3.491  16.596  0.00  0.00    +0.000 C 
BRANCH  16  17
ATOM     17  C   UNL     1      48.697   3.930  17.035  0.00  0.00    +0.000 A 
ATOM     18  C   UNL     1      49.689   3.002  17.373  0.00  0.00    +0.000 A 
ATOM     19  C   UNL     1      50.954   3.448  17.743  0.00  0.00    +0.000 A 
ATOM     20  C   UNL     1      51.195   4.811  17.752  0.00  0.00    +0.000 A 
ATOM     21  N   UNL     1      50.255   5.738  17.467  0.00  0.00    +0.000 NA
ATOM     22  C   UNL     1      49.029   5.277  17.129  0.00  0.00    +0.000 A 
BRANCH  20  23
ATOM     23  O   UNL     1      52.463   5.218  18.114  0.00  0.00    +0.000 OA
BRANCH  23  24
ATOM     24  C   UNL     1      52.834   6.441  17.473  0.00  0.00    +0.000 C 
BRANCH  24  25
ATOM     25  C   UNL     1      53.838   6.183  16.378  0.00  0.00    +0.000 A 
ATOM     26  C   UNL     1      53.902   7.010  15.252  0.00  0.00    +0.000 A 
ATOM     27  C   UNL     1      54.878   6.792  14.284  0.00  0.00    +0.000 A 
ATOM     28  C   UNL     1      55.775   5.756  14.480  0.00  0.00    +0.000 A 
ATOM     29  N   UNL     1      55.760   4.947  15.562  0.00  0.00    +0.000 NA
ATOM     30  C   UNL     1      54.798   5.183  16.485  0.00  0.00    +0.000 A 
ENDBRANCH  24  25
ENDBRANCH  23  24
ENDBRANCH  20  23
ENDBRANCH  16  17
ENDBRANCH   3  16
TORSDOF 6
ENDMDL
MODEL 9
REMARK VINA RESULT:    -6.281      3.152      8.523
REMARK INTER + INTRA:          -9.528
REMARK INTER:                  -8.562
REMARK INTRA:                  -0.965
REMARK UNBOUND:                -1.044
REMARK  Name = 
REMARK  6 active torsions:
REMARK  status: ('A' for Active; 'I' for Inactive)
REMARK    1  A    between atoms: C_2  and  C_19
REMARK    2  A    between atoms: N_3  and  C_4
REMARK    3  A    between atoms: C_4  and  C_5
REMARK    4  A    between atoms: C_8  and  O_9
REMARK    5  A    between atoms: O_9  and  C_10
REMARK    6  A    between atoms: C_10  and  C_11
REMARK                            x       y       z     vdW  Elec       q    Type
REMARK                         _______ _______ _______ _____ _____    ______ ____
ROOT
ATOM      1  O   UNL     1      44.631   7.463  11.856  0.00  0.00    +0.000 OA
ATOM      2  C   UNL     1      45.348   6.489  11.646  0.00  0.00    +0.000 C 
ATOM      3  N   UNL     1      46.714   6.558  11.718  0.00  0.00    +0.000 N 
ATOM      4  H   UNL     1      47.269   5.777  11.381  0.00  0.00    +0.000 HD
ENDROOT
BRANCH   2   5
ATOM      5  C   UNL     1      44.782   5.166  11.352  0.00  0.00    +0.000 A 
ATOM      6  C   UNL     1      43.983   4.529  12.294  0.00  0.00    +0.000 A 
ATOM      7  S   UNL     1      43.434   2.992  11.796  0.00  0.00    +0.000 S 
ATOM      8  C   UNL     1      44.205   3.143  10.286  0.00  0.00    +0.000 A 
ATOM      9  N   UNL     1      44.108   2.164   9.348  0.00  0.00    +0.000 NA
ATOM     10  C   UNL     1      44.707   2.427   8.235  0.00  0.00    +0.000 A 
ATOM     11  N   UNL     1      45.406   3.577   7.979  0.00  0.00    +0.000 N 
ATOM     12  C   UNL     1      45.595   4.559   8.921  0.00  0.00    +0.000 A 
ATOM     13  O   UNL     1      46.340   5.510   8.705  0.00  0.00    +0.000 OA
ATOM     14  C   UNL     1      44.894   4.338  10.174  0.00  0.00    +0.000 A 
ATOM     15  H   UNL     1      45.880   3.710   7.097  0.00  0.00    +0.000 HD
ENDBRANCH   2   5
BRANCH   3  16
ATOM     16  C   UNL     1      47.429   7.774  12.005  0.00  0.00    +0.000 C 
BRANCH  16  17
ATOM     17  C   UNL     1      48.383   7.607  13.149  0.00  0.00    +0.000 A 
ATOM     18  C   UNL     1      49.412   8.527  13.382  0.00  0.00    +0.000 A 
ATOM     19  C   UNL     1      50.257   8.355  14.475  0.00  0.00    +0.000 A 
ATOM     20  C   UNL     1      50.041   7.273  15.310  0.00  0.00    +0.000 A 
ATOM     21  N   UNL     1      49.082   6.345  15.099  0.00  0.00    +0.000 NA
ATOM     22  C   UNL     1      48.287   6.526  14.019  0.00  0.00    +0.000 A 
BRANCH  20  23
ATOM     23  O   UNL     1      50.890   7.138  16.389  0.00  0.00    +0.000 OA
BRANCH  23  24
ATOM     24  C   UNL     1      50.536   6.023  17.211  0.00  0.00    +0.000 C 
BRANCH  24  25
ATOM     25  C   UNL     1      51.717   5.104  17.396  0.00  0.00    +0.000 A 
ATOM     26  C   UNL     1      53.024   5.566  17.208  0.00  0.00    +0.000 A 
ATOM     27  C   UNL     1      54.102   4.719  17.446  0.00  0.00    +0.000 A 
ATOM     28  C   UNL     1      53.840   3.431  17.881  0.00  0.00    +0.000 A 
ATOM     29  N   UNL     1      52.595   2.952  18.094  0.00  0.00    +0.000 NA
ATOM     30  C   UNL     1      51.566   3.799  17.852  0.00  0.00    +0.000 A 
ENDBRANCH  24  25
ENDBRANCH  23  24
ENDBRANCH  20  23
ENDBRANCH  16  17
ENDBRANCH   3  16
TORSDOF 6
ENDMDL
