MODEL 1
REMARK VINA RESULT:    -8.040      0.000      0.000
REMARK INTER + INTRA:         -10.854
REMARK INTER:                 -10.390
REMARK INTRA:                  -0.464
REMARK UNBOUND:                -0.464
REMARK  Name = 
REMARK  5 active torsions:
REMARK  status: ('A' for Active; 'I' for Inactive)
REMARK    1  A    between atoms: C_2  and  C_18
REMARK    2  A    between atoms: N_3  and  C_4
REMARK    3  A    between atoms: C_4  and  C_5
REMARK    4  A    between atoms: C_8  and  C_9
REMARK    5  A    between atoms: C_9  and  N_10
REMARK                            x       y       z     vdW  Elec       q    Type
REMARK                         _______ _______ _______ _____ _____    ______ ____
ROOT
ATOM      1  O   UNL     1      47.200   3.523  14.473  0.00  0.00    +0.000 OA
ATOM      2  C   UNL     1      47.055   4.738  14.440  0.00  0.00    +0.000 C 
ATOM      3  N   UNL     1      45.907   5.370  13.988  0.00  0.00    +0.000 N 
ATOM      4  H   UNL     1      45.725   6.270  14.392  0.00  0.00    +0.000 HD
ENDROOT
BRANCH   2   5
ATOM      5  C   UNL     1      47.885   5.687  15.155  0.00  0.00    +0.000 A 
ATOM      6  C   UNL     1      48.466   6.758  14.507  0.00  0.00    +0.000 A 
ATOM      7  S   UNL     1      49.973   7.148  15.236  0.00  0.00    +0.000 S 
ATOM      8  C   UNL     1      49.683   6.082  16.538  0.00  0.00    +0.000 A 
ATOM      9  N   UNL     1      50.628   5.812  17.474  0.00  0.00    +0.000 NA
ATOM     10  C   UNL     1      50.220   5.055  18.441  0.00  0.00    +0.000 A 
ATOM     11  N   UNL     1      48.934   4.563  18.573  0.00  0.00    +0.000 N 
ATOM     12  C   UNL     1      47.959   4.780  17.632  0.00  0.00    +0.000 A 
ATOM     13  O   UNL     1      46.808   4.379  17.773  0.00  0.00    +0.000 OA
ATOM     14  C   UNL     1      48.414   5.556  16.483  0.00  0.00    +0.000 A 
ATOM     15  H   UNL     1      48.663   4.054  19.398  0.00  0.00    +0.000 HD
ENDBRANCH   2   5
BRANCH   3  16
ATOM     16  C   UNL     1      44.743   4.595  13.637  0.00  0.00    +0.000 C 
BRANCH  16  17
ATOM     17  C   UNL     1      44.718   4.377  12.160  0.00  0.00    +0.000 A 
ATOM     18  C   UNL     1      45.477   5.121  11.285  0.00  0.00    +0.000 A 
ATOM     19  N   UNL     1      45.411   4.989   9.941  0.00  0.00    +0.000 NA
ATOM     20  C   UNL     1      44.550   4.066   9.464  0.00  0.00    +0.000 A 
ATOM     21  N   UNL     1      43.746   3.295  10.239  0.00  0.00    +0.000 NA
ATOM     22  C   UNL     1      43.859   3.475  11.570  0.00  0.00    +0.000 A 
BRANCH  20  23
ATOM     23  C   UNL     1      44.458   3.880   7.947  0.00  0.00    +0.000 C 
BRANCH  23  24
ATOM     24  N   UNL     1      45.355   2.874   7.309  0.00  0.00    +0.000 NA
ATOM     25  C   UNL     1      46.406   3.530   6.522  0.00  0.00    +0.000 C 
ATOM     26  C   UNL     1      47.397   2.541   5.909  0.00  0.00    +0.000 C 
ATOM     27  C   UNL     1      47.977   1.619   6.972  0.00  0.00    +0.000 C 
ATOM     28  C   UNL     1      46.845   0.907   7.700  0.00  0.00    +0.000 C 
ATOM     29  C   UNL     1      45.862   1.916   8.298  0.00  0.00    +0.000 C 
ENDBRANCH  23  24
ENDBRANCH  20  23
ENDBRANCH  16  17
ENDBRANCH   3  16
TORSDOF 5
ENDMDL
MODEL 2
REMARK VINA RESULT:    -7.632      2.086      3.131
REMARK INTER + INTRA:         -10.327
REMARK INTER:                  -9.711
REMARK INTRA:                  -0.616
REMARK UNBOUND:                -0.464
REMARK  Name = 
REMARK  5 active torsions:
REMARK  status: ('A' for Active; 'I' for Inactive)
REMARK    1  A    between atoms: C_2  and  C_18
REMARK    2  A    between atoms: N_3  and  C_4
REMARK    3  A    between atoms: C_4  and  C_5
REMARK    4  A    between atoms: C_8  and  C_9
REMARK    5  A    between atoms: C_9  and  N_10
REMARK                            x       y       z     vdW  Elec       q    Type
REMARK                         _______ _______ _______ _____ _____    ______ ____
ROOT
ATOM      1  O   UNL     1      48.571   8.171  16.638  0.00  0.00    +0.000 OA
ATOM      2  C   UNL     1      48.612   6.968  16.418  0.00  0.00    +0.000 C 
ATOM      3  N   UNL     1      48.361   6.396  15.179  0.00  0.00    +0.000 N 
ATOM      4  H   UNL     1      48.826   5.524  15.006  0.00  0.00    +0.000 HD
ENDROOT
BRANCH   2   5
ATOM      5  C   UNL     1      49.239   5.992  17.287  0.00  0.00    +0.000 A 
ATOM      6  C   UNL     1      50.273   6.345  18.130  0.00  0.00    +0.000 A 
ATOM      7  S   UNL     1      51.355   5.025  18.331  0.00  0.00    +0.000 S 
ATOM      8  C   UNL     1      50.291   3.958  17.530  0.00  0.00    +0.000 A 
ATOM      9  N   UNL     1      50.643   2.684  17.222  0.00  0.00    +0.000 NA
ATOM     10  C   UNL     1      49.692   1.980  16.696  0.00  0.00    +0.000 A 
ATOM     11  N   UNL     1      48.403   2.430  16.475  0.00  0.00    +0.000 N 
ATOM     12  C   UNL     1      48.015   3.720  16.735  0.00  0.00    +0.000 A 
ATOM     13  O   UNL     1      46.860   4.104  16.579  0.00  0.00    +0.000 OA
ATOM     14  C   UNL     1      49.090   4.565  17.246  0.00  0.00    +0.000 A 
ATOM     15  H   UNL     1      47.691   1.800  16.144  0.00  0.00    +0.000 HD
ENDBRANCH   2   5
BRANCH   3  16
ATOM     16  C   UNL     1      48.151   7.232  14.025  0.00  0.00    +0.000 C 
BRANCH  16  17
ATOM     17  C   UNL     1      47.066   6.650  13.179  0.00  0.00    +0.000 A 
ATOM     18  C   UNL     1      46.316   7.405  12.306  0.00  0.00    +0.000 A 
ATOM     19  N   UNL     1      45.282   6.910  11.589  0.00  0.00    +0.000 NA
ATOM     20  C   UNL     1      45.000   5.602  11.757  0.00  0.00    +0.000 A 
ATOM     21  N   UNL     1      45.665   4.776  12.603  0.00  0.00    +0.000 NA
ATOM     22  C   UNL     1      46.685   5.330  13.288  0.00  0.00    +0.000 A 
BRANCH  20  23
ATOM     23  C   UNL     1      43.843   5.004  10.951  0.00  0.00    +0.000 C 
BRANCH  23  24
ATOM     24  N   UNL     1      44.177   4.153   9.773  0.00  0.00    +0.000 NA
ATOM     25  C   UNL     1      45.365   4.662   9.076  0.00  0.00    +0.000 C 
ATOM     26  C   UNL     1      45.792   3.780   7.904  0.00  0.00    +0.000 C 
ATOM     27  C   UNL     1      45.968   2.334   8.343  0.00  0.00    +0.000 C 
ATOM     28  C   UNL     1      44.681   1.836   8.985  0.00  0.00    +0.000 C 
ATOM     29  C   UNL     1      44.268   2.738  10.150  0.00  0.00    +0.000 C 
ENDBRANCH  23  24
ENDBRANCH  20  23
ENDBRANCH  16  17
ENDBRANCH   3  16
TORSDOF 5
ENDMDL
MODEL 3
REMARK VINA RESULT:    -7.598      1.700      2.597
REMARK INTER + INTRA:         -10.283
REMARK INTER:                 -10.077
REMARK INTRA:                  -0.206
REMARK UNBOUND:                -0.464
REMARK  Name = 
REMARK  5 active torsions:
REMARK  status: ('A' for Active; 'I' for Inactive)
REMARK    1  A    between atoms: C_2  and  C_18
REMARK    2  A    between atoms: N_3  and  C_4
REMARK    3  A    between atoms: C_4  and  C_5
REMARK    4  A    between atoms: C_8  and  C_9
REMARK    5  A    between atoms: C_9  and  N_10
REMARK                            x       y       z     vdW  Elec       q    Type
REMARK                         _______ _______ _______ _____ _____    ______ ____
ROOT
ATOM      1  O   UNL     1      47.356   3.460  15.709  0.00  0.00    +0.000 OA
ATOM      2  C   UNL     1      47.448   4.590  15.250  0.00  0.00    +0.000 C 
ATOM      3  N   UNL     1      46.538   5.144  14.362  0.00  0.00    +0.000 N 
ATOM      4  H   UNL     1      46.457   6.143  14.397  0.00  0.00    +0.000 HD
ENDROOT
BRANCH   2   5
ATOM      5  C   UNL     1      48.297   5.633  15.790  0.00  0.00    +0.000 A 
ATOM      6  C   UNL     1      48.598   5.685  17.136  0.00  0.00    +0.000 A 
ATOM      7  S   UNL     1      48.796   7.316  17.640  0.00  0.00    +0.000 S 
ATOM      8  C   UNL     1      48.751   7.878  16.029  0.00  0.00    +0.000 A 
ATOM      9  N   UNL     1      48.728   9.201  15.727  0.00  0.00    +0.000 NA
ATOM     10  C   UNL     1      48.786   9.459  14.460  0.00  0.00    +0.000 A 
ATOM     11  N   UNL     1      48.894   8.508  13.462  0.00  0.00    +0.000 N 
ATOM     12  C   UNL     1      48.883   7.161  13.719  0.00  0.00    +0.000 A 
ATOM     13  O   UNL     1      49.022   6.320  12.836  0.00  0.00    +0.000 OA
ATOM     14  C   UNL     1      48.728   6.835  15.133  0.00  0.00    +0.000 A 
ATOM     15  H   UNL     1      49.024   8.785  12.503  0.00  0.00    +0.000 HD
ENDBRANCH   2   5
BRANCH   3  16
ATOM     16  C   UNL     1      45.333   4.430  14.021  0.00  0.00    +0.000 C 
BRANCH  16  17
ATOM     17  C   UNL     1      45.216   4.334  12.535  0.00  0.00    +0.000 A 
ATOM     18  C   UNL     1      45.700   5.304  11.686  0.00  0.00    +0.000 A 
ATOM     19  N   UNL     1      45.537   5.270  10.344  0.00  0.00    +0.000 NA
ATOM     20  C   UNL     1      44.865   4.214   9.842  0.00  0.00    +0.000 A 
ATOM     21  N   UNL     1      44.335   3.216  10.592  0.00  0.00    +0.000 NA
ATOM     22  C   UNL     1      44.531   3.308  11.922  0.00  0.00    +0.000 A 
BRANCH  20  23
ATOM     23  C   UNL     1      44.673   4.136   8.324  0.00  0.00    +0.000 C 
BRANCH  23  24
ATOM     24  N   UNL     1      45.384   3.055   7.583  0.00  0.00    +0.000 NA
ATOM     25  C   UNL     1      46.465   3.607   6.757  0.00  0.00    +0.000 C 
ATOM     26  C   UNL     1      47.273   2.529   6.035  0.00  0.00    +0.000 C 
ATOM     27  C   UNL     1      47.785   1.482   7.013  0.00  0.00    +0.000 C 
ATOM     28  C   UNL     1      46.613   0.890   7.783  0.00  0.00    +0.000 C 
ATOM     29  C   UNL     1      45.815   1.986   8.491  0.00  0.00    +0.000 C 
ENDBRANCH  23  24
ENDBRANCH  20  23
ENDBRANCH  16  17
ENDBRANCH   3  16
TORSDOF 5
ENDMDL
MODEL 4
REMARK VINA RESULT:    -7.427      3.063      8.585
REMARK INTER + INTRA:         -10.062
REMARK INTER:                  -9.551
REMARK INTRA:                  -0.511
REMARK UNBOUND:                -0.464
REMARK  Name = 
REMARK  5 active torsions:
REMARK  status: ('A' for Active; 'I' for Inactive)
REMARK    1  A    between atoms: C_2  and  C_18
REMARK    2  A    between atoms: N_3  and  C_4
REMARK    3  A    between atoms: C_4  and  C_5
REMARK    4  A    between atoms: C_8  and  C_9
REMARK    5  A    between atoms: C_9  and  N_10
REMARK                            x       y       z     vdW  Elec       q    Type
REMARK                         _______ _______ _______ _____ _____    ______ ____
ROOT
ATOM      1  O   UNL     1      45.586   7.976  11.577  0.00  0.00    +0.000 OA
ATOM      2  C   UNL     1      45.674   6.765  11.426  0.00  0.00    +0.000 C 
ATOM      3  N   UNL     1      46.736   6.001  11.887  0.00  0.00    +0.000 N 
ATOM      4  H   UNL     1      46.517   5.045  12.099  0.00  0.00    +0.000 HD
ENDROOT
BRANCH   2   5
ATOM      5  C   UNL     1      44.573   5.898  11.059  0.00  0.00    +0.000 A 
ATOM      6  C   UNL     1      43.381   5.923  11.753  0.00  0.00    +0.000 A 
ATOM      7  S   UNL     1      42.664   4.361  11.763  0.00  0.00    +0.000 S 
ATOM      8  C   UNL     1      43.797   3.773  10.630  0.00  0.00    +0.000 A 
ATOM      9  N   UNL     1      43.858   2.462  10.285  0.00  0.00    +0.000 NA
ATOM     10  C   UNL     1      44.712   2.196   9.349  0.00  0.00    +0.000 A 
ATOM     11  N   UNL     1      45.496   3.134   8.702  0.00  0.00    +0.000 N 
ATOM     12  C   UNL     1      45.493   4.463   9.045  0.00  0.00    +0.000 A 
ATOM     13  O   UNL     1      46.157   5.299   8.441  0.00  0.00    +0.000 OA
ATOM     14  C   UNL     1      44.606   4.780  10.159  0.00  0.00    +0.000 A 
ATOM     15  H   UNL     1      46.073   2.868   7.922  0.00  0.00    +0.000 HD
ENDBRANCH   2   5
BRANCH   3  16
ATOM     16  C   UNL     1      47.763   6.603  12.700  0.00  0.00    +0.000 C 
BRANCH  16  17
ATOM     17  C   UNL     1      47.793   5.936  14.036  0.00  0.00    +0.000 A 
ATOM     18  C   UNL     1      48.591   6.375  15.068  0.00  0.00    +0.000 A 
ATOM     19  N   UNL     1      48.688   5.742  16.259  0.00  0.00    +0.000 NA
ATOM     20  C   UNL     1      47.946   4.626  16.413  0.00  0.00    +0.000 A 
ATOM     21  N   UNL     1      47.142   4.101  15.455  0.00  0.00    +0.000 NA
ATOM     22  C   UNL     1      47.090   4.779  14.292  0.00  0.00    +0.000 A 
BRANCH  20  23
ATOM     23  C   UNL     1      48.021   3.888  17.754  0.00  0.00    +0.000 C 
BRANCH  23  24
ATOM     24  N   UNL     1      49.328   3.290  18.151  0.00  0.00    +0.000 NA
ATOM     25  C   UNL     1      49.831   2.386  17.109  0.00  0.00    +0.000 C 
ATOM     26  C   UNL     1      51.206   1.805  17.437  0.00  0.00    +0.000 C 
ATOM     27  C   UNL     1      52.203   2.908  17.760  0.00  0.00    +0.000 C 
ATOM     28  C   UNL     1      51.665   3.763  18.898  0.00  0.00    +0.000 C 
ATOM     29  C   UNL     1      50.285   4.327  18.552  0.00  0.00    +0.000 C 
ENDBRANCH  23  24
ENDBRANCH  20  23
ENDBRANCH  16  17
ENDBRANCH   3  16
TORSDOF 5
ENDMDL
MODEL 5
REMARK VINA RESULT:    -7.359      2.099      3.137
REMARK INTER + INTRA:          -9.975
REMARK INTER:                  -9.402
REMARK INTRA:                  -0.573
REMARK UNBOUND:                -0.464
REMARK  Name = 
REMARK  5 active torsions:
REMARK  status: ('A' for Active; 'I' for Inactive)
REMARK    1  A    between atoms: C_2  and  C_18
REMARK    2  A    between atoms: N_3  and  C_4
REMARK    3  A    between atoms: C_4  and  C_5
REMARK    4  A    between atoms: C_8  and  C_9
REMARK    5  A    between atoms: C_9  and  N_10
REMARK                            x       y       z     vdW  Elec       q    Type
REMARK                         _______ _______ _______ _____ _____    ______ ____
ROOT
ATOM      1  O   UNL     1      49.956   6.677  15.004  0.00  0.00    +0.000 OA
ATOM      2  C   UNL     1      48.936   7.110  15.522  0.00  0.00    +0.000 C 
ATOM      3  N   UNL     1      47.978   7.854  14.849  0.00  0.00    +0.000 N 
ATOM      4  H   UNL     1      47.044   7.779  15.208  0.00  0.00    +0.000 HD
ENDROOT
BRANCH   2   5
ATOM      5  C   UNL     1      48.397   6.655  16.788  0.00  0.00    +0.000 A 
ATOM      6  C   UNL     1      48.278   7.512  17.864  0.00  0.00    +0.000 A 
ATOM      7  S   UNL     1      48.491   6.652  19.336  0.00  0.00    +0.000 S 
ATOM      8  C   UNL     1      48.458   5.148  18.529  0.00  0.00    +0.000 A 
ATOM      9  N   UNL     1      48.723   3.980  19.167  0.00  0.00    +0.000 NA
ATOM     10  C   UNL     1      48.569   2.925  18.433  0.00  0.00    +0.000 A 
ATOM     11  N   UNL     1      48.143   2.931  17.117  0.00  0.00    +0.000 N 
ATOM     12  C   UNL     1      47.902   4.089  16.423  0.00  0.00    +0.000 A 
ATOM     13  O   UNL     1      47.483   4.090  15.270  0.00  0.00    +0.000 OA
ATOM     14  C   UNL     1      48.153   5.301  17.196  0.00  0.00    +0.000 A 
ATOM     15  H   UNL     1      47.960   2.066  16.635  0.00  0.00    +0.000 HD
ENDBRANCH   2   5
BRANCH   3  16
ATOM     16  C   UNL     1      48.086   8.055  13.426  0.00  0.00    +0.000 C 
BRANCH  16  17
ATOM     17  C   UNL     1      46.992   7.310  12.734  0.00  0.00    +0.000 A 
ATOM     18  C   UNL     1      45.870   7.931  12.234  0.00  0.00    +0.000 A 
ATOM     19  N   UNL     1      44.836   7.266  11.671  0.00  0.00    +0.000 NA
ATOM     20  C   UNL     1      44.944   5.922  11.606  0.00  0.00    +0.000 A 
ATOM     21  N   UNL     1      45.998   5.214  12.084  0.00  0.00    +0.000 NA
ATOM     22  C   UNL     1      46.995   5.936  12.632  0.00  0.00    +0.000 A 
BRANCH  20  23
ATOM     23  C   UNL     1      43.797   5.136  10.964  0.00  0.00    +0.000 C 
BRANCH  23  24
ATOM     24  N   UNL     1      44.119   4.245   9.813  0.00  0.00    +0.000 NA
ATOM     25  C   UNL     1      45.305   4.723   9.093  0.00  0.00    +0.000 C 
ATOM     26  C   UNL     1      45.720   3.801   7.947  0.00  0.00    +0.000 C 
ATOM     27  C   UNL     1      45.891   2.369   8.433  0.00  0.00    +0.000 C 
ATOM     28  C   UNL     1      44.605   1.901   9.098  0.00  0.00    +0.000 C 
ATOM     29  C   UNL     1      44.205   2.843  10.236  0.00  0.00    +0.000 C 
ENDBRANCH  23  24
ENDBRANCH  20  23
ENDBRANCH  16  17
ENDBRANCH   3  16
TORSDOF 5
ENDMDL
MODEL 6
REMARK VINA RESULT:    -7.329      3.090      8.253
REMARK INTER + INTRA:          -9.936
REMARK INTER:                  -9.081
REMARK INTRA:                  -0.855
REMARK UNBOUND:                -0.464
REMARK  Name = 
REMARK  5 active torsions:
REMARK  status: ('A' for Active; 'I' for Inactive)
REMARK    1  A    between atoms: C_2  and  C_18
REMARK    2  A    between atoms: N_3  and  C_4
REMARK    3  A    between atoms: C_4  and  C_5
REMARK    4  A    between atoms: C_8  and  C_9
REMARK    5  A    between atoms: C_9  and  N_10
REMARK                            x       y       z     vdW  Elec       q    Type
REMARK                         _______ _______ _______ _____ _____    ______ ____
ROOT
ATOM      1  O   UNL     1      44.709   7.578  11.991  0.00  0.00    +0.000 OA
ATOM      2  C   UNL     1      45.670   7.023  11.477  0.00  0.00    +0.000 C 
ATOM      3  N   UNL     1      46.987   7.414  11.669  0.00  0.00    +0.000 N 
ATOM      4  H   UNL     1      47.670   6.684  11.582  0.00  0.00    +0.000 HD
ENDROOT
BRANCH   2   5
ATOM      5  C   UNL     1      45.637   5.705  10.876  0.00  0.00    +0.000 A 
ATOM      6  C   UNL     1      45.945   5.518   9.544  0.00  0.00    +0.000 A 
ATOM      7  S   UNL     1      45.034   4.211   8.899  0.00  0.00    +0.000 S 
ATOM      8  C   UNL     1      44.475   3.763  10.449  0.00  0.00    +0.000 A 
ATOM      9  N   UNL     1      43.537   2.798  10.626  0.00  0.00    +0.000 NA
ATOM     10  C   UNL     1      43.289   2.517  11.865  0.00  0.00    +0.000 A 
ATOM     11  N   UNL     1      43.919   3.098  12.950  0.00  0.00    +0.000 N 
ATOM     12  C   UNL     1      44.844   4.103  12.818  0.00  0.00    +0.000 A 
ATOM     13  O   UNL     1      45.433   4.586  13.780  0.00  0.00    +0.000 OA
ATOM     14  C   UNL     1      45.080   4.505  11.436  0.00  0.00    +0.000 A 
ATOM     15  H   UNL     1      43.739   2.767  13.884  0.00  0.00    +0.000 HD
ENDBRANCH   2   5
BRANCH   3  16
ATOM     16  C   UNL     1      47.303   8.456  12.614  0.00  0.00    +0.000 C 
BRANCH  16  17
ATOM     17  C   UNL     1      47.867   7.847  13.855  0.00  0.00    +0.000 A 
ATOM     18  C   UNL     1      48.180   8.588  14.972  0.00  0.00    +0.000 A 
ATOM     19  N   UNL     1      48.760   8.067  16.076  0.00  0.00    +0.000 NA
ATOM     20  C   UNL     1      49.028   6.745  16.053  0.00  0.00    +0.000 A 
ATOM     21  N   UNL     1      48.775   5.931  14.998  0.00  0.00    +0.000 NA
ATOM     22  C   UNL     1      48.197   6.511  13.929  0.00  0.00    +0.000 A 
BRANCH  20  23
ATOM     23  C   UNL     1      49.674   6.117  17.292  0.00  0.00    +0.000 C 
BRANCH  23  24
ATOM     24  N   UNL     1      50.590   4.958  17.091  0.00  0.00    +0.000 NA
ATOM     25  C   UNL     1      51.899   5.209  17.706  0.00  0.00    +0.000 C 
ATOM     26  C   UNL     1      52.850   4.018  17.592  0.00  0.00    +0.000 C 
ATOM     27  C   UNL     1      52.204   2.750  18.131  0.00  0.00    +0.000 C 
ATOM     28  C   UNL     1      50.892   2.497  17.403  0.00  0.00    +0.000 C 
ATOM     29  C   UNL     1      49.960   3.705  17.524  0.00  0.00    +0.000 C 
ENDBRANCH  23  24
ENDBRANCH  20  23
ENDBRANCH  16  17
ENDBRANCH   3  16
TORSDOF 5
ENDMDL
MODEL 7
REMARK VINA RESULT:    -7.161      2.415      3.000
REMARK INTER + INTRA:          -9.718
REMARK INTER:                  -9.426
REMARK INTRA:                  -0.291
REMARK UNBOUND:                -0.464
REMARK  Name = 
REMARK  5 active torsions:
REMARK  status: ('A' for Active; 'I' for Inactive)
REMARK    1  A    between atoms: C_2  and  C_18
REMARK    2  A    between atoms: N_3  and  C_4
REMARK    3  A    between atoms: C_4  and  C_5
REMARK    4  A    between atoms: C_8  and  C_9
REMARK    5  A    between atoms: C_9  and  N_10
REMARK                            x       y       z     vdW  Elec       q    Type
REMARK                         _______ _______ _______ _____ _____    ______ ____
ROOT
ATOM      1  O   UNL     1      48.612   5.501  15.910  0.00  0.00    +0.000 OA
ATOM      2  C   UNL     1      48.446   6.298  14.997  0.00  0.00    +0.000 C 
ATOM      3  N   UNL     1      47.467   6.169  14.023  0.00  0.00    +0.000 N 
ATOM      4  H   UNL     1      47.145   7.031  13.622  0.00  0.00    +0.000 HD
ENDROOT
BRANCH   2   5
ATOM      5  C   UNL     1      48.993   7.639  14.964  0.00  0.00    +0.000 A 
ATOM      6  C   UNL     1      48.193   8.731  14.697  0.00  0.00    +0.000 A 
ATOM      7  S   UNL     1      49.092   9.940  13.869  0.00  0.00    +0.000 S 
ATOM      8  C   UNL     1      50.559   9.109  14.132  0.00  0.00    +0.000 A 
ATOM      9  N   UNL     1      51.727   9.510  13.569  0.00  0.00    +0.000 NA
ATOM     10  C   UNL     1      52.761   8.825  13.940  0.00  0.00    +0.000 A 
ATOM     11  N   UNL     1      52.736   7.785  14.851  0.00  0.00    +0.000 N 
ATOM     12  C   UNL     1      51.574   7.322  15.414  0.00  0.00    +0.000 A 
ATOM     13  O   UNL     1      51.560   6.428  16.254  0.00  0.00    +0.000 OA
ATOM     14  C   UNL     1      50.378   8.016  14.948  0.00  0.00    +0.000 A 
ATOM     15  H   UNL     1      53.593   7.355  15.160  0.00  0.00    +0.000 HD
ENDBRANCH   2   5
BRANCH   3  16
ATOM     16  C   UNL     1      46.487   5.117  14.115  0.00  0.00    +0.000 C 
BRANCH  16  17
ATOM     17  C   UNL     1      45.970   4.797  12.751  0.00  0.00    +0.000 A 
ATOM     18  C   UNL     1      46.050   5.682  11.699  0.00  0.00    +0.000 A 
ATOM     19  N   UNL     1      45.522   5.440  10.478  0.00  0.00    +0.000 NA
ATOM     20  C   UNL     1      44.896   4.257  10.313  0.00  0.00    +0.000 A 
ATOM     21  N   UNL     1      44.748   3.325  11.287  0.00  0.00    +0.000 NA
ATOM     22  C   UNL     1      45.297   3.626  12.481  0.00  0.00    +0.000 A 
BRANCH  20  23
ATOM     23  C   UNL     1      44.296   3.942   8.939  0.00  0.00    +0.000 C 
BRANCH  23  24
ATOM     24  N   UNL     1      45.081   3.073   8.015  0.00  0.00    +0.000 NA
ATOM     25  C   UNL     1      46.108   3.848   7.308  0.00  0.00    +0.000 C 
ATOM     26  C   UNL     1      46.988   2.985   6.404  0.00  0.00    +0.000 C 
ATOM     27  C   UNL     1      47.589   1.820   7.177  0.00  0.00    +0.000 C 
ATOM     28  C   UNL     1      46.474   1.008   7.821  0.00  0.00    +0.000 C 
ATOM     29  C   UNL     1      45.601   1.892   8.715  0.00  0.00    +0.000 C 
ENDBRANCH  23  24
ENDBRANCH  20  23
ENDBRANCH  16  17
ENDBRANCH   3  16
TORSDOF 5
ENDMDL
MODEL 8
REMARK VINA RESULT:    -7.144      2.452      3.362
REMARK INTER + INTRA:          -9.696
REMARK INTER:                  -9.031
REMARK INTRA:                  -0.665
REMARK UNBOUND:                -0.464
REMARK  Name = 
REMARK  5 active torsions:
REMARK  status: ('A' for Active; 'I' for Inactive)
REMARK    1  A    between atoms: C_2  and  C_18
REMARK    2  A    between atoms: N_3  and  C_4
REMARK    3  A    between atoms: C_4  and  C_5
REMARK    4  A    between atoms: C_8  and  C_9
REMARK    5  A    between atoms: C_9  and  N_10
REMARK                            x       y       z     vdW  Elec       q    Type
REMARK                         _______ _______ _______ _____ _____    ______ ____
ROOT
ATOM      1  O   UNL     1      50.447   6.713  15.301  0.00  0.00    +0.000 OA
ATOM      2  C   UNL     1      49.311   6.598  15.740  0.00  0.00    +0.000 C 
ATOM      3  N   UNL     1      48.169   6.955  15.038  0.00  0.00    +0.000 N 
ATOM      4  H   UNL     1      47.340   6.444  15.279  0.00  0.00    +0.000 HD
ENDROOT
BRANCH   2   5
ATOM      5  C   UNL     1      48.946   5.788  16.884  0.00  0.00    +0.000 A 
ATOM      6  C   UNL     1      48.426   4.520  16.726  0.00  0.00    +0.000 A 
ATOM      7  S   UNL     1      47.321   4.167  17.994  0.00  0.00    +0.000 S 
ATOM      8  C   UNL     1      47.767   5.573  18.851  0.00  0.00    +0.000 A 
ATOM      9  N   UNL     1      47.115   5.974  19.971  0.00  0.00    +0.000 NA
ATOM     10  C   UNL     1      47.634   7.009  20.550  0.00  0.00    +0.000 A 
ATOM     11  N   UNL     1      48.772   7.668  20.122  0.00  0.00    +0.000 N 
ATOM     12  C   UNL     1      49.440   7.321  18.975  0.00  0.00    +0.000 A 
ATOM     13  O   UNL     1      50.474   7.879  18.622  0.00  0.00    +0.000 OA
ATOM     14  C   UNL     1      48.827   6.212  18.251  0.00  0.00    +0.000 A 
ATOM     15  H   UNL     1      49.169   8.411  20.672  0.00  0.00    +0.000 HD
ENDBRANCH   2   5
BRANCH   3  16
ATOM     16  C   UNL     1      48.266   7.378  13.663  0.00  0.00    +0.000 C 
BRANCH  16  17
ATOM     17  C   UNL     1      47.157   6.761  12.874  0.00  0.00    +0.000 A 
ATOM     18  C   UNL     1      46.380   7.481  11.995  0.00  0.00    +0.000 A 
ATOM     19  N   UNL     1      45.327   6.958  11.329  0.00  0.00    +0.000 NA
ATOM     20  C   UNL     1      45.052   5.657  11.555  0.00  0.00    +0.000 A 
ATOM     21  N   UNL     1      45.744   4.866  12.413  0.00  0.00    +0.000 NA
ATOM     22  C   UNL     1      46.782   5.447  13.046  0.00  0.00    +0.000 A 
BRANCH  20  23
ATOM     23  C   UNL     1      43.873   5.027  10.808  0.00  0.00    +0.000 C 
BRANCH  23  24
ATOM     24  N   UNL     1      44.174   4.124   9.660  0.00  0.00    +0.000 NA
ATOM     25  C   UNL     1      45.360   4.582   8.927  0.00  0.00    +0.000 C 
ATOM     26  C   UNL     1      45.754   3.646   7.785  0.00  0.00    +0.000 C 
ATOM     27  C   UNL     1      45.910   2.216   8.280  0.00  0.00    +0.000 C 
ATOM     28  C   UNL     1      44.624   1.769   8.959  0.00  0.00    +0.000 C 
ATOM     29  C   UNL     1      44.245   2.724  10.093  0.00  0.00    +0.000 C 
ENDBRANCH  23  24
ENDBRANCH  20  23
ENDBRANCH  16  17
ENDBRANCH   3  16
TORSDOF 5
ENDMDL
MODEL 9
REMARK VINA RESULT:    -6.974      2.594      3.540
REMARK INTER + INTRA:          -9.477
REMARK INTER:                  -8.998
REMARK INTRA:                  -0.479
REMARK UNBOUND:                -0.464
REMARK  Name = 
REMARK  5 active torsions:
REMARK  status: ('A' for Active; 'I' for Inactive)
REMARK    1  A    between atoms: C_2  and  C_18
REMARK    2  A    between atoms: N_3  and  C_4
REMARK    3  A    between atoms: C_4  and  C_5
REMARK    4  A    between atoms: C_8  and  C_9
REMARK    5  A    between atoms: C_9  and  N_10
REMARK                            x       y       z     vdW  Elec       q    Type
REMARK                         _______ _______ _______ _____ _____    ______ ____
ROOT
ATOM      1  O   UNL     1      46.331   8.546  13.222  0.00  0.00    +0.000 OA
ATOM      2  C   UNL     1      46.696   7.465  13.661  0.00  0.00    +0.000 C 
ATOM      3  N   UNL     1      45.923   6.314  13.632  0.00  0.00    +0.000 N 
ATOM      4  H   UNL     1      46.436   5.452  13.602  0.00  0.00    +0.000 HD
ENDROOT
BRANCH   2   5
ATOM      5  C   UNL     1      48.070   7.121  13.968  0.00  0.00    +0.000 A 
ATOM      6  C   UNL     1      48.408   6.523  15.165  0.00  0.00    +0.000 A 
ATOM      7  S   UNL     1      49.980   7.015  15.654  0.00  0.00    +0.000 S 
ATOM      8  C   UNL     1      50.271   7.774  14.153  0.00  0.00    +0.000 A 
ATOM      9  N   UNL     1      51.380   8.522  13.925  0.00  0.00    +0.000 NA
ATOM     10  C   UNL     1      51.492   8.953  12.709  0.00  0.00    +0.000 A 
ATOM     11  N   UNL     1      50.604   8.676  11.686  0.00  0.00    +0.000 N 
ATOM     12  C   UNL     1      49.452   7.957  11.881  0.00  0.00    +0.000 A 
ATOM     13  O   UNL     1      48.688   7.677  10.962  0.00  0.00    +0.000 OA
ATOM     14  C   UNL     1      49.250   7.533  13.262  0.00  0.00    +0.000 A 
ATOM     15  H   UNL     1      50.801   8.971  10.744  0.00  0.00    +0.000 HD
ENDBRANCH   2   5
BRANCH   3  16
ATOM     16  C   UNL     1      44.655   6.310  12.948  0.00  0.00    +0.000 C 
BRANCH  16  17
ATOM     17  C   UNL     1      44.642   5.218  11.929  0.00  0.00    +0.000 A 
ATOM     18  C   UNL     1      43.907   5.293  10.767  0.00  0.00    +0.000 A 
ATOM     19  N   UNL     1      43.824   4.286   9.870  0.00  0.00    +0.000 NA
ATOM     20  C   UNL     1      44.515   3.162  10.154  0.00  0.00    +0.000 A 
ATOM     21  N   UNL     1      45.254   2.981  11.277  0.00  0.00    +0.000 NA
ATOM     22  C   UNL     1      45.296   4.023  12.131  0.00  0.00    +0.000 A 
BRANCH  20  23
ATOM     23  C   UNL     1      44.455   2.004   9.154  0.00  0.00    +0.000 C 
BRANCH  23  24
ATOM     24  N   UNL     1      45.342   2.067   7.957  0.00  0.00    +0.000 NA
ATOM     25  C   UNL     1      45.825   3.434   7.731  0.00  0.00    +0.000 C 
ATOM     26  C   UNL     1      46.799   3.536   6.557  0.00  0.00    +0.000 C 
ATOM     27  C   UNL     1      47.946   2.548   6.712  0.00  0.00    +0.000 C 
ATOM     28  C   UNL     1      47.387   1.140   6.862  0.00  0.00    +0.000 C 
ATOM     29  C   UNL     1      46.410   1.063   8.036  0.00  0.00    +0.000 C 
ENDBRANCH  23  24
ENDBRANCH  20  23
ENDBRANCH  16  17
ENDBRANCH   3  16
TORSDOF 5
ENDMDL
