MODEL 1
REMARK VINA RESULT:    -8.295      0.000      0.000
REMARK INTER + INTRA:         -12.304
REMARK INTER:                 -11.204
REMARK INTRA:                  -1.100
REMARK UNBOUND:                -1.100
REMARK  Name = 
REMARK  8 active torsions:
REMARK  status: ('A' for Active; 'I' for Inactive)
REMARK    1  A    between atoms: C_1  and  C_2
REMARK    2  A    between atoms: N_4  and  C_5
REMARK    3  A    between atoms: C_9  and  C_10
REMARK    4  A    between atoms: C_10  and  C_11
REMARK    5  A    between atoms: C_11  and  N_12
REMARK    6  A    between atoms: N_12  and  C_13
REMARK    7  A    between atoms: C_16  and  C_17
REMARK    8  A    between atoms: C_24  and  C_25
REMARK                            x       y       z     vdW  Elec       q    Type
REMARK                         _______ _______ _______ _____ _____    ______ ____
ROOT
ATOM      1  C   UNL     1      43.296   5.328  12.290  0.00  0.00    +0.000 C 
ENDROOT
BRANCH   1   6
ATOM      2  C   UNL     1      46.763   6.654  13.277  0.00  0.00    +0.000 A 
ATOM      3  C   UNL     1      47.389   5.440  13.599  0.00  0.00    +0.000 A 
ATOM      4  C   UNL     1      46.730   4.212  13.480  0.00  0.00    +0.000 A 
ATOM      5  C   UNL     1      45.412   4.166  13.038  0.00  0.00    +0.000 A 
ATOM      6  C   UNL     1      44.752   5.347  12.699  0.00  0.00    +0.000 A 
ATOM      7  C   UNL     1      45.441   6.571  12.813  0.00  0.00    +0.000 A 
BRANCH   2  11
ATOM      8  C   UNL     1      49.910   7.681  11.457  0.00  0.00    +0.000 C 
ATOM      9  C   UNL     1      49.668   8.612  12.643  0.00  0.00    +0.000 C 
ATOM     10  C   UNL     1      48.849   7.957  13.774  0.00  0.00    +0.000 C 
ATOM     11  N   UNL     1      47.431   7.855  13.410  0.00  0.00    +0.000 N 
ATOM     12  C   UNL     1      46.841   9.125  12.957  0.00  0.00    +0.000 C 
ATOM     13  C   UNL     1      47.707   9.736  11.830  0.00  0.00    +0.000 C 
ATOM     14  C   UNL     1      47.211  11.129  11.464  0.00  0.00    +0.000 C 
ATOM     15  O   UNL     1      49.089   9.862  12.220  0.00  0.00    +0.000 OA
ENDBRANCH   2  11
ENDBRANCH   1   6
BRANCH   1  16
ATOM     16  C   UNL     1      43.084   4.405  11.084  0.00  0.00    +0.000 C 
BRANCH  16  17
ATOM     17  N   UNL     1      43.795   4.900   9.895  0.00  0.00    +0.000 N 
ATOM     18  H   UNL     1      44.295   5.769  10.079  0.00  0.00    +0.000 HD
BRANCH  17  19
ATOM     19  C   UNL     1      44.608   3.974   9.216  0.00  0.00    +0.000 A 
ATOM     20  C   UNL     1      45.548   4.348   8.250  0.00  0.00    +0.000 A 
ATOM     21  C   UNL     1      46.367   3.398   7.642  0.00  0.00    +0.000 A 
ATOM     22  C   UNL     1      46.249   2.076   8.040  0.00  0.00    +0.000 A 
ATOM     23  N   UNL     1      45.395   1.656   9.012  0.00  0.00    +0.000 NA
ATOM     24  C   UNL     1      44.622   2.621   9.579  0.00  0.00    +0.000 A 
BRANCH  22  25
ATOM     25  C   UNL     1      47.104   1.035   7.383  0.00  0.00    +0.000 C 
ATOM     26  N   UNL     1      46.784  -0.261   7.675  0.00  0.00    +0.000 N 
ATOM     27  O   UNL     1      48.027   1.316   6.629  0.00  0.00    +0.000 OA
ATOM     28  H   UNL     1      46.017  -0.457   8.308  0.00  0.00    +0.000 HD
ATOM     29  H   UNL     1      47.324  -1.010   7.268  0.00  0.00    +0.000 HD
ENDBRANCH  22  25
ENDBRANCH  17  19
ENDBRANCH  16  17
ENDBRANCH   1  16
TORSDOF 6
ENDMDL
MODEL 2
REMARK VINA RESULT:    -8.073      3.139      4.414
REMARK INTER + INTRA:         -12.005
REMARK INTER:                 -11.204
REMARK INTRA:                  -0.801
REMARK UNBOUND:                -1.100
REMARK  Name = 
REMARK  8 active torsions:
REMARK  status: ('A' for Active; 'I' for Inactive)
REMARK    1  A    between atoms: C_1  and  C_2
REMARK    2  A    between atoms: N_4  and  C_5
REMARK    3  A    between atoms: C_9  and  C_10
REMARK    4  A    between atoms: C_10  and  C_11
REMARK    5  A    between atoms: C_11  and  N_12
REMARK    6  A    between atoms: N_12  and  C_13
REMARK    7  A    between atoms: C_16  and  C_17
REMARK    8  A    between atoms: C_24  and  C_25
REMARK                            x       y       z     vdW  Elec       q    Type
REMARK                         _______ _______ _______ _____ _____    ______ ____
ROOT
ATOM      1  C   UNL     1      45.259   3.910  12.401  0.00  0.00    +0.000 C 
ENDROOT
BRANCH   1   6
ATOM      2  C   UNL     1      47.580   5.377  15.086  0.00  0.00    +0.000 A 
ATOM      3  C   UNL     1      48.154   6.423  14.346  0.00  0.00    +0.000 A 
ATOM      4  C   UNL     1      47.791   6.678  13.019  0.00  0.00    +0.000 A 
ATOM      5  C   UNL     1      46.841   5.881  12.389  0.00  0.00    +0.000 A 
ATOM      6  C   UNL     1      46.238   4.836  13.089  0.00  0.00    +0.000 A 
ATOM      7  C   UNL     1      46.608   4.607  14.429  0.00  0.00    +0.000 A 
BRANCH   2  11
ATOM      8  C   UNL     1      48.912   2.127  16.475  0.00  0.00    +0.000 C 
ATOM      9  C   UNL     1      48.490   3.047  17.620  0.00  0.00    +0.000 C 
ATOM     10  C   UNL     1      47.400   4.061  17.215  0.00  0.00    +0.000 C 
ATOM     11  N   UNL     1      47.960   5.140  16.392  0.00  0.00    +0.000 N 
ATOM     12  C   UNL     1      49.136   5.794  16.988  0.00  0.00    +0.000 C 
ATOM     13  C   UNL     1      50.189   4.729  17.379  0.00  0.00    +0.000 C 
ATOM     14  C   UNL     1      51.339   5.364  18.149  0.00  0.00    +0.000 C 
ATOM     15  O   UNL     1      49.629   3.699  18.216  0.00  0.00    +0.000 OA
ENDBRANCH   2  11
ENDBRANCH   1   6
BRANCH   1  16
ATOM     16  C   UNL     1      44.209   4.712  11.624  0.00  0.00    +0.000 C 
BRANCH  16  17
ATOM     17  N   UNL     1      43.711   3.964  10.460  0.00  0.00    +0.000 N 
ATOM     18  H   UNL     1      42.936   4.439   9.999  0.00  0.00    +0.000 HD
BRANCH  17  19
ATOM     19  C   UNL     1      44.674   3.531   9.530  0.00  0.00    +0.000 A 
ATOM     20  C   UNL     1      44.969   2.181   9.308  0.00  0.00    +0.000 A 
ATOM     21  C   UNL     1      45.895   1.800   8.339  0.00  0.00    +0.000 A 
ATOM     22  C   UNL     1      46.494   2.789   7.576  0.00  0.00    +0.000 A 
ATOM     23  N   UNL     1      46.210   4.114   7.704  0.00  0.00    +0.000 NA
ATOM     24  C   UNL     1      45.296   4.435   8.659  0.00  0.00    +0.000 A 
BRANCH  22  25
ATOM     25  C   UNL     1      47.509   2.404   6.543  0.00  0.00    +0.000 C 
ATOM     26  N   UNL     1      47.419   3.067   5.351  0.00  0.00    +0.000 N 
ATOM     27  O   UNL     1      48.369   1.555   6.745  0.00  0.00    +0.000 OA
ATOM     28  H   UNL     1      46.691   3.759   5.216  0.00  0.00    +0.000 HD
ATOM     29  H   UNL     1      48.071   2.850   4.612  0.00  0.00    +0.000 HD
ENDBRANCH  22  25
ENDBRANCH  17  19
ENDBRANCH  16  17
ENDBRANCH   1  16
TORSDOF 6
ENDMDL
MODEL 3
REMARK VINA RESULT:    -7.688      2.540      3.647
REMARK INTER + INTRA:         -11.485
REMARK INTER:                 -10.535
REMARK INTRA:                  -0.950
REMARK UNBOUND:                -1.100
REMARK  Name = 
REMARK  8 active torsions:
REMARK  status: ('A' for Active; 'I' for Inactive)
REMARK    1  A    between atoms: C_1  and  C_2
REMARK    2  A    between atoms: N_4  and  C_5
REMARK    3  A    between atoms: C_9  and  C_10
REMARK    4  A    between atoms: C_10  and  C_11
REMARK    5  A    between atoms: C_11  and  N_12
REMARK    6  A    between atoms: N_12  and  C_13
REMARK    7  A    between atoms: C_16  and  C_17
REMARK    8  A    between atoms: C_24  and  C_25
REMARK                            x       y       z     vdW  Elec       q    Type
REMARK                         _______ _______ _______ _____ _____    ______ ____
ROOT
ATOM      1  C   UNL     1      45.135   4.291  12.441  0.00  0.00    +0.000 C 
ENDROOT
BRANCH   1   6
ATOM      2  C   UNL     1      47.997   6.248  14.094  0.00  0.00    +0.000 A 
ATOM      3  C   UNL     1      48.250   7.184  13.080  0.00  0.00    +0.000 A 
ATOM      4  C   UNL     1      47.505   7.214  11.896  0.00  0.00    +0.000 A 
ATOM      5  C   UNL     1      46.483   6.294  11.690  0.00  0.00    +0.000 A 
ATOM      6  C   UNL     1      46.190   5.349  12.674  0.00  0.00    +0.000 A 
ATOM      7  C   UNL     1      46.944   5.348  13.865  0.00  0.00    +0.000 A 
BRANCH   2  11
ATOM      8  C   UNL     1      48.350   9.074  16.575  0.00  0.00    +0.000 C 
ATOM      9  C   UNL     1      49.443   8.034  16.813  0.00  0.00    +0.000 C 
ATOM     10  C   UNL     1      49.794   7.220  15.551  0.00  0.00    +0.000 C 
ATOM     11  N   UNL     1      48.750   6.233  15.250  0.00  0.00    +0.000 N 
ATOM     12  C   UNL     1      48.402   5.370  16.392  0.00  0.00    +0.000 C 
ATOM     13  C   UNL     1      48.067   6.241  17.627  0.00  0.00    +0.000 C 
ATOM     14  C   UNL     1      47.869   5.371  18.861  0.00  0.00    +0.000 C 
ATOM     15  O   UNL     1      49.120   7.178  17.926  0.00  0.00    +0.000 OA
ENDBRANCH   2  11
ENDBRANCH   1   6
BRANCH   1  16
ATOM     16  C   UNL     1      44.003   4.840  11.565  0.00  0.00    +0.000 C 
BRANCH  16  17
ATOM     17  N   UNL     1      43.567   3.852  10.566  0.00  0.00    +0.000 N 
ATOM     18  H   UNL     1      42.694   4.121  10.114  0.00  0.00    +0.000 HD
BRANCH  17  19
ATOM     19  C   UNL     1      44.528   3.442   9.623  0.00  0.00    +0.000 A 
ATOM     20  C   UNL     1      44.874   2.102   9.419  0.00  0.00    +0.000 A 
ATOM     21  C   UNL     1      45.795   1.742   8.437  0.00  0.00    +0.000 A 
ATOM     22  C   UNL     1      46.336   2.741   7.645  0.00  0.00    +0.000 A 
ATOM     23  N   UNL     1      46.001   4.055   7.755  0.00  0.00    +0.000 NA
ATOM     24  C   UNL     1      45.094   4.355   8.724  0.00  0.00    +0.000 A 
BRANCH  22  25
ATOM     25  C   UNL     1      47.345   2.378   6.598  0.00  0.00    +0.000 C 
ATOM     26  N   UNL     1      47.304   3.126   5.454  0.00  0.00    +0.000 N 
ATOM     27  O   UNL     1      48.160   1.476   6.748  0.00  0.00    +0.000 OA
ATOM     28  H   UNL     1      46.612   3.861   5.361  0.00  0.00    +0.000 HD
ATOM     29  H   UNL     1      47.955   2.929   4.709  0.00  0.00    +0.000 HD
ENDBRANCH  22  25
ENDBRANCH  17  19
ENDBRANCH  16  17
ENDBRANCH   1  16
TORSDOF 6
ENDMDL
MODEL 4
REMARK VINA RESULT:    -7.425      1.440      2.212
REMARK INTER + INTRA:         -11.130
REMARK INTER:                 -10.215
REMARK INTRA:                  -0.914
REMARK UNBOUND:                -1.100
REMARK  Name = 
REMARK  8 active torsions:
REMARK  status: ('A' for Active; 'I' for Inactive)
REMARK    1  A    between atoms: C_1  and  C_2
REMARK    2  A    between atoms: N_4  and  C_5
REMARK    3  A    between atoms: C_9  and  C_10
REMARK    4  A    between atoms: C_10  and  C_11
REMARK    5  A    between atoms: C_11  and  N_12
REMARK    6  A    between atoms: N_12  and  C_13
REMARK    7  A    between atoms: C_16  and  C_17
REMARK    8  A    between atoms: C_24  and  C_25
REMARK                            x       y       z     vdW  Elec       q    Type
REMARK                         _______ _______ _______ _____ _____    ______ ____
ROOT
ATOM      1  C   UNL     1      44.877   3.952  12.312  0.00  0.00    +0.000 C 
ENDROOT
BRANCH   1   6
ATOM      2  C   UNL     1      47.449   6.757  12.826  0.00  0.00    +0.000 A 
ATOM      3  C   UNL     1      47.947   6.383  14.084  0.00  0.00    +0.000 A 
ATOM      4  C   UNL     1      47.493   5.240  14.751  0.00  0.00    +0.000 A 
ATOM      5  C   UNL     1      46.514   4.438  14.175  0.00  0.00    +0.000 A 
ATOM      6  C   UNL     1      45.995   4.767  12.922  0.00  0.00    +0.000 A 
ATOM      7  C   UNL     1      46.479   5.914  12.263  0.00  0.00    +0.000 A 
BRANCH   2  11
ATOM      8  C   UNL     1      48.813   9.860  14.493  0.00  0.00    +0.000 C 
ATOM      9  C   UNL     1      48.479  10.159  13.033  0.00  0.00    +0.000 C 
ATOM     10  C   UNL     1      47.382   9.239  12.459  0.00  0.00    +0.000 C 
ATOM     11  N   UNL     1      47.906   7.894  12.191  0.00  0.00    +0.000 N 
ATOM     12  C   UNL     1      49.128   7.885  11.370  0.00  0.00    +0.000 C 
ATOM     13  C   UNL     1      50.186   8.829  11.990  0.00  0.00    +0.000 C 
ATOM     14  C   UNL     1      51.393   8.966  11.070  0.00  0.00    +0.000 C 
ATOM     15  O   UNL     1      49.663  10.153  12.212  0.00  0.00    +0.000 OA
ENDBRANCH   2  11
ENDBRANCH   1   6
BRANCH   1  16
ATOM     16  C   UNL     1      44.059   4.803  11.333  0.00  0.00    +0.000 C 
BRANCH  16  17
ATOM     17  N   UNL     1      43.635   4.019  10.163  0.00  0.00    +0.000 N 
ATOM     18  H   UNL     1      42.896   4.484   9.635  0.00  0.00    +0.000 HD
BRANCH  17  19
ATOM     19  C   UNL     1      44.654   3.550   9.314  0.00  0.00    +0.000 A 
ATOM     20  C   UNL     1      44.978   2.195   9.187  0.00  0.00    +0.000 A 
ATOM     21  C   UNL     1      45.963   1.775   8.294  0.00  0.00    +0.000 A 
ATOM     22  C   UNL     1      46.590   2.729   7.509  0.00  0.00    +0.000 A 
ATOM     23  N   UNL     1      46.282   4.055   7.545  0.00  0.00    +0.000 NA
ATOM     24  C   UNL     1      45.312   4.414   8.428  0.00  0.00    +0.000 A 
BRANCH  22  25
ATOM     25  C   UNL     1      47.667   2.303   6.558  0.00  0.00    +0.000 C 
ATOM     26  N   UNL     1      47.797   3.067   5.433  0.00  0.00    +0.000 N 
ATOM     27  O   UNL     1      48.390   1.337   6.768  0.00  0.00    +0.000 OA
ATOM     28  H   UNL     1      47.177   3.856   5.289  0.00  0.00    +0.000 HD
ATOM     29  H   UNL     1      48.501   2.830   4.750  0.00  0.00    +0.000 HD
ENDBRANCH  22  25
ENDBRANCH  17  19
ENDBRANCH  16  17
ENDBRANCH   1  16
TORSDOF 6
ENDMDL
MODEL 5
REMARK VINA RESULT:    -7.348      1.639      2.442
REMARK INTER + INTRA:         -11.026
REMARK INTER:                 -10.043
REMARK INTRA:                  -0.982
REMARK UNBOUND:                -1.100
REMARK  Name = 
REMARK  8 active torsions:
REMARK  status: ('A' for Active; 'I' for Inactive)
REMARK    1  A    between atoms: C_1  and  C_2
REMARK    2  A    between atoms: N_4  and  C_5
REMARK    3  A    between atoms: C_9  and  C_10
REMARK    4  A    between atoms: C_10  and  C_11
REMARK    5  A    between atoms: C_11  and  N_12
REMARK    6  A    between atoms: N_12  and  C_13
REMARK    7  A    between atoms: C_16  and  C_17
REMARK    8  A    between atoms: C_24  and  C_25
REMARK                            x       y       z     vdW  Elec       q    Type
REMARK                         _______ _______ _______ _____ _____    ______ ____
ROOT
ATOM      1  C   UNL     1      44.025   4.184  12.561  0.00  0.00    +0.000 C 
ENDROOT
BRANCH   1   6
ATOM      2  C   UNL     1      46.865   6.756  12.822  0.00  0.00    +0.000 A 
ATOM      3  C   UNL     1      46.270   7.825  12.134  0.00  0.00    +0.000 A 
ATOM      4  C   UNL     1      44.973   7.742  11.617  0.00  0.00    +0.000 A 
ATOM      5  C   UNL     1      44.233   6.575  11.768  0.00  0.00    +0.000 A 
ATOM      6  C   UNL     1      44.781   5.489  12.451  0.00  0.00    +0.000 A 
ATOM      7  C   UNL     1      46.084   5.600  12.977  0.00  0.00    +0.000 A 
BRANCH   2  11
ATOM      8  C   UNL     1      49.326   9.533  12.114  0.00  0.00    +0.000 C 
ATOM      9  C   UNL     1      50.054   8.336  12.722  0.00  0.00    +0.000 C 
ATOM     10  C   UNL     1      49.338   6.994  12.466  0.00  0.00    +0.000 C 
ATOM     11  N   UNL     1      48.150   6.858  13.317  0.00  0.00    +0.000 N 
ATOM     12  C   UNL     1      48.414   7.085  14.747  0.00  0.00    +0.000 C 
ATOM     13  C   UNL     1      49.138   8.439  14.940  0.00  0.00    +0.000 C 
ATOM     14  C   UNL     1      49.570   8.618  16.389  0.00  0.00    +0.000 C 
ATOM     15  O   UNL     1      50.321   8.539  14.124  0.00  0.00    +0.000 OA
ENDBRANCH   2  11
ENDBRANCH   1   6
BRANCH   1  16
ATOM     16  C   UNL     1      43.387   3.813  11.217  0.00  0.00    +0.000 C 
BRANCH  16  17
ATOM     17  N   UNL     1      43.945   2.561  10.683  0.00  0.00    +0.000 N 
ATOM     18  H   UNL     1      43.234   1.838  10.573  0.00  0.00    +0.000 HD
BRANCH  17  19
ATOM     19  C   UNL     1      44.750   2.668   9.534  0.00  0.00    +0.000 A 
ATOM     20  C   UNL     1      45.134   3.896   8.984  0.00  0.00    +0.000 A 
ATOM     21  C   UNL     1      45.975   3.951   7.874  0.00  0.00    +0.000 A 
ATOM     22  C   UNL     1      46.450   2.760   7.348  0.00  0.00    +0.000 A 
ATOM     23  N   UNL     1      46.159   1.537   7.870  0.00  0.00    +0.000 NA
ATOM     24  C   UNL     1      45.339   1.536   8.955  0.00  0.00    +0.000 A 
BRANCH  22  25
ATOM     25  C   UNL     1      47.338   2.795   6.142  0.00  0.00    +0.000 C 
ATOM     26  N   UNL     1      48.666   2.572   6.379  0.00  0.00    +0.000 N 
ATOM     27  O   UNL     1      46.913   3.004   5.012  0.00  0.00    +0.000 OA
ATOM     28  H   UNL     1      48.984   2.408   7.328  0.00  0.00    +0.000 HD
ATOM     29  H   UNL     1      49.317   2.587   5.609  0.00  0.00    +0.000 HD
ENDBRANCH  22  25
ENDBRANCH  17  19
ENDBRANCH  16  17
ENDBRANCH   1  16
TORSDOF 6
ENDMDL
MODEL 6
REMARK VINA RESULT:    -7.227      1.580      2.754
REMARK INTER + INTRA:         -10.862
REMARK INTER:                 -10.223
REMARK INTRA:                  -0.638
REMARK UNBOUND:                -1.100
REMARK  Name = 
REMARK  8 active torsions:
REMARK  status: ('A' for Active; 'I' for Inactive)
REMARK    1  A    between atoms: C_1  and  C_2
REMARK    2  A    between atoms: N_4  and  C_5
REMARK    3  A    between atoms: C_9  and  C_10
REMARK    4  A    between atoms: C_10  and  C_11
REMARK    5  A    between atoms: C_11  and  N_12
REMARK    6  A    between atoms: N_12  and  C_13
REMARK    7  A    between atoms: C_16  and  C_17
REMARK    8  A    between atoms: C_24  and  C_25
REMARK                            x       y       z     vdW  Elec       q    Type
REMARK                         _______ _______ _______ _____ _____    ______ ____
ROOT
ATOM      1  C   UNL     1      45.509   5.137  11.553  0.00  0.00    +0.000 C 
ENDROOT
BRANCH   1   6
ATOM      2  C   UNL     1      47.652   8.281  12.077  0.00  0.00    +0.000 A 
ATOM      3  C   UNL     1      46.633   9.245  12.136  0.00  0.00    +0.000 A 
ATOM      4  C   UNL     1      45.281   8.901  12.037  0.00  0.00    +0.000 A 
ATOM      5  C   UNL     1      44.908   7.572  11.868  0.00  0.00    +0.000 A 
ATOM      6  C   UNL     1      45.886   6.579  11.813  0.00  0.00    +0.000 A 
ATOM      7  C   UNL     1      47.241   6.947  11.929  0.00  0.00    +0.000 A 
BRANCH   2  11
ATOM      8  C   UNL     1      49.023  11.330  13.836  0.00  0.00    +0.000 C 
ATOM      9  C   UNL     1      50.088  10.740  12.913  0.00  0.00    +0.000 C 
ATOM     10  C   UNL     1      49.496   9.948  11.729  0.00  0.00    +0.000 C 
ATOM     11  N   UNL     1      48.980   8.645  12.168  0.00  0.00    +0.000 N 
ATOM     12  C   UNL     1      49.951   7.852  12.940  0.00  0.00    +0.000 C 
ATOM     13  C   UNL     1      50.514   8.699  14.107  0.00  0.00    +0.000 C 
ATOM     14  C   UNL     1      51.640   7.958  14.816  0.00  0.00    +0.000 C 
ATOM     15  O   UNL     1      51.047   9.957  13.651  0.00  0.00    +0.000 OA
ENDBRANCH   2  11
ENDBRANCH   1   6
BRANCH   1  16
ATOM     16  C   UNL     1      44.006   5.012  11.278  0.00  0.00    +0.000 C 
BRANCH  16  17
ATOM     17  N   UNL     1      43.733   4.848   9.842  0.00  0.00    +0.000 N 
ATOM     18  H   UNL     1      43.609   5.743   9.369  0.00  0.00    +0.000 HD
BRANCH  17  19
ATOM     19  C   UNL     1      44.603   4.005   9.126  0.00  0.00    +0.000 A 
ATOM     20  C   UNL     1      45.601   4.487   8.272  0.00  0.00    +0.000 A 
ATOM     21  C   UNL     1      46.472   3.613   7.624  0.00  0.00    +0.000 A 
ATOM     22  C   UNL     1      46.348   2.256   7.873  0.00  0.00    +0.000 A 
ATOM     23  N   UNL     1      45.436   1.728   8.734  0.00  0.00    +0.000 NA
ATOM     24  C   UNL     1      44.613   2.622   9.346  0.00  0.00    +0.000 A 
BRANCH  22  25
ATOM     25  C   UNL     1      47.260   1.297   7.170  0.00  0.00    +0.000 C 
ATOM     26  N   UNL     1      48.359   1.854   6.577  0.00  0.00    +0.000 N 
ATOM     27  O   UNL     1      47.048   0.091   7.128  0.00  0.00    +0.000 OA
ATOM     28  H   UNL     1      48.501   2.856   6.626  0.00  0.00    +0.000 HD
ATOM     29  H   UNL     1      49.010   1.262   6.084  0.00  0.00    +0.000 HD
ENDBRANCH  22  25
ENDBRANCH  17  19
ENDBRANCH  16  17
ENDBRANCH   1  16
TORSDOF 6
ENDMDL
MODEL 7
REMARK VINA RESULT:    -6.799      1.600      2.268
REMARK INTER + INTRA:         -10.284
REMARK INTER:                  -9.841
REMARK INTRA:                  -0.443
REMARK UNBOUND:                -1.100
REMARK  Name = 
REMARK  8 active torsions:
REMARK  status: ('A' for Active; 'I' for Inactive)
REMARK    1  A    between atoms: C_1  and  C_2
REMARK    2  A    between atoms: N_4  and  C_5
REMARK    3  A    between atoms: C_9  and  C_10
REMARK    4  A    between atoms: C_10  and  C_11
REMARK    5  A    between atoms: C_11  and  N_12
REMARK    6  A    between atoms: N_12  and  C_13
REMARK    7  A    between atoms: C_16  and  C_17
REMARK    8  A    between atoms: C_24  and  C_25
REMARK                            x       y       z     vdW  Elec       q    Type
REMARK                         _______ _______ _______ _____ _____    ______ ____
ROOT
ATOM      1  C   UNL     1      45.448   4.610  12.047  0.00  0.00    +0.000 C 
ENDROOT
BRANCH   1   6
ATOM      2  C   UNL     1      46.264   8.354  12.306  0.00  0.00    +0.000 A 
ATOM      3  C   UNL     1      45.073   8.884  11.784  0.00  0.00    +0.000 A 
ATOM      4  C   UNL     1      44.013   8.067  11.380  0.00  0.00    +0.000 A 
ATOM      5  C   UNL     1      44.119   6.684  11.480  0.00  0.00    +0.000 A 
ATOM      6  C   UNL     1      45.281   6.112  12.000  0.00  0.00    +0.000 A 
ATOM      7  C   UNL     1      46.330   6.956  12.415  0.00  0.00    +0.000 A 
BRANCH   2  11
ATOM      8  C   UNL     1      49.936   7.471  12.346  0.00  0.00    +0.000 C 
ATOM      9  C   UNL     1      49.697   8.738  13.165  0.00  0.00    +0.000 C 
ATOM     10  C   UNL     1      48.269   8.832  13.738  0.00  0.00    +0.000 C 
ATOM     11  N   UNL     1      47.300   9.180  12.690  0.00  0.00    +0.000 N 
ATOM     12  C   UNL     1      47.670  10.375  11.913  0.00  0.00    +0.000 C 
ATOM     13  C   UNL     1      49.112  10.225  11.372  0.00  0.00    +0.000 C 
ATOM     14  C   UNL     1      49.575  11.516  10.709  0.00  0.00    +0.000 C 
ATOM     15  O   UNL     1      50.052   9.920  12.420  0.00  0.00    +0.000 OA
ENDBRANCH   2  11
ENDBRANCH   1   6
BRANCH   1  16
ATOM     16  C   UNL     1      44.088   3.910  11.946  0.00  0.00    +0.000 C 
BRANCH  16  17
ATOM     17  N   UNL     1      43.629   3.824  10.551  0.00  0.00    +0.000 N 
ATOM     18  H   UNL     1      43.139   4.667  10.254  0.00  0.00    +0.000 HD
BRANCH  17  19
ATOM     19  C   UNL     1      44.582   3.421   9.597  0.00  0.00    +0.000 A 
ATOM     20  C   UNL     1      44.940   2.084   9.393  0.00  0.00    +0.000 A 
ATOM     21  C   UNL     1      45.852   1.731   8.399  0.00  0.00    +0.000 A 
ATOM     22  C   UNL     1      46.371   2.733   7.596  0.00  0.00    +0.000 A 
ATOM     23  N   UNL     1      46.021   4.044   7.706  0.00  0.00    +0.000 NA
ATOM     24  C   UNL     1      45.125   4.337   8.686  0.00  0.00    +0.000 A 
BRANCH  22  25
ATOM     25  C   UNL     1      47.369   2.378   6.536  0.00  0.00    +0.000 C 
ATOM     26  N   UNL     1      47.388   3.200   5.444  0.00  0.00    +0.000 N 
ATOM     27  O   UNL     1      48.127   1.421   6.634  0.00  0.00    +0.000 OA
ATOM     28  H   UNL     1      46.742   3.980   5.393  0.00  0.00    +0.000 HD
ATOM     29  H   UNL     1      48.035   3.012   4.692  0.00  0.00    +0.000 HD
ENDBRANCH  22  25
ENDBRANCH  17  19
ENDBRANCH  16  17
ENDBRANCH   1  16
TORSDOF 6
ENDMDL
MODEL 8
REMARK VINA RESULT:    -6.757      4.195      7.879
REMARK INTER + INTRA:         -10.228
REMARK INTER:                  -9.362
REMARK INTRA:                  -0.866
REMARK UNBOUND:                -1.100
REMARK  Name = 
REMARK  8 active torsions:
REMARK  status: ('A' for Active; 'I' for Inactive)
REMARK    1  A    between atoms: C_1  and  C_2
REMARK    2  A    between atoms: N_4  and  C_5
REMARK    3  A    between atoms: C_9  and  C_10
REMARK    4  A    between atoms: C_10  and  C_11
REMARK    5  A    between atoms: C_11  and  N_12
REMARK    6  A    between atoms: N_12  and  C_13
REMARK    7  A    between atoms: C_16  and  C_17
REMARK    8  A    between atoms: C_24  and  C_25
REMARK                            x       y       z     vdW  Elec       q    Type
REMARK                         _______ _______ _______ _____ _____    ______ ____
ROOT
ATOM      1  C   UNL     1      49.092   7.325  14.358  0.00  0.00    +0.000 C 
ENDROOT
BRANCH   1   6
ATOM      2  C   UNL     1      45.933   6.143  12.522  0.00  0.00    +0.000 A 
ATOM      3  C   UNL     1      45.249   7.366  12.431  0.00  0.00    +0.000 A 
ATOM      4  C   UNL     1      45.795   8.557  12.922  0.00  0.00    +0.000 A 
ATOM      5  C   UNL     1      47.046   8.555  13.529  0.00  0.00    +0.000 A 
ATOM      6  C   UNL     1      47.765   7.364  13.634  0.00  0.00    +0.000 A 
ATOM      7  C   UNL     1      47.202   6.179  13.119  0.00  0.00    +0.000 A 
BRANCH   2  11
ATOM      8  C   UNL     1      42.270   5.547  11.814  0.00  0.00    +0.000 C 
ATOM      9  C   UNL     1      43.016   4.214  11.852  0.00  0.00    +0.000 C 
ATOM     10  C   UNL     1      44.291   4.255  12.719  0.00  0.00    +0.000 C 
ATOM     11  N   UNL     1      45.372   4.979  12.037  0.00  0.00    +0.000 N 
ATOM     12  C   UNL     1      45.640   4.498  10.672  0.00  0.00    +0.000 C 
ATOM     13  C   UNL     1      44.326   4.473   9.855  0.00  0.00    +0.000 C 
ATOM     14  C   UNL     1      44.548   3.822   8.496  0.00  0.00    +0.000 C 
ATOM     15  O   UNL     1      43.289   3.727  10.523  0.00  0.00    +0.000 OA
ENDBRANCH   2  11
ENDBRANCH   1   6
BRANCH   1  16
ATOM     16  C   UNL     1      48.945   7.854  15.789  0.00  0.00    +0.000 C 
BRANCH  16  17
ATOM     17  N   UNL     1      48.394   6.830  16.689  0.00  0.00    +0.000 N 
ATOM     18  H   UNL     1      47.432   6.588  16.453  0.00  0.00    +0.000 HD
BRANCH  17  19
ATOM     19  C   UNL     1      49.178   5.679  16.890  0.00  0.00    +0.000 A 
ATOM     20  C   UNL     1      50.489   5.725  17.377  0.00  0.00    +0.000 A 
ATOM     21  C   UNL     1      51.208   4.553  17.608  0.00  0.00    +0.000 A 
ATOM     22  C   UNL     1      50.581   3.340  17.376  0.00  0.00    +0.000 A 
ATOM     23  N   UNL     1      49.291   3.226  16.957  0.00  0.00    +0.000 NA
ATOM     24  C   UNL     1      48.630   4.397  16.751  0.00  0.00    +0.000 A 
BRANCH  22  25
ATOM     25  C   UNL     1      51.343   2.068  17.597  0.00  0.00    +0.000 C 
ATOM     26  N   UNL     1      52.394   2.154  18.468  0.00  0.00    +0.000 N 
ATOM     27  O   UNL     1      51.049   1.016  17.044  0.00  0.00    +0.000 OA
ATOM     28  H   UNL     1      52.612   3.042  18.903  0.00  0.00    +0.000 HD
ATOM     29  H   UNL     1      52.949   1.333  18.656  0.00  0.00    +0.000 HD
ENDBRANCH  22  25
ENDBRANCH  17  19
ENDBRANCH  16  17
ENDBRANCH   1  16
TORSDOF 6
ENDMDL
MODEL 9
REMARK VINA RESULT:    -6.721      3.341      7.611
REMARK INTER + INTRA:         -10.179
REMARK INTER:                  -9.275
REMARK INTRA:                  -0.904
REMARK UNBOUND:                -1.100
REMARK  Name = 
REMARK  8 active torsions:
REMARK  status: ('A' for Active; 'I' for Inactive)
REMARK    1  A    between atoms: C_1  and  C_2
REMARK    2  A    between atoms: N_4  and  C_5
REMARK    3  A    between atoms: C_9  and  C_10
REMARK    4  A    between atoms: C_10  and  C_11
REMARK    5  A    between atoms: C_11  and  N_12
REMARK    6  A    between atoms: N_12  and  C_13
REMARK    7  A    between atoms: C_16  and  C_17
REMARK    8  A    between atoms: C_24  and  C_25
REMARK                            x       y       z     vdW  Elec       q    Type
REMARK                         _______ _______ _______ _____ _____    ______ ____
ROOT
ATOM      1  C   UNL     1      48.997   8.868  12.450  0.00  0.00    +0.000 C 
ENDROOT
BRANCH   1   6
ATOM      2  C   UNL     1      45.824   6.804  11.801  0.00  0.00    +0.000 A 
ATOM      3  C   UNL     1      44.872   7.835  11.817  0.00  0.00    +0.000 A 
ATOM      4  C   UNL     1      45.234   9.174  12.004  0.00  0.00    +0.000 A 
ATOM      5  C   UNL     1      46.568   9.518  12.190  0.00  0.00    +0.000 A 
ATOM      6  C   UNL     1      47.549   8.527  12.174  0.00  0.00    +0.000 A 
ATOM      7  C   UNL     1      47.164   7.187  11.969  0.00  0.00    +0.000 A 
BRANCH   2  11
ATOM      8  C   UNL     1      42.286   5.480  11.781  0.00  0.00    +0.000 C 
ATOM      9  C   UNL     1      43.273   4.324  11.940  0.00  0.00    +0.000 C 
ATOM     10  C   UNL     1      44.610   4.750  12.579  0.00  0.00    +0.000 C 
ATOM     11  N   UNL     1      45.443   5.489  11.623  0.00  0.00    +0.000 N 
ATOM     12  C   UNL     1      45.634   4.794  10.339  0.00  0.00    +0.000 C 
ATOM     13  C   UNL     1      44.262   4.387   9.751  0.00  0.00    +0.000 C 
ATOM     14  C   UNL     1      44.442   3.520   8.511  0.00  0.00    +0.000 C 
ATOM     15  O   UNL     1      43.475   3.631  10.692  0.00  0.00    +0.000 OA
ENDBRANCH   2  11
ENDBRANCH   1   6
BRANCH   1  16
ATOM     16  C   UNL     1      49.631   7.827  13.379  0.00  0.00    +0.000 C 
BRANCH  16  17
ATOM     17  N   UNL     1      49.298   8.087  14.788  0.00  0.00    +0.000 N 
ATOM     18  H   UNL     1      48.637   8.856  14.892  0.00  0.00    +0.000 HD
BRANCH  17  19
ATOM     19  C   UNL     1      48.917   6.975  15.562  0.00  0.00    +0.000 A 
ATOM     20  C   UNL     1      49.020   6.946  16.957  0.00  0.00    +0.000 A 
ATOM     21  C   UNL     1      48.581   5.840  17.683  0.00  0.00    +0.000 A 
ATOM     22  C   UNL     1      48.011   4.783  16.993  0.00  0.00    +0.000 A 
ATOM     23  N   UNL     1      47.832   4.773  15.644  0.00  0.00    +0.000 NA
ATOM     24  C   UNL     1      48.270   5.877  14.981  0.00  0.00    +0.000 A 
BRANCH  22  25
ATOM     25  C   UNL     1      47.553   3.575  17.752  0.00  0.00    +0.000 C 
ATOM     26  N   UNL     1      48.309   3.240  18.841  0.00  0.00    +0.000 N 
ATOM     27  O   UNL     1      46.566   2.925  17.430  0.00  0.00    +0.000 OA
ATOM     28  H   UNL     1      49.124   3.797  19.075  0.00  0.00    +0.000 HD
ATOM     29  H   UNL     1      48.056   2.434  19.392  0.00  0.00    +0.000 HD
ENDBRANCH  22  25
ENDBRANCH  17  19
ENDBRANCH  16  17
ENDBRANCH   1  16
TORSDOF 6
ENDMDL
