MODEL 1
REMARK VINA RESULT:    -8.547      0.000      0.000
REMARK INTER + INTRA:         -12.526
REMARK INTER:                 -11.545
REMARK INTRA:                  -0.981
REMARK UNBOUND:                -0.981
REMARK  Name = 
REMARK  8 active torsions:
REMARK  status: ('A' for Active; 'I' for Inactive)
REMARK    1  A    between atoms: C_1  and  C_2
REMARK    2  A    between atoms: C_2  and  C_3
REMARK    3  A    between atoms: C_2  and  C_4
REMARK    4  A    between atoms: C_6  and  N_7
REMARK    5  A    between atoms: C_14  and  C_15
REMARK    6  A    between atoms: C_15  and  O_16
REMARK    7  A    between atoms: O_16  and  C_17
REMARK    8  A    between atoms: C_20  and  C_21
REMARK                            x       y       z     vdW  Elec       q    Type
REMARK                         _______ _______ _______ _____ _____    ______ ____
ROOT
ATOM      1  C   UNL     1      45.212   7.807  12.332  0.00  0.00    +0.000 A 
ATOM      2  C   UNL     1      46.255   7.294  13.107  0.00  0.00    +0.000 A 
ATOM      3  C   UNL     1      46.412   5.912  13.243  0.00  0.00    +0.000 A 
ATOM      4  C   UNL     1      45.492   5.097  12.580  0.00  0.00    +0.000 A 
ATOM      5  C   UNL     1      44.439   5.663  11.863  0.00  0.00    +0.000 A 
ATOM      6  N   UNL     1      44.306   7.005  11.725  0.00  0.00    +0.000 NA
ENDROOT
BRANCH   3   7
ATOM      7  N   UNL     1      47.405   5.354  14.018  0.00  0.00    +0.000 N 
ATOM      8  C   UNL     1      47.271   4.011  14.598  0.00  0.00    +0.000 C 
ATOM      9  C   UNL     1      47.353   4.058  16.137  0.00  0.00    +0.000 C 
ATOM     10  N   UNL     1      48.541   4.780  16.641  0.00  0.00    +0.000 NA
ATOM     11  C   UNL     1      48.540   6.146  16.072  0.00  0.00    +0.000 C 
ATOM     12  C   UNL     1      48.509   6.178  14.526  0.00  0.00    +0.000 C 
ATOM     13  H   UNL     1      49.371   4.298  16.293  0.00  0.00    +0.000 HD
ENDBRANCH   3   7
BRANCH   1  15
ATOM     14  C   UNL     1      46.428   9.961  11.943  0.00  0.00    +0.000 C 
ATOM     15  C   UNL     1      45.060   9.303  12.139  0.00  0.00    +0.000 C 
ATOM     16  C   UNL     1      44.127   9.644  10.973  0.00  0.00    +0.000 C 
ENDBRANCH   1  15
BRANCH   5  17
ATOM     17  C   UNL     1      43.380   4.779  11.232  0.00  0.00    +0.000 C 
BRANCH  17  18
ATOM     18  O   UNL     1      43.561   4.778   9.816  0.00  0.00    +0.000 OA
BRANCH  18  19
ATOM     19  C   UNL     1      44.434   3.887   9.256  0.00  0.00    +0.000 A 
ATOM     20  C   UNL     1      44.498   2.514   9.474  0.00  0.00    +0.000 A 
ATOM     21  C   UNL     1      45.455   1.741   8.787  0.00  0.00    +0.000 A 
ATOM     22  C   UNL     1      46.338   2.333   7.870  0.00  0.00    +0.000 A 
ATOM     23  C   UNL     1      46.268   3.710   7.653  0.00  0.00    +0.000 A 
ATOM     24  C   UNL     1      45.325   4.474   8.352  0.00  0.00    +0.000 A 
BRANCH  22  25
ATOM     25  C   UNL     1      47.335   1.459   7.185  0.00  0.00    +0.000 C 
ATOM     26  N   UNL     1      48.419   2.056   6.592  0.00  0.00    +0.000 N 
ATOM     27  O   UNL     1      47.190   0.252   7.133  0.00  0.00    +0.000 OA
ATOM     28  H   UNL     1      48.611   3.043   6.594  0.00  0.00    +0.000 HD
ATOM     29  H   UNL     1      49.078   1.433   6.134  0.00  0.00    +0.000 HD
ENDBRANCH  22  25
ENDBRANCH  18  19
ENDBRANCH  17  18
ENDBRANCH   5  17
TORSDOF 6
ENDMDL
MODEL 2
REMARK VINA RESULT:    -8.020      1.417      1.882
REMARK INTER + INTRA:         -11.814
REMARK INTER:                 -11.089
REMARK INTRA:                  -0.725
REMARK UNBOUND:                -0.981
REMARK  Name = 
REMARK  8 active torsions:
REMARK  status: ('A' for Active; 'I' for Inactive)
REMARK    1  A    between atoms: C_1  and  C_2
REMARK    2  A    between atoms: C_2  and  C_3
REMARK    3  A    between atoms: C_2  and  C_4
REMARK    4  A    between atoms: C_6  and  N_7
REMARK    5  A    between atoms: C_14  and  C_15
REMARK    6  A    between atoms: C_15  and  O_16
REMARK    7  A    between atoms: O_16  and  C_17
REMARK    8  A    between atoms: C_20  and  C_21
REMARK                            x       y       z     vdW  Elec       q    Type
REMARK                         _______ _______ _______ _____ _____    ______ ____
ROOT
ATOM      1  C   UNL     1      46.878   6.647  12.721  0.00  0.00    +0.000 A 
ATOM      2  C   UNL     1      47.540   6.257  13.888  0.00  0.00    +0.000 A 
ATOM      3  C   UNL     1      47.240   5.030  14.486  0.00  0.00    +0.000 A 
ATOM      4  C   UNL     1      46.266   4.241  13.869  0.00  0.00    +0.000 A 
ATOM      5  C   UNL     1      45.600   4.702  12.735  0.00  0.00    +0.000 A 
ATOM      6  N   UNL     1      45.912   5.887  12.154  0.00  0.00    +0.000 NA
ENDROOT
BRANCH   3   7
ATOM      7  N   UNL     1      47.840   4.610  15.652  0.00  0.00    +0.000 N 
ATOM      8  C   UNL     1      47.811   3.203  16.076  0.00  0.00    +0.000 C 
ATOM      9  C   UNL     1      47.121   3.048  17.445  0.00  0.00    +0.000 C 
ATOM     10  N   UNL     1      47.668   3.944  18.486  0.00  0.00    +0.000 NA
ATOM     11  C   UNL     1      47.574   5.341  18.004  0.00  0.00    +0.000 C 
ATOM     12  C   UNL     1      48.289   5.584  16.655  0.00  0.00    +0.000 C 
ATOM     13  H   UNL     1      48.658   3.721  18.601  0.00  0.00    +0.000 HD
ENDBRANCH   3   7
BRANCH   1  15
ATOM     14  C   UNL     1      46.683   9.141  12.832  0.00  0.00    +0.000 C 
ATOM     15  C   UNL     1      47.230   7.954  12.037  0.00  0.00    +0.000 C 
ATOM     16  C   UNL     1      48.738   8.103  11.815  0.00  0.00    +0.000 C 
ENDBRANCH   1  15
BRANCH   5  17
ATOM     17  C   UNL     1      44.471   3.892  12.127  0.00  0.00    +0.000 C 
BRANCH  17  18
ATOM     18  O   UNL     1      44.267   4.318  10.781  0.00  0.00    +0.000 OA
BRANCH  18  19
ATOM     19  C   UNL     1      44.985   3.727   9.779  0.00  0.00    +0.000 A 
ATOM     20  C   UNL     1      45.133   2.365   9.534  0.00  0.00    +0.000 A 
ATOM     21  C   UNL     1      45.896   1.932   8.431  0.00  0.00    +0.000 A 
ATOM     22  C   UNL     1      46.499   2.856   7.563  0.00  0.00    +0.000 A 
ATOM     23  C   UNL     1      46.346   4.220   7.812  0.00  0.00    +0.000 A 
ATOM     24  C   UNL     1      45.599   4.642   8.919  0.00  0.00    +0.000 A 
BRANCH  22  25
ATOM     25  C   UNL     1      47.305   2.329   6.421  0.00  0.00    +0.000 C 
ATOM     26  N   UNL     1      47.238   2.994   5.222  0.00  0.00    +0.000 N 
ATOM     27  O   UNL     1      47.989   1.330   6.535  0.00  0.00    +0.000 OA
ATOM     28  H   UNL     1      46.700   3.826   5.050  0.00  0.00    +0.000 HD
ATOM     29  H   UNL     1      47.797   2.611   4.467  0.00  0.00    +0.000 HD
ENDBRANCH  22  25
ENDBRANCH  18  19
ENDBRANCH  17  18
ENDBRANCH   5  17
TORSDOF 6
ENDMDL
MODEL 3
REMARK VINA RESULT:    -7.890      1.418      4.113
REMARK INTER + INTRA:         -11.638
REMARK INTER:                 -10.933
REMARK INTRA:                  -0.705
REMARK UNBOUND:                -0.981
REMARK  Name = 
REMARK  8 active torsions:
REMARK  status: ('A' for Active; 'I' for Inactive)
REMARK    1  A    between atoms: C_1  and  C_2
REMARK    2  A    between atoms: C_2  and  C_3
REMARK    3  A    between atoms: C_2  and  C_4
REMARK    4  A    between atoms: C_6  and  N_7
REMARK    5  A    between atoms: C_14  and  C_15
REMARK    6  A    between atoms: C_15  and  O_16
REMARK    7  A    between atoms: O_16  and  C_17
REMARK    8  A    between atoms: C_20  and  C_21
REMARK                            x       y       z     vdW  Elec       q    Type
REMARK                         _______ _______ _______ _____ _____    ______ ____
ROOT
ATOM      1  C   UNL     1      46.827   4.820  14.154  0.00  0.00    +0.000 A 
ATOM      2  C   UNL     1      46.936   6.111  13.631  0.00  0.00    +0.000 A 
ATOM      3  C   UNL     1      46.127   6.503  12.561  0.00  0.00    +0.000 A 
ATOM      4  C   UNL     1      45.231   5.557  12.057  0.00  0.00    +0.000 A 
ATOM      5  C   UNL     1      45.201   4.266  12.584  0.00  0.00    +0.000 A 
ATOM      6  N   UNL     1      45.979   3.903  13.633  0.00  0.00    +0.000 NA
ENDROOT
BRANCH   3   7
ATOM      7  N   UNL     1      46.214   7.753  11.988  0.00  0.00    +0.000 N 
ATOM      8  C   UNL     1      47.441   8.557  12.065  0.00  0.00    +0.000 C 
ATOM      9  C   UNL     1      47.183   9.900  12.776  0.00  0.00    +0.000 C 
ATOM     10  N   UNL     1      46.042  10.655  12.214  0.00  0.00    +0.000 NA
ATOM     11  C   UNL     1      44.838   9.796  12.260  0.00  0.00    +0.000 C 
ATOM     12  C   UNL     1      45.006   8.447  11.522  0.00  0.00    +0.000 C 
ATOM     13  H   UNL     1      46.249  10.849  11.233  0.00  0.00    +0.000 HD
ENDBRANCH   3   7
BRANCH   1  15
ATOM     14  C   UNL     1      48.379   5.608  15.954  0.00  0.00    +0.000 C 
ATOM     15  C   UNL     1      47.665   4.399  15.346  0.00  0.00    +0.000 C 
ATOM     16  C   UNL     1      46.835   3.672  16.408  0.00  0.00    +0.000 C 
ENDBRANCH   1  15
BRANCH   5  17
ATOM     17  C   UNL     1      44.304   3.209  11.968  0.00  0.00    +0.000 C 
BRANCH  17  18
ATOM     18  O   UNL     1      43.889   3.650  10.676  0.00  0.00    +0.000 OA
BRANCH  18  19
ATOM     19  C   UNL     1      44.711   3.435   9.603  0.00  0.00    +0.000 A 
ATOM     20  C   UNL     1      45.226   4.388   8.729  0.00  0.00    +0.000 A 
ATOM     21  C   UNL     1      46.084   3.986   7.686  0.00  0.00    +0.000 A 
ATOM     22  C   UNL     1      46.442   2.639   7.523  0.00  0.00    +0.000 A 
ATOM     23  C   UNL     1      45.924   1.688   8.404  0.00  0.00    +0.000 A 
ATOM     24  C   UNL     1      45.059   2.093   9.428  0.00  0.00    +0.000 A 
BRANCH  22  25
ATOM     25  C   UNL     1      47.345   2.280   6.390  0.00  0.00    +0.000 C 
ATOM     26  N   UNL     1      47.239   3.000   5.226  0.00  0.00    +0.000 N 
ATOM     27  O   UNL     1      48.143   1.366   6.480  0.00  0.00    +0.000 OA
ATOM     28  H   UNL     1      46.610   3.769   5.075  0.00  0.00    +0.000 HD
ATOM     29  H   UNL     1      47.867   2.731   4.475  0.00  0.00    +0.000 HD
ENDBRANCH  22  25
ENDBRANCH  18  19
ENDBRANCH  17  18
ENDBRANCH   5  17
TORSDOF 6
ENDMDL
MODEL 4
REMARK VINA RESULT:    -7.730      1.681      2.325
REMARK INTER + INTRA:         -11.423
REMARK INTER:                 -10.578
REMARK INTRA:                  -0.845
REMARK UNBOUND:                -0.981
REMARK  Name = 
REMARK  8 active torsions:
REMARK  status: ('A' for Active; 'I' for Inactive)
REMARK    1  A    between atoms: C_1  and  C_2
REMARK    2  A    between atoms: C_2  and  C_3
REMARK    3  A    between atoms: C_2  and  C_4
REMARK    4  A    between atoms: C_6  and  N_7
REMARK    5  A    between atoms: C_14  and  C_15
REMARK    6  A    between atoms: C_15  and  O_16
REMARK    7  A    between atoms: O_16  and  C_17
REMARK    8  A    between atoms: C_20  and  C_21
REMARK                            x       y       z     vdW  Elec       q    Type
REMARK                         _______ _______ _______ _____ _____    ______ ____
ROOT
ATOM      1  C   UNL     1      44.712   8.609  11.376  0.00  0.00    +0.000 A 
ATOM      2  C   UNL     1      45.852   8.741  12.172  0.00  0.00    +0.000 A 
ATOM      3  C   UNL     1      46.457   7.608  12.722  0.00  0.00    +0.000 A 
ATOM      4  C   UNL     1      45.871   6.371  12.440  0.00  0.00    +0.000 A 
ATOM      5  C   UNL     1      44.704   6.303  11.681  0.00  0.00    +0.000 A 
ATOM      6  N   UNL     1      44.136   7.408  11.139  0.00  0.00    +0.000 NA
ENDROOT
BRANCH   3   7
ATOM      7  N   UNL     1      47.564   7.683  13.539  0.00  0.00    +0.000 N 
ATOM      8  C   UNL     1      47.754   8.789  14.486  0.00  0.00    +0.000 C 
ATOM      9  C   UNL     1      49.052   9.565  14.184  0.00  0.00    +0.000 C 
ATOM     10  N   UNL     1      50.244   8.697  14.076  0.00  0.00    +0.000 NA
ATOM     11  C   UNL     1      49.990   7.672  13.038  0.00  0.00    +0.000 C 
ATOM     12  C   UNL     1      48.728   6.819  13.301  0.00  0.00    +0.000 C 
ATOM     13  H   UNL     1      50.362   8.215  14.968  0.00  0.00    +0.000 HD
ENDBRANCH   3   7
BRANCH   1  15
ATOM     14  C   UNL     1      42.557   9.660  10.652  0.00  0.00    +0.000 C 
ATOM     15  C   UNL     1      44.076   9.827  10.734  0.00  0.00    +0.000 C 
ATOM     16  C   UNL     1      44.436  11.122  11.469  0.00  0.00    +0.000 C 
ENDBRANCH   1  15
BRANCH   5  17
ATOM     17  C   UNL     1      44.010   4.971  11.463  0.00  0.00    +0.000 C 
BRANCH  17  18
ATOM     18  O   UNL     1      43.816   4.773  10.063  0.00  0.00    +0.000 OA
BRANCH  18  19
ATOM     19  C   UNL     1      44.619   3.889   9.398  0.00  0.00    +0.000 A 
ATOM     20  C   UNL     1      44.642   2.504   9.527  0.00  0.00    +0.000 A 
ATOM     21  C   UNL     1      45.525   1.743   8.736  0.00  0.00    +0.000 A 
ATOM     22  C   UNL     1      46.375   2.360   7.804  0.00  0.00    +0.000 A 
ATOM     23  C   UNL     1      46.346   3.749   7.677  0.00  0.00    +0.000 A 
ATOM     24  C   UNL     1      45.477   4.500   8.478  0.00  0.00    +0.000 A 
BRANCH  22  25
ATOM     25  C   UNL     1      47.295   1.496   7.007  0.00  0.00    +0.000 C 
ATOM     26  N   UNL     1      48.381   2.086   6.410  0.00  0.00    +0.000 N 
ATOM     27  O   UNL     1      47.086   0.305   6.870  0.00  0.00    +0.000 OA
ATOM     28  H   UNL     1      48.623   3.059   6.479  0.00  0.00    +0.000 HD
ATOM     29  H   UNL     1      48.986   1.471   5.876  0.00  0.00    +0.000 HD
ENDBRANCH  22  25
ENDBRANCH  18  19
ENDBRANCH  17  18
ENDBRANCH   5  17
TORSDOF 6
ENDMDL
MODEL 5
REMARK VINA RESULT:    -7.122      4.233      7.871
REMARK INTER + INTRA:         -10.602
REMARK INTER:                  -9.807
REMARK INTRA:                  -0.795
REMARK UNBOUND:                -0.981
REMARK  Name = 
REMARK  8 active torsions:
REMARK  status: ('A' for Active; 'I' for Inactive)
REMARK    1  A    between atoms: C_1  and  C_2
REMARK    2  A    between atoms: C_2  and  C_3
REMARK    3  A    between atoms: C_2  and  C_4
REMARK    4  A    between atoms: C_6  and  N_7
REMARK    5  A    between atoms: C_14  and  C_15
REMARK    6  A    between atoms: C_15  and  O_16
REMARK    7  A    between atoms: O_16  and  C_17
REMARK    8  A    between atoms: C_20  and  C_21
REMARK                            x       y       z     vdW  Elec       q    Type
REMARK                         _______ _______ _______ _____ _____    ______ ____
ROOT
ATOM      1  C   UNL     1      48.124   6.564  13.538  0.00  0.00    +0.000 A 
ATOM      2  C   UNL     1      47.177   6.190  12.581  0.00  0.00    +0.000 A 
ATOM      3  C   UNL     1      46.244   5.192  12.874  0.00  0.00    +0.000 A 
ATOM      4  C   UNL     1      46.313   4.604  14.139  0.00  0.00    +0.000 A 
ATOM      5  C   UNL     1      47.312   4.980  15.036  0.00  0.00    +0.000 A 
ATOM      6  N   UNL     1      48.201   5.962  14.747  0.00  0.00    +0.000 NA
ENDROOT
BRANCH   3   7
ATOM      7  N   UNL     1      45.308   4.764  11.958  0.00  0.00    +0.000 N 
ATOM      8  C   UNL     1      44.314   5.679  11.381  0.00  0.00    +0.000 C 
ATOM      9  C   UNL     1      42.879   5.216  11.701  0.00  0.00    +0.000 C 
ATOM     10  N   UNL     1      42.623   3.803  11.349  0.00  0.00    +0.000 NA
ATOM     11  C   UNL     1      43.617   2.956  12.046  0.00  0.00    +0.000 C 
ATOM     12  C   UNL     1      45.084   3.330  11.733  0.00  0.00    +0.000 C 
ATOM     13  H   UNL     1      42.774   3.699  10.344  0.00  0.00    +0.000 HD
ENDBRANCH   3   7
BRANCH   1  15
ATOM     14  C   UNL     1      50.246   7.672  14.275  0.00  0.00    +0.000 C 
ATOM     15  C   UNL     1      49.110   7.680  13.249  0.00  0.00    +0.000 C 
ATOM     16  C   UNL     1      49.670   7.603  11.825  0.00  0.00    +0.000 C 
ENDBRANCH   1  15
BRANCH   5  17
ATOM     17  C   UNL     1      47.452   4.269  16.369  0.00  0.00    +0.000 C 
BRANCH  17  18
ATOM     18  O   UNL     1      48.559   4.824  17.077  0.00  0.00    +0.000 OA
BRANCH  18  19
ATOM     19  C   UNL     1      49.671   4.054  17.284  0.00  0.00    +0.000 A 
ATOM     20  C   UNL     1      50.931   4.481  17.691  0.00  0.00    +0.000 A 
ATOM     21  C   UNL     1      51.961   3.537  17.880  0.00  0.00    +0.000 A 
ATOM     22  C   UNL     1      51.731   2.167  17.677  0.00  0.00    +0.000 A 
ATOM     23  C   UNL     1      50.465   1.744  17.271  0.00  0.00    +0.000 A 
ATOM     24  C   UNL     1      49.451   2.690  17.071  0.00  0.00    +0.000 A 
BRANCH  22  25
ATOM     25  C   UNL     1      52.869   1.222  17.883  0.00  0.00    +0.000 C 
ATOM     26  N   UNL     1      52.582  -0.055  18.294  0.00  0.00    +0.000 N 
ATOM     27  O   UNL     1      54.022   1.571  17.710  0.00  0.00    +0.000 OA
ATOM     28  H   UNL     1      51.659  -0.420  18.454  0.00  0.00    +0.000 HD
ATOM     29  H   UNL     1      53.378  -0.672  18.424  0.00  0.00    +0.000 HD
ENDBRANCH  22  25
ENDBRANCH  18  19
ENDBRANCH  17  18
ENDBRANCH   5  17
TORSDOF 6
ENDMDL
MODEL 6
REMARK VINA RESULT:    -6.839      3.163      7.411
REMARK INTER + INTRA:         -10.219
REMARK INTER:                  -9.369
REMARK INTRA:                  -0.850
REMARK UNBOUND:                -0.981
REMARK  Name = 
REMARK  8 active torsions:
REMARK  status: ('A' for Active; 'I' for Inactive)
REMARK    1  A    between atoms: C_1  and  C_2
REMARK    2  A    between atoms: C_2  and  C_3
REMARK    3  A    between atoms: C_2  and  C_4
REMARK    4  A    between atoms: C_6  and  N_7
REMARK    5  A    between atoms: C_14  and  C_15
REMARK    6  A    between atoms: C_15  and  O_16
REMARK    7  A    between atoms: O_16  and  C_17
REMARK    8  A    between atoms: C_20  and  C_21
REMARK                            x       y       z     vdW  Elec       q    Type
REMARK                         _______ _______ _______ _____ _____    ______ ____
ROOT
ATOM      1  C   UNL     1      45.255   8.422  11.988  0.00  0.00    +0.000 A 
ATOM      2  C   UNL     1      44.497   7.409  11.396  0.00  0.00    +0.000 A 
ATOM      3  C   UNL     1      44.872   6.072  11.555  0.00  0.00    +0.000 A 
ATOM      4  C   UNL     1      46.017   5.815  12.313  0.00  0.00    +0.000 A 
ATOM      5  C   UNL     1      46.765   6.869  12.836  0.00  0.00    +0.000 A 
ATOM      6  N   UNL     1      46.382   8.161  12.691  0.00  0.00    +0.000 NA
ENDROOT
BRANCH   3   7
ATOM      7  N   UNL     1      44.179   5.035  10.969  0.00  0.00    +0.000 N 
ATOM      8  C   UNL     1      43.085   4.344  11.665  0.00  0.00    +0.000 C 
ATOM      9  C   UNL     1      43.390   2.843  11.830  0.00  0.00    +0.000 C 
ATOM     10  N   UNL     1      43.771   2.176  10.566  0.00  0.00    +0.000 NA
ATOM     11  C   UNL     1      44.932   2.889   9.987  0.00  0.00    +0.000 C 
ATOM     12  C   UNL     1      44.682   4.396   9.747  0.00  0.00    +0.000 C 
ATOM     13  H   UNL     1      42.990   2.273   9.915  0.00  0.00    +0.000 HD
ENDBRANCH   3   7
BRANCH   1  15
ATOM     14  C   UNL     1      46.055  10.782  11.736  0.00  0.00    +0.000 C 
ATOM     15  C   UNL     1      44.831   9.873  11.863  0.00  0.00    +0.000 C 
ATOM     16  C   UNL     1      43.870  10.096  10.691  0.00  0.00    +0.000 C 
ENDBRANCH   1  15
BRANCH   5  17
ATOM     17  C   UNL     1      48.064   6.594  13.570  0.00  0.00    +0.000 C 
BRANCH  17  18
ATOM     18  O   UNL     1      48.007   5.288  14.141  0.00  0.00    +0.000 OA
BRANCH  18  19
ATOM     19  C   UNL     1      47.916   5.158  15.499  0.00  0.00    +0.000 A 
ATOM     20  C   UNL     1      47.171   4.222  16.212  0.00  0.00    +0.000 A 
ATOM     21  C   UNL     1      47.216   4.219  17.620  0.00  0.00    +0.000 A 
ATOM     22  C   UNL     1      48.016   5.138  18.319  0.00  0.00    +0.000 A 
ATOM     23  C   UNL     1      48.763   6.072  17.600  0.00  0.00    +0.000 A 
ATOM     24  C   UNL     1      48.700   6.079  16.201  0.00  0.00    +0.000 A 
BRANCH  22  25
ATOM     25  C   UNL     1      48.008   5.088  19.811  0.00  0.00    +0.000 C 
ATOM     26  N   UNL     1      48.607   4.017  20.425  0.00  0.00    +0.000 N 
ATOM     27  O   UNL     1      47.473   5.959  20.472  0.00  0.00    +0.000 OA
ATOM     28  H   UNL     1      49.072   3.262  19.951  0.00  0.00    +0.000 HD
ATOM     29  H   UNL     1      48.584   4.013  21.440  0.00  0.00    +0.000 HD
ENDBRANCH  22  25
ENDBRANCH  18  19
ENDBRANCH  17  18
ENDBRANCH   5  17
TORSDOF 6
ENDMDL
MODEL 7
REMARK VINA RESULT:    -6.293      3.773      5.915
REMARK INTER + INTRA:          -9.482
REMARK INTER:                  -8.605
REMARK INTRA:                  -0.877
REMARK UNBOUND:                -0.981
REMARK  Name = 
REMARK  8 active torsions:
REMARK  status: ('A' for Active; 'I' for Inactive)
REMARK    1  A    between atoms: C_1  and  C_2
REMARK    2  A    between atoms: C_2  and  C_3
REMARK    3  A    between atoms: C_2  and  C_4
REMARK    4  A    between atoms: C_6  and  N_7
REMARK    5  A    between atoms: C_14  and  C_15
REMARK    6  A    between atoms: C_15  and  O_16
REMARK    7  A    between atoms: O_16  and  C_17
REMARK    8  A    between atoms: C_20  and  C_21
REMARK                            x       y       z     vdW  Elec       q    Type
REMARK                         _______ _______ _______ _____ _____    ______ ____
ROOT
ATOM      1  C   UNL     1      48.580   8.257  17.673  0.00  0.00    +0.000 A 
ATOM      2  C   UNL     1      48.947   7.050  18.273  0.00  0.00    +0.000 A 
ATOM      3  C   UNL     1      49.269   5.945  17.481  0.00  0.00    +0.000 A 
ATOM      4  C   UNL     1      49.202   6.111  16.095  0.00  0.00    +0.000 A 
ATOM      5  C   UNL     1      48.780   7.323  15.552  0.00  0.00    +0.000 A 
ATOM      6  N   UNL     1      48.486   8.394  16.330  0.00  0.00    +0.000 NA
ENDROOT
BRANCH   3   7
ATOM      7  N   UNL     1      49.609   4.723  18.019  0.00  0.00    +0.000 N 
ATOM      8  C   UNL     1      50.971   4.434  18.488  0.00  0.00    +0.000 C 
ATOM      9  C   UNL     1      51.583   3.245  17.722  0.00  0.00    +0.000 C 
ATOM     10  N   UNL     1      50.719   2.045  17.709  0.00  0.00    +0.000 NA
ATOM     11  C   UNL     1      49.404   2.415  17.141  0.00  0.00    +0.000 C 
ATOM     12  C   UNL     1      48.704   3.573  17.891  0.00  0.00    +0.000 C 
ATOM     13  H   UNL     1      50.570   1.757  18.678  0.00  0.00    +0.000 HD
ENDBRANCH   3   7
BRANCH   1  15
ATOM     14  C   UNL     1      47.942  10.679  17.636  0.00  0.00    +0.000 C 
ATOM     15  C   UNL     1      48.275   9.477  18.522  0.00  0.00    +0.000 C 
ATOM     16  C   UNL     1      47.146   9.216  19.524  0.00  0.00    +0.000 C 
ENDBRANCH   1  15
BRANCH   5  17
ATOM     17  C   UNL     1      48.606   7.470  14.052  0.00  0.00    +0.000 C 
BRANCH  17  18
ATOM     18  O   UNL     1      48.376   6.182  13.484  0.00  0.00    +0.000 OA
BRANCH  18  19
ATOM     19  C   UNL     1      47.104   5.829  13.126  0.00  0.00    +0.000 A 
ATOM     20  C   UNL     1      46.270   4.913  13.761  0.00  0.00    +0.000 A 
ATOM     21  C   UNL     1      44.970   4.692  13.265  0.00  0.00    +0.000 A 
ATOM     22  C   UNL     1      44.495   5.393  12.146  0.00  0.00    +0.000 A 
ATOM     23  C   UNL     1      45.334   6.312  11.515  0.00  0.00    +0.000 A 
ATOM     24  C   UNL     1      46.630   6.515  12.004  0.00  0.00    +0.000 A 
BRANCH  22  25
ATOM     25  C   UNL     1      43.112   5.101  11.665  0.00  0.00    +0.000 C 
ATOM     26  N   UNL     1      42.175   6.102  11.743  0.00  0.00    +0.000 N 
ATOM     27  O   UNL     1      42.809   4.006  11.231  0.00  0.00    +0.000 OA
ATOM     28  H   UNL     1      42.347   7.032  12.085  0.00  0.00    +0.000 HD
ATOM     29  H   UNL     1      41.245   5.871  11.408  0.00  0.00    +0.000 HD
ENDBRANCH  22  25
ENDBRANCH  18  19
ENDBRANCH  17  18
ENDBRANCH   5  17
TORSDOF 6
ENDMDL
MODEL 8
REMARK VINA RESULT:    -6.123      3.510      7.791
REMARK INTER + INTRA:          -9.251
REMARK INTER:                  -8.471
REMARK INTRA:                  -0.780
REMARK UNBOUND:                -0.981
REMARK  Name = 
REMARK  8 active torsions:
REMARK  status: ('A' for Active; 'I' for Inactive)
REMARK    1  A    between atoms: C_1  and  C_2
REMARK    2  A    between atoms: C_2  and  C_3
REMARK    3  A    between atoms: C_2  and  C_4
REMARK    4  A    between atoms: C_6  and  N_7
REMARK    5  A    between atoms: C_14  and  C_15
REMARK    6  A    between atoms: C_15  and  O_16
REMARK    7  A    between atoms: O_16  and  C_17
REMARK    8  A    between atoms: C_20  and  C_21
REMARK                            x       y       z     vdW  Elec       q    Type
REMARK                         _______ _______ _______ _____ _____    ______ ____
ROOT
ATOM      1  C   UNL     1      45.055   5.132  11.533  0.00  0.00    +0.000 A 
ATOM      2  C   UNL     1      45.096   6.513  11.739  0.00  0.00    +0.000 A 
ATOM      3  C   UNL     1      45.895   7.045  12.755  0.00  0.00    +0.000 A 
ATOM      4  C   UNL     1      46.627   6.143  13.531  0.00  0.00    +0.000 A 
ATOM      5  C   UNL     1      46.508   4.771  13.314  0.00  0.00    +0.000 A 
ATOM      6  N   UNL     1      45.743   4.267  12.315  0.00  0.00    +0.000 NA
ENDROOT
BRANCH   3   7
ATOM      7  N   UNL     1      45.949   8.396  13.021  0.00  0.00    +0.000 N 
ATOM      8  C   UNL     1      44.957   9.333  12.478  0.00  0.00    +0.000 C 
ATOM      9  C   UNL     1      45.627  10.404  11.596  0.00  0.00    +0.000 C 
ATOM     10  N   UNL     1      46.756  11.092  12.259  0.00  0.00    +0.000 NA
ATOM     11  C   UNL     1      47.740  10.075  12.691  0.00  0.00    +0.000 C 
ATOM     12  C   UNL     1      47.149   8.991  13.623  0.00  0.00    +0.000 C 
ATOM     13  H   UNL     1      46.393  11.551  13.097  0.00  0.00    +0.000 HD
ENDBRANCH   3   7
BRANCH   1  15
ATOM     14  C   UNL     1      45.047   4.497   9.110  0.00  0.00    +0.000 C 
ATOM     15  C   UNL     1      44.230   4.546  10.403  0.00  0.00    +0.000 C 
ATOM     16  C   UNL     1      43.682   3.158  10.747  0.00  0.00    +0.000 C 
ENDBRANCH   1  15
BRANCH   5  17
ATOM     17  C   UNL     1      47.221   3.789  14.224  0.00  0.00    +0.000 C 
BRANCH  17  18
ATOM     18  O   UNL     1      46.661   3.879  15.533  0.00  0.00    +0.000 OA
BRANCH  18  19
ATOM     19  C   UNL     1      47.498   4.000  16.608  0.00  0.00    +0.000 A 
ATOM     20  C   UNL     1      47.669   3.096  17.653  0.00  0.00    +0.000 A 
ATOM     21  C   UNL     1      48.601   3.375  18.672  0.00  0.00    +0.000 A 
ATOM     22  C   UNL     1      49.374   4.547  18.643  0.00  0.00    +0.000 A 
ATOM     23  C   UNL     1      49.201   5.448  17.592  0.00  0.00    +0.000 A 
ATOM     24  C   UNL     1      48.261   5.172  16.591  0.00  0.00    +0.000 A 
BRANCH  22  25
ATOM     25  C   UNL     1      50.335   4.787  19.761  0.00  0.00    +0.000 C 
ATOM     26  N   UNL     1      51.545   4.140  19.724  0.00  0.00    +0.000 N 
ATOM     27  O   UNL     1      50.054   5.518  20.692  0.00  0.00    +0.000 OA
ATOM     28  H   UNL     1      51.851   3.524  18.990  0.00  0.00    +0.000 HD
ATOM     29  H   UNL     1      52.174   4.325  20.499  0.00  0.00    +0.000 HD
ENDBRANCH  22  25
ENDBRANCH  18  19
ENDBRANCH  17  18
ENDBRANCH   5  17
TORSDOF 6
ENDMDL
MODEL 9
REMARK VINA RESULT:    -5.967      2.854      5.311
REMARK INTER + INTRA:          -9.041
REMARK INTER:                  -8.255
REMARK INTRA:                  -0.786
REMARK UNBOUND:                -0.981
REMARK  Name = 
REMARK  8 active torsions:
REMARK  status: ('A' for Active; 'I' for Inactive)
REMARK    1  A    between atoms: C_1  and  C_2
REMARK    2  A    between atoms: C_2  and  C_3
REMARK    3  A    between atoms: C_2  and  C_4
REMARK    4  A    between atoms: C_6  and  N_7
REMARK    5  A    between atoms: C_14  and  C_15
REMARK    6  A    between atoms: C_15  and  O_16
REMARK    7  A    between atoms: O_16  and  C_17
REMARK    8  A    between atoms: C_20  and  C_21
REMARK                            x       y       z     vdW  Elec       q    Type
REMARK                         _______ _______ _______ _____ _____    ______ ____
ROOT
ATOM      1  C   UNL     1      50.941   7.351  15.561  0.00  0.00    +0.000 A 
ATOM      2  C   UNL     1      50.373   6.697  16.657  0.00  0.00    +0.000 A 
ATOM      3  C   UNL     1      49.073   6.192  16.574  0.00  0.00    +0.000 A 
ATOM      4  C   UNL     1      48.393   6.376  15.367  0.00  0.00    +0.000 A 
ATOM      5  C   UNL     1      48.990   7.082  14.324  0.00  0.00    +0.000 A 
ATOM      6  N   UNL     1      50.258   7.553  14.411  0.00  0.00    +0.000 NA
ENDROOT
BRANCH   3   7
ATOM      7  N   UNL     1      48.453   5.566  17.633  0.00  0.00    +0.000 N 
ATOM      8  C   UNL     1      48.786   5.890  19.026  0.00  0.00    +0.000 C 
ATOM      9  C   UNL     1      49.309   4.650  19.777  0.00  0.00    +0.000 C 
ATOM     10  N   UNL     1      48.419   3.474  19.663  0.00  0.00    +0.000 NA
ATOM     11  C   UNL     1      48.216   3.173  18.229  0.00  0.00    +0.000 C 
ATOM     12  C   UNL     1      47.644   4.359  17.418  0.00  0.00    +0.000 C 
ATOM     13  H   UNL     1      47.513   3.727  20.061  0.00  0.00    +0.000 HD
ENDBRANCH   3   7
BRANCH   1  15
ATOM     14  C   UNL     1      52.393   9.390  15.642  0.00  0.00    +0.000 C 
ATOM     15  C   UNL     1      52.369   7.860  15.624  0.00  0.00    +0.000 C 
ATOM     16  C   UNL     1      53.132   7.295  16.826  0.00  0.00    +0.000 C 
ENDBRANCH   1  15
BRANCH   5  17
ATOM     17  C   UNL     1      48.213   7.372  13.054  0.00  0.00    +0.000 C 
BRANCH  17  18
ATOM     18  O   UNL     1      46.832   7.090  13.280  0.00  0.00    +0.000 OA
BRANCH  18  19
ATOM     19  C   UNL     1      46.214   6.137  12.519  0.00  0.00    +0.000 A 
ATOM     20  C   UNL     1      45.542   5.002  12.966  0.00  0.00    +0.000 A 
ATOM     21  C   UNL     1      44.938   4.136  12.033  0.00  0.00    +0.000 A 
ATOM     22  C   UNL     1      44.989   4.407  10.657  0.00  0.00    +0.000 A 
ATOM     23  C   UNL     1      45.661   5.547  10.214  0.00  0.00    +0.000 A 
ATOM     24  C   UNL     1      46.273   6.395  11.146  0.00  0.00    +0.000 A 
BRANCH  22  25
ATOM     25  C   UNL     1      44.339   3.441   9.722  0.00  0.00    +0.000 C 
ATOM     26  N   UNL     1      44.291   3.764   8.389  0.00  0.00    +0.000 N 
ATOM     27  O   UNL     1      43.847   2.403  10.124  0.00  0.00    +0.000 OA
ATOM     28  H   UNL     1      44.676   4.597   7.980  0.00  0.00    +0.000 HD
ATOM     29  H   UNL     1      43.842   3.086   7.781  0.00  0.00    +0.000 HD
ENDBRANCH  22  25
ENDBRANCH  18  19
ENDBRANCH  17  18
ENDBRANCH   5  17
TORSDOF 6
ENDMDL
