MODEL 1
REMARK VINA RESULT:    -8.081      0.000      0.000
REMARK INTER + INTRA:         -12.405
REMARK INTER:                 -11.388
REMARK INTRA:                  -1.017
REMARK UNBOUND:                -1.017
REMARK  Name = 
REMARK  8 active torsions:
REMARK  status: ('A' for Active; 'I' for Inactive)
REMARK    1  A    between atoms: C_1  and  C_2
REMARK    2  A    between atoms: C_2  and  C_3
REMARK    3  A    between atoms: C_2  and  C_25
REMARK    4  A    between atoms: C_3  and  N_4
REMARK    5  A    between atoms: N_7  and  C_8
REMARK    6  A    between atoms: C_8  and  C_9
REMARK    7  A    between atoms: C_9  and  N_10
REMARK    8  A    between atoms: C_11  and  C_13
REMARK                            x       y       z     vdW  Elec       q    Type
REMARK                         _______ _______ _______ _____ _____    ______ ____
ROOT
ATOM      1  C   UNL     1      45.652   7.785  12.882  0.00  0.00    +0.000 C 
ENDROOT
BRANCH   1   5
ATOM      2  N   UNL     1      44.543   5.086  10.360  0.00  0.00    +0.000 NA
ATOM      3  C   UNL     1      45.823   5.820  10.519  0.00  0.00    +0.000 C 
ATOM      4  C   UNL     1      46.421   5.698  11.943  0.00  0.00    +0.000 C 
ATOM      5  N   UNL     1      45.577   6.316  12.988  0.00  0.00    +0.000 NA
ATOM      6  C   UNL     1      44.210   5.759  12.865  0.00  0.00    +0.000 C 
ATOM      7  C   UNL     1      43.634   5.560  11.429  0.00  0.00    +0.000 C 
BRANCH   2   8
ATOM      8  C   UNL     1      44.834   3.628  10.310  0.00  0.00    +0.000 C 
BRANCH   8  10
ATOM      9  C   UNL     1      43.991   1.400   9.300  0.00  0.00    +0.000 C 
ATOM     10  C   UNL     1      44.513   2.813   9.031  0.00  0.00    +0.000 C 
BRANCH  10  11
ATOM     11  C   UNL     1      45.779   2.624   8.187  0.00  0.00    +0.000 A 
ATOM     12  C   UNL     1      46.164   3.612   7.280  0.00  0.00    +0.000 A 
ATOM     13  C   UNL     1      47.142   3.313   6.334  0.00  0.00    +0.000 A 
ATOM     14  C   UNL     1      47.720   2.050   6.323  0.00  0.00    +0.000 A 
ATOM     15  C   UNL     1      47.317   1.142   7.287  0.00  0.00    +0.000 A 
ATOM     16  N   UNL     1      46.366   1.400   8.211  0.00  0.00    +0.000 NA
ENDBRANCH  10  11
ENDBRANCH   8  10
ENDBRANCH   2   8
ENDBRANCH   1   5
BRANCH   1  17
ATOM     17  C   UNL     1      46.997   8.409  13.285  0.00  0.00    +0.000 C 
BRANCH  17  18
ATOM     18  N   UNL     1      47.488   7.843  14.531  0.00  0.00    +0.000 N 
ATOM     19  C   UNL     1      48.534   6.955  14.567  0.00  0.00    +0.000 C 
ATOM     20  O   UNL     1      49.154   6.630  13.559  0.00  0.00    +0.000 OA
ATOM     21  H   UNL     1      46.874   7.911  15.337  0.00  0.00    +0.000 HD
BRANCH  19  22
ATOM     22  C   UNL     1      48.918   6.460  15.895  0.00  0.00    +0.000 A 
ATOM     23  C   UNL     1      49.828   7.175  16.660  0.00  0.00    +0.000 A 
ATOM     24  S   UNL     1      50.128   6.482  18.189  0.00  0.00    +0.000 S 
ATOM     25  C   UNL     1      49.095   5.173  17.860  0.00  0.00    +0.000 A 
ATOM     26  N   UNL     1      48.919   4.173  18.764  0.00  0.00    +0.000 NA
ATOM     27  C   UNL     1      48.140   3.225  18.365  0.00  0.00    +0.000 A 
ATOM     28  N   UNL     1      47.510   3.184  17.149  0.00  0.00    +0.000 N 
ATOM     29  C   UNL     1      47.619   4.202  16.222  0.00  0.00    +0.000 A 
ATOM     30  O   UNL     1      46.979   4.179  15.173  0.00  0.00    +0.000 OA
ATOM     31  C   UNL     1      48.508   5.277  16.608  0.00  0.00    +0.000 A 
ATOM     32  H   UNL     1      46.902   2.423  16.905  0.00  0.00    +0.000 HD
ENDBRANCH  19  22
ENDBRANCH  17  18
ENDBRANCH   1  17
TORSDOF 7
ENDMDL
MODEL 2
REMARK VINA RESULT:    -7.739      2.705      3.430
REMARK INTER + INTRA:         -11.923
REMARK INTER:                 -11.312
REMARK INTRA:                  -0.611
REMARK UNBOUND:                -1.017
REMARK  Name = 
REMARK  8 active torsions:
REMARK  status: ('A' for Active; 'I' for Inactive)
REMARK    1  A    between atoms: C_1  and  C_2
REMARK    2  A    between atoms: C_2  and  C_3
REMARK    3  A    between atoms: C_2  and  C_25
REMARK    4  A    between atoms: C_3  and  N_4
REMARK    5  A    between atoms: N_7  and  C_8
REMARK    6  A    between atoms: C_8  and  C_9
REMARK    7  A    between atoms: C_9  and  N_10
REMARK    8  A    between atoms: C_11  and  C_13
REMARK                            x       y       z     vdW  Elec       q    Type
REMARK                         _______ _______ _______ _____ _____    ______ ____
ROOT
ATOM      1  C   UNL     1      47.838   5.823  15.298  0.00  0.00    +0.000 C 
ENDROOT
BRANCH   1   5
ATOM      2  N   UNL     1      45.217   5.708  12.472  0.00  0.00    +0.000 NA
ATOM      3  C   UNL     1      46.150   6.776  12.908  0.00  0.00    +0.000 C 
ATOM      4  C   UNL     1      47.629   6.314  12.944  0.00  0.00    +0.000 C 
ATOM      5  N   UNL     1      47.886   5.252  13.940  0.00  0.00    +0.000 NA
ATOM      6  C   UNL     1      46.923   4.152  13.700  0.00  0.00    +0.000 C 
ATOM      7  C   UNL     1      45.453   4.539  13.351  0.00  0.00    +0.000 C 
BRANCH   2   8
ATOM      8  C   UNL     1      45.379   5.503  11.007  0.00  0.00    +0.000 C 
BRANCH   8  10
ATOM      9  C   UNL     1      43.435   3.796  11.045  0.00  0.00    +0.000 C 
ATOM     10  C   UNL     1      44.296   4.740  10.203  0.00  0.00    +0.000 C 
BRANCH  10  11
ATOM     11  C   UNL     1      44.949   3.851   9.138  0.00  0.00    +0.000 A 
ATOM     12  C   UNL     1      44.987   2.468   9.314  0.00  0.00    +0.000 A 
ATOM     13  C   UNL     1      45.814   1.707   8.491  0.00  0.00    +0.000 A 
ATOM     14  C   UNL     1      46.569   2.336   7.510  0.00  0.00    +0.000 A 
ATOM     15  C   UNL     1      46.439   3.707   7.368  0.00  0.00    +0.000 A 
ATOM     16  N   UNL     1      45.652   4.471   8.156  0.00  0.00    +0.000 NA
ENDBRANCH  10  11
ENDBRANCH   8  10
ENDBRANCH   2   8
ENDBRANCH   1   5
BRANCH   1  17
ATOM     17  C   UNL     1      49.066   6.648  15.713  0.00  0.00    +0.000 C 
BRANCH  17  18
ATOM     18  N   UNL     1      50.097   5.803  16.294  0.00  0.00    +0.000 N 
ATOM     19  C   UNL     1      50.120   5.495  17.632  0.00  0.00    +0.000 C 
ATOM     20  O   UNL     1      49.242   5.867  18.406  0.00  0.00    +0.000 OA
ATOM     21  H   UNL     1      50.940   5.668  15.745  0.00  0.00    +0.000 HD
BRANCH  19  22
ATOM     22  C   UNL     1      51.223   4.637  18.080  0.00  0.00    +0.000 A 
ATOM     23  C   UNL     1      52.256   5.179  18.833  0.00  0.00    +0.000 A 
ATOM     24  S   UNL     1      53.430   4.036  19.305  0.00  0.00    +0.000 S 
ATOM     25  C   UNL     1      52.629   2.788  18.473  0.00  0.00    +0.000 A 
ATOM     26  N   UNL     1      53.133   1.526  18.445  0.00  0.00    +0.000 NA
ATOM     27  C   UNL     1      52.444   0.692  17.743  0.00  0.00    +0.000 A 
ATOM     28  N   UNL     1      51.289   0.995  17.071  0.00  0.00    +0.000 N 
ATOM     29  C   UNL     1      50.714   2.249  17.114  0.00  0.00    +0.000 A 
ATOM     30  O   UNL     1      49.635   2.475  16.569  0.00  0.00    +0.000 OA
ATOM     31  C   UNL     1      51.465   3.234  17.864  0.00  0.00    +0.000 A 
ATOM     32  H   UNL     1      50.790   0.293  16.554  0.00  0.00    +0.000 HD
ENDBRANCH  19  22
ENDBRANCH  17  18
ENDBRANCH   1  17
TORSDOF 7
ENDMDL
MODEL 3
REMARK VINA RESULT:    -7.441      2.007      2.679
REMARK INTER + INTRA:         -11.502
REMARK INTER:                 -10.762
REMARK INTRA:                  -0.740
REMARK UNBOUND:                -1.017
REMARK  Name = 
REMARK  8 active torsions:
REMARK  status: ('A' for Active; 'I' for Inactive)
REMARK    1  A    between atoms: C_1  and  C_2
REMARK    2  A    between atoms: C_2  and  C_3
REMARK    3  A    between atoms: C_2  and  C_25
REMARK    4  A    between atoms: C_3  and  N_4
REMARK    5  A    between atoms: N_7  and  C_8
REMARK    6  A    between atoms: C_8  and  C_9
REMARK    7  A    between atoms: C_9  and  N_10
REMARK    8  A    between atoms: C_11  and  C_13
REMARK                            x       y       z     vdW  Elec       q    Type
REMARK                         _______ _______ _______ _____ _____    ______ ____
ROOT
ATOM      1  C   UNL     1      46.227   5.556  13.747  0.00  0.00    +0.000 C 
ENDROOT
BRANCH   1   5
ATOM      2  N   UNL     1      45.662   4.483  10.085  0.00  0.00    +0.000 NA
ATOM      3  C   UNL     1      45.733   3.698  11.343  0.00  0.00    +0.000 C 
ATOM      4  C   UNL     1      44.738   4.192  12.424  0.00  0.00    +0.000 C 
ATOM      5  N   UNL     1      45.022   5.564  12.897  0.00  0.00    +0.000 NA
ATOM      6  C   UNL     1      45.107   6.452  11.715  0.00  0.00    +0.000 C 
ATOM      7  C   UNL     1      45.842   5.907  10.451  0.00  0.00    +0.000 C 
BRANCH   2   8
ATOM      8  C   UNL     1      44.414   4.116   9.365  0.00  0.00    +0.000 C 
BRANCH   8  10
ATOM      9  C   UNL     1      44.154   1.544   9.260  0.00  0.00    +0.000 C 
ATOM     10  C   UNL     1      44.370   2.843   8.481  0.00  0.00    +0.000 C 
BRANCH  10  11
ATOM     11  C   UNL     1      45.703   2.658   7.746  0.00  0.00    +0.000 A 
ATOM     12  C   UNL     1      46.017   3.476   6.660  0.00  0.00    +0.000 A 
ATOM     13  C   UNL     1      47.085   3.123   5.838  0.00  0.00    +0.000 A 
ATOM     14  C   UNL     1      47.820   1.979   6.125  0.00  0.00    +0.000 A 
ATOM     15  C   UNL     1      47.474   1.249   7.248  0.00  0.00    +0.000 A 
ATOM     16  N   UNL     1      46.439   1.561   8.058  0.00  0.00    +0.000 NA
ENDBRANCH  10  11
ENDBRANCH   8  10
ENDBRANCH   2   8
ENDBRANCH   1   5
BRANCH   1  17
ATOM     17  C   UNL     1      46.243   4.502  14.865  0.00  0.00    +0.000 C 
BRANCH  17  18
ATOM     18  N   UNL     1      47.413   4.654  15.715  0.00  0.00    +0.000 N 
ATOM     19  C   UNL     1      47.553   3.966  16.894  0.00  0.00    +0.000 C 
ATOM     20  O   UNL     1      46.728   3.140  17.274  0.00  0.00    +0.000 OA
ATOM     21  H   UNL     1      47.993   5.471  15.552  0.00  0.00    +0.000 HD
BRANCH  19  22
ATOM     22  C   UNL     1      48.783   4.223  17.653  0.00  0.00    +0.000 A 
ATOM     23  C   UNL     1      48.870   5.345  18.465  0.00  0.00    +0.000 A 
ATOM     24  S   UNL     1      50.349   5.467  19.305  0.00  0.00    +0.000 S 
ATOM     25  C   UNL     1      50.946   4.056  18.569  0.00  0.00    +0.000 A 
ATOM     26  N   UNL     1      52.201   3.604  18.833  0.00  0.00    +0.000 NA
ATOM     27  C   UNL     1      52.537   2.547  18.175  0.00  0.00    +0.000 A 
ATOM     28  N   UNL     1      51.733   1.888  17.281  0.00  0.00    +0.000 N 
ATOM     29  C   UNL     1      50.434   2.281  17.023  0.00  0.00    +0.000 A 
ATOM     30  O   UNL     1      49.707   1.627  16.279  0.00  0.00    +0.000 OA
ATOM     31  C   UNL     1      50.018   3.484  17.713  0.00  0.00    +0.000 A 
ATOM     32  H   UNL     1      52.049   1.058  16.812  0.00  0.00    +0.000 HD
ENDBRANCH  19  22
ENDBRANCH  17  18
ENDBRANCH   1  17
TORSDOF 7
ENDMDL
MODEL 4
REMARK VINA RESULT:    -7.301      1.917      2.752
REMARK INTER + INTRA:         -11.305
REMARK INTER:                 -10.068
REMARK INTRA:                  -1.237
REMARK UNBOUND:                -1.017
REMARK  Name = 
REMARK  8 active torsions:
REMARK  status: ('A' for Active; 'I' for Inactive)
REMARK    1  A    between atoms: C_1  and  C_2
REMARK    2  A    between atoms: C_2  and  C_3
REMARK    3  A    between atoms: C_2  and  C_25
REMARK    4  A    between atoms: C_3  and  N_4
REMARK    5  A    between atoms: N_7  and  C_8
REMARK    6  A    between atoms: C_8  and  C_9
REMARK    7  A    between atoms: C_9  and  N_10
REMARK    8  A    between atoms: C_11  and  C_13
REMARK                            x       y       z     vdW  Elec       q    Type
REMARK                         _______ _______ _______ _____ _____    ______ ____
ROOT
ATOM      1  C   UNL     1      46.631   8.772  13.614  0.00  0.00    +0.000 C 
ENDROOT
BRANCH   1   5
ATOM      2  N   UNL     1      45.138   5.675  11.865  0.00  0.00    +0.000 NA
ATOM      3  C   UNL     1      44.537   6.977  12.248  0.00  0.00    +0.000 C 
ATOM      4  C   UNL     1      45.309   8.194  11.679  0.00  0.00    +0.000 C 
ATOM      5  N   UNL     1      46.682   8.317  12.212  0.00  0.00    +0.000 NA
ATOM      6  C   UNL     1      47.374   7.023  12.009  0.00  0.00    +0.000 C 
ATOM      7  C   UNL     1      46.562   5.718  12.272  0.00  0.00    +0.000 C 
BRANCH   2   8
ATOM      8  C   UNL     1      44.846   5.420  10.429  0.00  0.00    +0.000 C 
BRANCH   8  10
ATOM      9  C   UNL     1      44.127   3.028  11.104  0.00  0.00    +0.000 C 
ATOM     10  C   UNL     1      44.216   4.074   9.991  0.00  0.00    +0.000 C 
BRANCH  10  11
ATOM     11  C   UNL     1      45.062   3.422   8.890  0.00  0.00    +0.000 A 
ATOM     12  C   UNL     1      45.288   2.046   8.909  0.00  0.00    +0.000 A 
ATOM     13  C   UNL     1      46.272   1.513   8.078  0.00  0.00    +0.000 A 
ATOM     14  C   UNL     1      46.992   2.357   7.243  0.00  0.00    +0.000 A 
ATOM     15  C   UNL     1      46.674   3.704   7.248  0.00  0.00    +0.000 A 
ATOM     16  N   UNL     1      45.732   4.250   8.048  0.00  0.00    +0.000 NA
ENDBRANCH  10  11
ENDBRANCH   8  10
ENDBRANCH   2   8
ENDBRANCH   1   5
BRANCH   1  17
ATOM     17  C   UNL     1      47.977   8.791  14.354  0.00  0.00    +0.000 C 
BRANCH  17  18
ATOM     18  N   UNL     1      47.959   7.902  15.504  0.00  0.00    +0.000 N 
ATOM     19  C   UNL     1      48.732   6.769  15.563  0.00  0.00    +0.000 C 
ATOM     20  O   UNL     1      49.526   6.469  14.676  0.00  0.00    +0.000 OA
ATOM     21  H   UNL     1      47.172   7.992  16.139  0.00  0.00    +0.000 HD
BRANCH  19  22
ATOM     22  C   UNL     1      48.606   5.962  16.783  0.00  0.00    +0.000 A 
ATOM     23  C   UNL     1      48.350   4.601  16.685  0.00  0.00    +0.000 A 
ATOM     24  S   UNL     1      48.277   3.810  18.194  0.00  0.00    +0.000 S 
ATOM     25  C   UNL     1      48.529   5.268  19.032  0.00  0.00    +0.000 A 
ATOM     26  N   UNL     1      48.548   5.301  20.391  0.00  0.00    +0.000 NA
ATOM     27  C   UNL     1      48.708   6.479  20.893  0.00  0.00    +0.000 A 
ATOM     28  N   UNL     1      48.860   7.630  20.165  0.00  0.00    +0.000 N 
ATOM     29  C   UNL     1      48.900   7.635  18.785  0.00  0.00    +0.000 A 
ATOM     30  O   UNL     1      49.119   8.669  18.157  0.00  0.00    +0.000 OA
ATOM     31  C   UNL     1      48.693   6.341  18.170  0.00  0.00    +0.000 A 
ATOM     32  H   UNL     1      48.998   8.516  20.618  0.00  0.00    +0.000 HD
ENDBRANCH  19  22
ENDBRANCH  17  18
ENDBRANCH   1  17
TORSDOF 7
ENDMDL
MODEL 5
REMARK VINA RESULT:    -6.426      1.836      2.640
REMARK INTER + INTRA:         -10.072
REMARK INTER:                  -8.958
REMARK INTRA:                  -1.114
REMARK UNBOUND:                -1.017
REMARK  Name = 
REMARK  8 active torsions:
REMARK  status: ('A' for Active; 'I' for Inactive)
REMARK    1  A    between atoms: C_1  and  C_2
REMARK    2  A    between atoms: C_2  and  C_3
REMARK    3  A    between atoms: C_2  and  C_25
REMARK    4  A    between atoms: C_3  and  N_4
REMARK    5  A    between atoms: N_7  and  C_8
REMARK    6  A    between atoms: C_8  and  C_9
REMARK    7  A    between atoms: C_9  and  N_10
REMARK    8  A    between atoms: C_11  and  C_13
REMARK                            x       y       z     vdW  Elec       q    Type
REMARK                         _______ _______ _______ _____ _____    ______ ____
ROOT
ATOM      1  C   UNL     1      48.139   9.036  13.411  0.00  0.00    +0.000 C 
ENDROOT
BRANCH   1   5
ATOM      2  N   UNL     1      46.143   6.686  11.093  0.00  0.00    +0.000 NA
ATOM      3  C   UNL     1      47.534   6.617  11.606  0.00  0.00    +0.000 C 
ATOM      4  C   UNL     1      47.615   6.694  13.152  0.00  0.00    +0.000 C 
ATOM      5  N   UNL     1      47.146   7.984  13.700  0.00  0.00    +0.000 NA
ATOM      6  C   UNL     1      45.793   8.250  13.160  0.00  0.00    +0.000 C 
ATOM      7  C   UNL     1      45.531   7.910  11.660  0.00  0.00    +0.000 C 
BRANCH   2   8
ATOM      8  C   UNL     1      45.467   5.392  11.375  0.00  0.00    +0.000 C 
BRANCH   8  10
ATOM      9  C   UNL     1      43.273   4.038  11.152  0.00  0.00    +0.000 C 
ATOM     10  C   UNL     1      44.332   4.889  10.447  0.00  0.00    +0.000 C 
BRANCH  10  11
ATOM     11  C   UNL     1      44.904   3.991   9.343  0.00  0.00    +0.000 A 
ATOM     12  C   UNL     1      44.860   2.604   9.483  0.00  0.00    +0.000 A 
ATOM     13  C   UNL     1      45.620   1.816   8.620  0.00  0.00    +0.000 A 
ATOM     14  C   UNL     1      46.389   2.424   7.637  0.00  0.00    +0.000 A 
ATOM     15  C   UNL     1      46.340   3.804   7.533  0.00  0.00    +0.000 A 
ATOM     16  N   UNL     1      45.620   4.593   8.360  0.00  0.00    +0.000 NA
ENDBRANCH  10  11
ENDBRANCH   8  10
ENDBRANCH   2   8
ENDBRANCH   1   5
BRANCH   1  17
ATOM     17  C   UNL     1      48.722   9.751  14.640  0.00  0.00    +0.000 C 
BRANCH  17  18
ATOM     18  N   UNL     1      48.555   8.952  15.843  0.00  0.00    +0.000 N 
ATOM     19  C   UNL     1      49.498   8.927  16.840  0.00  0.00    +0.000 C 
ATOM     20  O   UNL     1      50.511   9.620  16.802  0.00  0.00    +0.000 OA
ATOM     21  H   UNL     1      47.858   8.214  15.808  0.00  0.00    +0.000 HD
BRANCH  19  22
ATOM     22  C   UNL     1      49.199   8.070  17.993  0.00  0.00    +0.000 A 
ATOM     23  C   UNL     1      48.977   8.643  19.238  0.00  0.00    +0.000 A 
ATOM     24  S   UNL     1      48.602   7.509  20.455  0.00  0.00    +0.000 S 
ATOM     25  C   UNL     1      48.777   6.208  19.373  0.00  0.00    +0.000 A 
ATOM     26  N   UNL     1      48.618   4.924  19.789  0.00  0.00    +0.000 NA
ATOM     27  C   UNL     1      48.821   4.039  18.873  0.00  0.00    +0.000 A 
ATOM     28  N   UNL     1      49.159   4.314  17.574  0.00  0.00    +0.000 N 
ATOM     29  C   UNL     1      49.279   5.604  17.096  0.00  0.00    +0.000 A 
ATOM     30  O   UNL     1      49.504   5.825  15.908  0.00  0.00    +0.000 OA
ATOM     31  C   UNL     1      49.093   6.637  18.093  0.00  0.00    +0.000 A 
ATOM     32  H   UNL     1      49.287   3.577  16.903  0.00  0.00    +0.000 HD
ENDBRANCH  19  22
ENDBRANCH  17  18
ENDBRANCH   1  17
TORSDOF 7
ENDMDL
MODEL 6
REMARK VINA RESULT:    -6.402      4.377      9.418
REMARK INTER + INTRA:         -10.038
REMARK INTER:                  -9.142
REMARK INTRA:                  -0.896
REMARK UNBOUND:                -1.017
REMARK  Name = 
REMARK  8 active torsions:
REMARK  status: ('A' for Active; 'I' for Inactive)
REMARK    1  A    between atoms: C_1  and  C_2
REMARK    2  A    between atoms: C_2  and  C_3
REMARK    3  A    between atoms: C_2  and  C_25
REMARK    4  A    between atoms: C_3  and  N_4
REMARK    5  A    between atoms: N_7  and  C_8
REMARK    6  A    between atoms: C_8  and  C_9
REMARK    7  A    between atoms: C_9  and  N_10
REMARK    8  A    between atoms: C_11  and  C_13
REMARK                            x       y       z     vdW  Elec       q    Type
REMARK                         _______ _______ _______ _____ _____    ______ ____
ROOT
ATOM      1  C   UNL     1      48.799   4.813  17.130  0.00  0.00    +0.000 C 
ENDROOT
BRANCH   1   5
ATOM      2  N   UNL     1      52.325   3.377  17.743  0.00  0.00    +0.000 NA
ATOM      3  C   UNL     1      51.803   4.765  17.797  0.00  0.00    +0.000 C 
ATOM      4  C   UNL     1      50.588   4.920  18.747  0.00  0.00    +0.000 C 
ATOM      5  N   UNL     1      49.400   4.158  18.306  0.00  0.00    +0.000 NA
ATOM      6  C   UNL     1      49.810   2.752  18.086  0.00  0.00    +0.000 C 
ATOM      7  C   UNL     1      51.185   2.497  17.397  0.00  0.00    +0.000 C 
BRANCH   2   8
ATOM      8  C   UNL     1      53.048   3.090  19.011  0.00  0.00    +0.000 C 
BRANCH   8  10
ATOM      9  C   UNL     1      55.421   3.798  18.260  0.00  0.00    +0.000 C 
ATOM     10  C   UNL     1      54.562   2.760  18.986  0.00  0.00    +0.000 C 
BRANCH  10  11
ATOM     11  C   UNL     1      54.809   1.440  18.245  0.00  0.00    +0.000 A 
ATOM     12  C   UNL     1      55.340   1.456  16.956  0.00  0.00    +0.000 A 
ATOM     13  C   UNL     1      55.300   0.287  16.197  0.00  0.00    +0.000 A 
ATOM     14  C   UNL     1      54.748  -0.864  16.743  0.00  0.00    +0.000 A 
ATOM     15  C   UNL     1      54.286  -0.809  18.046  0.00  0.00    +0.000 A 
ATOM     16  N   UNL     1      54.304   0.310  18.803  0.00  0.00    +0.000 NA
ENDBRANCH  10  11
ENDBRANCH   8  10
ENDBRANCH   2   8
ENDBRANCH   1   5
BRANCH   1  17
ATOM     17  C   UNL     1      47.661   4.037  16.449  0.00  0.00    +0.000 C 
BRANCH  17  18
ATOM     18  N   UNL     1      46.968   4.866  15.475  0.00  0.00    +0.000 N 
ATOM     19  C   UNL     1      46.786   4.466  14.174  0.00  0.00    +0.000 C 
ATOM     20  O   UNL     1      47.146   3.363  13.770  0.00  0.00    +0.000 OA
ATOM     21  H   UNL     1      46.860   5.848  15.705  0.00  0.00    +0.000 HD
BRANCH  19  22
ATOM     22  C   UNL     1      46.076   5.407  13.301  0.00  0.00    +0.000 A 
ATOM     23  C   UNL     1      46.696   6.585  12.908  0.00  0.00    +0.000 A 
ATOM     24  S   UNL     1      45.746   7.540  11.862  0.00  0.00    +0.000 S 
ATOM     25  C   UNL     1      44.453   6.439  11.941  0.00  0.00    +0.000 A 
ATOM     26  N   UNL     1      43.289   6.676  11.281  0.00  0.00    +0.000 NA
ATOM     27  C   UNL     1      42.380   5.779  11.463  0.00  0.00    +0.000 A 
ATOM     28  N   UNL     1      42.527   4.657  12.237  0.00  0.00    +0.000 N 
ATOM     29  C   UNL     1      43.709   4.351  12.882  0.00  0.00    +0.000 A 
ATOM     30  O   UNL     1      43.841   3.298  13.504  0.00  0.00    +0.000 OA
ATOM     31  C   UNL     1      44.752   5.343  12.736  0.00  0.00    +0.000 A 
ATOM     32  H   UNL     1      41.784   3.986  12.325  0.00  0.00    +0.000 HD
ENDBRANCH  19  22
ENDBRANCH  17  18
ENDBRANCH   1  17
TORSDOF 7
ENDMDL
MODEL 7
REMARK VINA RESULT:    -6.389      2.566      3.850
REMARK INTER + INTRA:         -10.020
REMARK INTER:                  -9.358
REMARK INTRA:                  -0.662
REMARK UNBOUND:                -1.017
REMARK  Name = 
REMARK  8 active torsions:
REMARK  status: ('A' for Active; 'I' for Inactive)
REMARK    1  A    between atoms: C_1  and  C_2
REMARK    2  A    between atoms: C_2  and  C_3
REMARK    3  A    between atoms: C_2  and  C_25
REMARK    4  A    between atoms: C_3  and  N_4
REMARK    5  A    between atoms: N_7  and  C_8
REMARK    6  A    between atoms: C_8  and  C_9
REMARK    7  A    between atoms: C_9  and  N_10
REMARK    8  A    between atoms: C_11  and  C_13
REMARK                            x       y       z     vdW  Elec       q    Type
REMARK                         _______ _______ _______ _____ _____    ______ ____
ROOT
ATOM      1  C   UNL     1      49.771   7.914  14.188  0.00  0.00    +0.000 C 
ENDROOT
BRANCH   1   5
ATOM      2  N   UNL     1      47.004   6.423  11.954  0.00  0.00    +0.000 NA
ATOM      3  C   UNL     1      47.136   6.518  13.429  0.00  0.00    +0.000 C 
ATOM      4  C   UNL     1      47.372   7.967  13.926  0.00  0.00    +0.000 C 
ATOM      5  N   UNL     1      48.652   8.543  13.462  0.00  0.00    +0.000 NA
ATOM      6  C   UNL     1      48.716   8.399  11.989  0.00  0.00    +0.000 C 
ATOM      7  C   UNL     1      48.204   7.063  11.368  0.00  0.00    +0.000 C 
BRANCH   2   8
ATOM      8  C   UNL     1      45.678   6.969  11.559  0.00  0.00    +0.000 C 
BRANCH   8  10
ATOM      9  C   UNL     1      43.954   5.385  12.660  0.00  0.00    +0.000 C 
ATOM     10  C   UNL     1      44.470   6.018  11.366  0.00  0.00    +0.000 C 
BRANCH  10  11
ATOM     11  C   UNL     1      44.858   4.839  10.465  0.00  0.00    +0.000 A 
ATOM     12  C   UNL     1      45.477   5.077   9.237  0.00  0.00    +0.000 A 
ATOM     13  C   UNL     1      45.570   4.034   8.317  0.00  0.00    +0.000 A 
ATOM     14  C   UNL     1      45.062   2.785   8.646  0.00  0.00    +0.000 A 
ATOM     15  C   UNL     1      44.506   2.618   9.903  0.00  0.00    +0.000 A 
ATOM     16  N   UNL     1      44.394   3.611  10.811  0.00  0.00    +0.000 NA
ENDBRANCH  10  11
ENDBRANCH   8  10
ENDBRANCH   2   8
ENDBRANCH   1   5
BRANCH   1  17
ATOM     17  C   UNL     1      49.520   7.633  15.678  0.00  0.00    +0.000 C 
BRANCH  17  18
ATOM     18  N   UNL     1      50.474   6.668  16.199  0.00  0.00    +0.000 N 
ATOM     19  C   UNL     1      50.184   5.860  17.271  0.00  0.00    +0.000 C 
ATOM     20  O   UNL     1      49.084   5.863  17.816  0.00  0.00    +0.000 OA
ATOM     21  H   UNL     1      51.444   6.791  15.927  0.00  0.00    +0.000 HD
BRANCH  19  22
ATOM     22  C   UNL     1      51.245   4.938  17.693  0.00  0.00    +0.000 A 
ATOM     23  C   UNL     1      52.408   5.439  18.261  0.00  0.00    +0.000 A 
ATOM     24  S   UNL     1      53.514   4.229  18.731  0.00  0.00    +0.000 S 
ATOM     25  C   UNL     1      52.501   2.997  18.143  0.00  0.00    +0.000 A 
ATOM     26  N   UNL     1      52.875   1.692  18.208  0.00  0.00    +0.000 NA
ATOM     27  C   UNL     1      52.028   0.869  17.687  0.00  0.00    +0.000 A 
ATOM     28  N   UNL     1      50.835   1.225  17.113  0.00  0.00    +0.000 N 
ATOM     29  C   UNL     1      50.394   2.532  17.073  0.00  0.00    +0.000 A 
ATOM     30  O   UNL     1      49.284   2.816  16.627  0.00  0.00    +0.000 OA
ATOM     31  C   UNL     1      51.321   3.502  17.617  0.00  0.00    +0.000 A 
ATOM     32  H   UNL     1      50.212   0.532  16.740  0.00  0.00    +0.000 HD
ENDBRANCH  19  22
ENDBRANCH  17  18
ENDBRANCH   1  17
TORSDOF 7
ENDMDL
MODEL 8
REMARK VINA RESULT:    -6.037      4.297      9.420
REMARK INTER + INTRA:          -9.524
REMARK INTER:                  -8.453
REMARK INTRA:                  -1.072
REMARK UNBOUND:                -1.017
REMARK  Name = 
REMARK  8 active torsions:
REMARK  status: ('A' for Active; 'I' for Inactive)
REMARK    1  A    between atoms: C_1  and  C_2
REMARK    2  A    between atoms: C_2  and  C_3
REMARK    3  A    between atoms: C_2  and  C_25
REMARK    4  A    between atoms: C_3  and  N_4
REMARK    5  A    between atoms: N_7  and  C_8
REMARK    6  A    between atoms: C_8  and  C_9
REMARK    7  A    between atoms: C_9  and  N_10
REMARK    8  A    between atoms: C_11  and  C_13
REMARK                            x       y       z     vdW  Elec       q    Type
REMARK                         _______ _______ _______ _____ _____    ______ ____
ROOT
ATOM      1  C   UNL     1      48.425   4.842  16.915  0.00  0.00    +0.000 C 
ENDROOT
BRANCH   1   5
ATOM      2  N   UNL     1      51.969   3.447  17.519  0.00  0.00    +0.000 NA
ATOM      3  C   UNL     1      51.465   4.837  17.395  0.00  0.00    +0.000 C 
ATOM      4  C   UNL     1      50.315   5.157  18.383  0.00  0.00    +0.000 C 
ATOM      5  N   UNL     1      49.094   4.361  18.137  0.00  0.00    +0.000 NA
ATOM      6  C   UNL     1      49.474   2.929  18.108  0.00  0.00    +0.000 C 
ATOM      7  C   UNL     1      50.801   2.547  17.382  0.00  0.00    +0.000 C 
BRANCH   2   8
ATOM      8  C   UNL     1      52.769   3.341  18.769  0.00  0.00    +0.000 C 
BRANCH   8  10
ATOM      9  C   UNL     1      55.017   3.955  17.646  0.00  0.00    +0.000 C 
ATOM     10  C   UNL     1      54.299   3.106  18.697  0.00  0.00    +0.000 C 
BRANCH  10  11
ATOM     11  C   UNL     1      54.598   1.651  18.316  0.00  0.00    +0.000 A 
ATOM     12  C   UNL     1      54.711   1.293  16.973  0.00  0.00    +0.000 A 
ATOM     13  C   UNL     1      54.705  -0.058  16.633  0.00  0.00    +0.000 A 
ATOM     14  C   UNL     1      54.601  -1.015  17.634  0.00  0.00    +0.000 A 
ATOM     15  C   UNL     1      54.541  -0.579  18.947  0.00  0.00    +0.000 A 
ATOM     16  N   UNL     1      54.537   0.723  19.306  0.00  0.00    +0.000 NA
ENDBRANCH  10  11
ENDBRANCH   8  10
ENDBRANCH   2   8
ENDBRANCH   1   5
BRANCH   1  17
ATOM     17  C   UNL     1      47.319   3.930  16.361  0.00  0.00    +0.000 C 
BRANCH  17  18
ATOM     18  N   UNL     1      46.524   4.617  15.356  0.00  0.00    +0.000 N 
ATOM     19  C   UNL     1      46.536   4.244  14.035  0.00  0.00    +0.000 C 
ATOM     20  O   UNL     1      47.173   3.274  13.632  0.00  0.00    +0.000 OA
ATOM     21  H   UNL     1      46.172   5.537  15.602  0.00  0.00    +0.000 HD
BRANCH  19  22
ATOM     22  C   UNL     1      45.690   5.032  13.131  0.00  0.00    +0.000 A 
ATOM     23  C   UNL     1      44.657   4.414  12.440  0.00  0.00    +0.000 A 
ATOM     24  S   UNL     1      43.749   5.482  11.470  0.00  0.00    +0.000 S 
ATOM     25  C   UNL     1      44.738   6.798  11.896  0.00  0.00    +0.000 A 
ATOM     26  N   UNL     1      44.522   8.035  11.377  0.00  0.00    +0.000 NA
ATOM     27  C   UNL     1      45.373   8.928  11.755  0.00  0.00    +0.000 A 
ATOM     28  N   UNL     1      46.418   8.705  12.613  0.00  0.00    +0.000 N 
ATOM     29  C   UNL     1      46.643   7.478  13.204  0.00  0.00    +0.000 A 
ATOM     30  O   UNL     1      47.538   7.324  14.033  0.00  0.00    +0.000 OA
ATOM     31  C   UNL     1      45.734   6.430  12.789  0.00  0.00    +0.000 A 
ATOM     32  H   UNL     1      47.037   9.449  12.882  0.00  0.00    +0.000 HD
ENDBRANCH  19  22
ENDBRANCH  17  18
ENDBRANCH   1  17
TORSDOF 7
ENDMDL
