MODEL 1
REMARK VINA RESULT:    -8.337      0.000      0.000
REMARK INTER + INTRA:         -13.493
REMARK INTER:                 -12.237
REMARK INTRA:                  -1.256
REMARK UNBOUND:                -1.256
REMARK  Name = 
REMARK  9 active torsions:
REMARK  status: ('A' for Active; 'I' for Inactive)
REMARK    1  A    between atoms: C_1  and  O_2
REMARK    2  A    between atoms: O_2  and  C_3
REMARK    3  A    between atoms: C_10  and  C_11
REMARK    4  A    between atoms: N_13  and  C_14
REMARK    5  A    between atoms: C_14  and  C_15
REMARK    6  A    between atoms: C_18  and  C_19
REMARK    7  A    between atoms: C_19  and  N_20
REMARK    8  A    between atoms: N_20  and  C_21
REMARK    9  A    between atoms: C_21  and  C_22
REMARK                            x       y       z     vdW  Elec       q    Type
REMARK                         _______ _______ _______ _____ _____    ______ ____
ROOT
ATOM      1  C   UNL     1      47.931   6.924  13.191  0.00  0.00    +0.000 C 
ENDROOT
BRANCH   1   2
ATOM      2  C   UNL     1      46.755   6.143  12.661  0.00  0.00    +0.000 A 
ATOM      3  C   UNL     1      46.224   6.412  11.393  0.00  0.00    +0.000 A 
ATOM      4  C   UNL     1      45.169   5.644  10.884  0.00  0.00    +0.000 A 
ATOM      5  C   UNL     1      44.621   4.589  11.629  0.00  0.00    +0.000 A 
ATOM      6  C   UNL     1      45.120   4.359  12.918  0.00  0.00    +0.000 A 
ATOM      7  C   UNL     1      46.168   5.132  13.432  0.00  0.00    +0.000 A 
BRANCH   5   8
ATOM      8  C   UNL     1      43.524   3.711  11.058  0.00  0.00    +0.000 C 
BRANCH   8   9
ATOM      9  N   UNL     1      43.786   3.387   9.657  0.00  0.00    +0.000 NA
ATOM     10  H   UNL     1      44.293   4.159   9.226  0.00  0.00    +0.000 HD
BRANCH   9  11
ATOM     11  C   UNL     1      44.578   2.164   9.504  0.00  0.00    +0.000 C 
BRANCH  11  12
ATOM     12  C   UNL     1      45.604   2.314   8.397  0.00  0.00    +0.000 A 
ATOM     13  C   UNL     1      45.765   3.525   7.707  0.00  0.00    +0.000 A 
ATOM     14  C   UNL     1      46.738   3.651   6.709  0.00  0.00    +0.000 A 
ATOM     15  C   UNL     1      47.558   2.569   6.389  0.00  0.00    +0.000 A 
ATOM     16  C   UNL     1      47.401   1.360   7.061  0.00  0.00    +0.000 A 
ATOM     17  C   UNL     1      46.433   1.234   8.059  0.00  0.00    +0.000 A 
ENDBRANCH  11  12
ENDBRANCH   9  11
ENDBRANCH   8   9
ENDBRANCH   5   8
ENDBRANCH   1   2
BRANCH   1  20
ATOM     18  C   UNL     1      49.088   6.955  15.356  0.00  0.00    +0.000 C 
ATOM     19  O   UNL     1      50.185   6.860  14.803  0.00  0.00    +0.000 OA
ATOM     20  N   UNL     1      47.931   6.982  14.632  0.00  0.00    +0.000 N 
ATOM     21  H   UNL     1      47.034   6.967  15.101  0.00  0.00    +0.000 HD
BRANCH  18  29
ATOM     22  C   UNL     1      48.866   4.622  17.887  0.00  0.00    +0.000 A 
ATOM     23  N   UNL     1      48.683   3.951  19.043  0.00  0.00    +0.000 NA
ATOM     24  C   UNL     1      48.534   4.652  20.168  0.00  0.00    +0.000 A 
ATOM     25  N   UNL     1      48.547   5.975  20.287  0.00  0.00    +0.000 NA
ATOM     26  C   UNL     1      48.711   6.609  19.114  0.00  0.00    +0.000 A 
ATOM     27  S   UNL     1      48.760   8.305  19.087  0.00  0.00    +0.000 S 
ATOM     28  C   UNL     1      48.952   8.320  17.399  0.00  0.00    +0.000 A 
ATOM     29  C   UNL     1      48.978   7.056  16.822  0.00  0.00    +0.000 A 
ATOM     30  C   UNL     1      48.863   6.029  17.858  0.00  0.00    +0.000 A 
BRANCH  22  32
ATOM     31  C   UNL     1      48.002   3.039  16.388  0.00  0.00    +0.000 C 
ATOM     32  O   UNL     1      49.095   3.888  16.739  0.00  0.00    +0.000 OA
ENDBRANCH  22  32
ENDBRANCH  18  29
ENDBRANCH   1  20
TORSDOF 8
ENDMDL
MODEL 2
REMARK VINA RESULT:    -8.085      1.824      2.650
REMARK INTER + INTRA:         -13.122
REMARK INTER:                 -11.946
REMARK INTRA:                  -1.176
REMARK UNBOUND:                -1.256
REMARK  Name = 
REMARK  9 active torsions:
REMARK  status: ('A' for Active; 'I' for Inactive)
REMARK    1  A    between atoms: C_1  and  O_2
REMARK    2  A    between atoms: O_2  and  C_3
REMARK    3  A    between atoms: C_10  and  C_11
REMARK    4  A    between atoms: N_13  and  C_14
REMARK    5  A    between atoms: C_14  and  C_15
REMARK    6  A    between atoms: C_18  and  C_19
REMARK    7  A    between atoms: C_19  and  N_20
REMARK    8  A    between atoms: N_20  and  C_21
REMARK    9  A    between atoms: C_21  and  C_22
REMARK                            x       y       z     vdW  Elec       q    Type
REMARK                         _______ _______ _______ _____ _____    ______ ____
ROOT
ATOM      1  C   UNL     1      47.451   3.282  14.896  0.00  0.00    +0.000 C 
ENDROOT
BRANCH   1   2
ATOM      2  C   UNL     1      46.769   3.979  13.745  0.00  0.00    +0.000 A 
ATOM      3  C   UNL     1      47.020   5.329  13.471  0.00  0.00    +0.000 A 
ATOM      4  C   UNL     1      46.428   5.955  12.366  0.00  0.00    +0.000 A 
ATOM      5  C   UNL     1      45.572   5.245  11.511  0.00  0.00    +0.000 A 
ATOM      6  C   UNL     1      45.281   3.910  11.821  0.00  0.00    +0.000 A 
ATOM      7  C   UNL     1      45.865   3.286  12.930  0.00  0.00    +0.000 A 
BRANCH   5   8
ATOM      8  C   UNL     1      44.979   5.898  10.276  0.00  0.00    +0.000 C 
BRANCH   8   9
ATOM      9  N   UNL     1      45.569   5.348   9.056  0.00  0.00    +0.000 NA
ATOM     10  H   UNL     1      46.519   5.037   9.257  0.00  0.00    +0.000 HD
BRANCH   9  11
ATOM     11  C   UNL     1      44.808   4.214   8.528  0.00  0.00    +0.000 C 
BRANCH  11  12
ATOM     12  C   UNL     1      45.729   3.177   7.914  0.00  0.00    +0.000 A 
ATOM     13  C   UNL     1      45.814   1.875   8.431  0.00  0.00    +0.000 A 
ATOM     14  C   UNL     1      46.649   0.925   7.830  0.00  0.00    +0.000 A 
ATOM     15  C   UNL     1      47.406   1.265   6.710  0.00  0.00    +0.000 A 
ATOM     16  C   UNL     1      47.335   2.556   6.194  0.00  0.00    +0.000 A 
ATOM     17  C   UNL     1      46.501   3.504   6.789  0.00  0.00    +0.000 A 
ENDBRANCH  11  12
ENDBRANCH   9  11
ENDBRANCH   8   9
ENDBRANCH   5   8
ENDBRANCH   1   2
BRANCH   1  20
ATOM     18  C   UNL     1      47.326   4.091  17.210  0.00  0.00    +0.000 C 
ATOM     19  O   UNL     1      46.530   3.199  17.509  0.00  0.00    +0.000 OA
ATOM     20  N   UNL     1      47.817   4.205  15.941  0.00  0.00    +0.000 N 
ATOM     21  H   UNL     1      48.397   4.995  15.686  0.00  0.00    +0.000 HD
BRANCH  18  29
ATOM     22  C   UNL     1      50.448   5.172  18.199  0.00  0.00    +0.000 A 
ATOM     23  N   UNL     1      51.515   5.702  18.832  0.00  0.00    +0.000 NA
ATOM     24  C   UNL     1      51.301   6.550  19.839  0.00  0.00    +0.000 A 
ATOM     25  N   UNL     1      50.123   6.948  20.305  0.00  0.00    +0.000 NA
ATOM     26  C   UNL     1      49.084   6.385  19.665  0.00  0.00    +0.000 A 
ATOM     27  S   UNL     1      47.504   6.790  20.131  0.00  0.00    +0.000 S 
ATOM     28  C   UNL     1      46.842   5.743  18.968  0.00  0.00    +0.000 A 
ATOM     29  C   UNL     1      47.792   5.066  18.212  0.00  0.00    +0.000 A 
ATOM     30  C   UNL     1      49.138   5.475  18.614  0.00  0.00    +0.000 A 
BRANCH  22  32
ATOM     31  C   UNL     1      51.099   3.040  17.474  0.00  0.00    +0.000 C 
ATOM     32  O   UNL     1      50.679   4.355  17.110  0.00  0.00    +0.000 OA
ENDBRANCH  22  32
ENDBRANCH  18  29
ENDBRANCH   1  20
TORSDOF 8
ENDMDL
MODEL 3
REMARK VINA RESULT:    -7.950      1.723      2.834
REMARK INTER + INTRA:         -12.923
REMARK INTER:                 -11.658
REMARK INTRA:                  -1.265
REMARK UNBOUND:                -1.256
REMARK  Name = 
REMARK  9 active torsions:
REMARK  status: ('A' for Active; 'I' for Inactive)
REMARK    1  A    between atoms: C_1  and  O_2
REMARK    2  A    between atoms: O_2  and  C_3
REMARK    3  A    between atoms: C_10  and  C_11
REMARK    4  A    between atoms: N_13  and  C_14
REMARK    5  A    between atoms: C_14  and  C_15
REMARK    6  A    between atoms: C_18  and  C_19
REMARK    7  A    between atoms: C_19  and  N_20
REMARK    8  A    between atoms: N_20  and  C_21
REMARK    9  A    between atoms: C_21  and  C_22
REMARK                            x       y       z     vdW  Elec       q    Type
REMARK                         _______ _______ _______ _____ _____    ______ ____
ROOT
ATOM      1  C   UNL     1      48.283   6.368  14.076  0.00  0.00    +0.000 C 
ENDROOT
BRANCH   1   2
ATOM      2  C   UNL     1      47.067   6.010  13.257  0.00  0.00    +0.000 A 
ATOM      3  C   UNL     1      46.693   6.781  12.149  0.00  0.00    +0.000 A 
ATOM      4  C   UNL     1      45.597   6.410  11.359  0.00  0.00    +0.000 A 
ATOM      5  C   UNL     1      44.851   5.260  11.659  0.00  0.00    +0.000 A 
ATOM      6  C   UNL     1      45.196   4.524  12.799  0.00  0.00    +0.000 A 
ATOM      7  C   UNL     1      46.285   4.899  13.595  0.00  0.00    +0.000 A 
BRANCH   5   8
ATOM      8  C   UNL     1      43.704   4.816  10.771  0.00  0.00    +0.000 C 
BRANCH   8   9
ATOM      9  N   UNL     1      44.190   4.383   9.461  0.00  0.00    +0.000 NA
ATOM     10  H   UNL     1      45.039   4.900   9.234  0.00  0.00    +0.000 HD
BRANCH   9  11
ATOM     11  C   UNL     1      44.491   2.950   9.421  0.00  0.00    +0.000 C 
BRANCH  11  12
ATOM     12  C   UNL     1      45.525   2.640   8.356  0.00  0.00    +0.000 A 
ATOM     13  C   UNL     1      46.131   1.376   8.270  0.00  0.00    +0.000 A 
ATOM     14  C   UNL     1      47.061   1.101   7.261  0.00  0.00    +0.000 A 
ATOM     15  C   UNL     1      47.397   2.084   6.330  0.00  0.00    +0.000 A 
ATOM     16  C   UNL     1      46.809   3.343   6.412  0.00  0.00    +0.000 A 
ATOM     17  C   UNL     1      45.879   3.618   7.415  0.00  0.00    +0.000 A 
ENDBRANCH  11  12
ENDBRANCH   9  11
ENDBRANCH   8   9
ENDBRANCH   5   8
ENDBRANCH   1   2
BRANCH   1  20
ATOM     18  C   UNL     1      48.750   6.158  16.477  0.00  0.00    +0.000 C 
ATOM     19  O   UNL     1      49.787   5.533  16.249  0.00  0.00    +0.000 OA
ATOM     20  N   UNL     1      47.949   6.594  15.460  0.00  0.00    +0.000 N 
ATOM     21  H   UNL     1      47.056   7.025  15.662  0.00  0.00    +0.000 HD
BRANCH  18  29
ATOM     22  C   UNL     1      47.802   9.070  18.065  0.00  0.00    +0.000 A 
ATOM     23  N   UNL     1      47.486  10.044  18.942  0.00  0.00    +0.000 NA
ATOM     24  C   UNL     1      47.294   9.712  20.219  0.00  0.00    +0.000 A 
ATOM     25  N   UNL     1      47.377   8.496  20.745  0.00  0.00    +0.000 NA
ATOM     26  C   UNL     1      47.713   7.555  19.847  0.00  0.00    +0.000 A 
ATOM     27  S   UNL     1      47.856   5.940  20.350  0.00  0.00    +0.000 S 
ATOM     28  C   UNL     1      48.285   5.441  18.784  0.00  0.00    +0.000 A 
ATOM     29  C   UNL     1      48.335   6.473  17.855  0.00  0.00    +0.000 A 
ATOM     30  C   UNL     1      47.963   7.738  18.490  0.00  0.00    +0.000 A 
BRANCH  22  32
ATOM     31  C   UNL     1      49.192   9.985  16.414  0.00  0.00    +0.000 C 
ATOM     32  O   UNL     1      47.925   9.410  16.732  0.00  0.00    +0.000 OA
ENDBRANCH  22  32
ENDBRANCH  18  29
ENDBRANCH   1  20
TORSDOF 8
ENDMDL
MODEL 4
REMARK VINA RESULT:    -7.752      1.806      3.425
REMARK INTER + INTRA:         -12.633
REMARK INTER:                 -11.153
REMARK INTRA:                  -1.480
REMARK UNBOUND:                -1.256
REMARK  Name = 
REMARK  9 active torsions:
REMARK  status: ('A' for Active; 'I' for Inactive)
REMARK    1  A    between atoms: C_1  and  O_2
REMARK    2  A    between atoms: O_2  and  C_3
REMARK    3  A    between atoms: C_10  and  C_11
REMARK    4  A    between atoms: N_13  and  C_14
REMARK    5  A    between atoms: C_14  and  C_15
REMARK    6  A    between atoms: C_18  and  C_19
REMARK    7  A    between atoms: C_19  and  N_20
REMARK    8  A    between atoms: N_20  and  C_21
REMARK    9  A    between atoms: C_21  and  C_22
REMARK                            x       y       z     vdW  Elec       q    Type
REMARK                         _______ _______ _______ _____ _____    ______ ____
ROOT
ATOM      1  C   UNL     1      47.203   4.354  15.008  0.00  0.00    +0.000 C 
ENDROOT
BRANCH   1   2
ATOM      2  C   UNL     1      46.329   4.435  13.781  0.00  0.00    +0.000 A 
ATOM      3  C   UNL     1      45.978   3.281  13.070  0.00  0.00    +0.000 A 
ATOM      4  C   UNL     1      45.119   3.357  11.965  0.00  0.00    +0.000 A 
ATOM      5  C   UNL     1      44.591   4.588  11.548  0.00  0.00    +0.000 A 
ATOM      6  C   UNL     1      44.988   5.746  12.230  0.00  0.00    +0.000 A 
ATOM      7  C   UNL     1      45.854   5.672  13.327  0.00  0.00    +0.000 A 
BRANCH   5   8
ATOM      8  C   UNL     1      43.609   4.670  10.395  0.00  0.00    +0.000 C 
BRANCH   8   9
ATOM      9  N   UNL     1      43.995   3.769   9.310  0.00  0.00    +0.000 NA
ATOM     10  H   UNL     1      43.179   3.580   8.728  0.00  0.00    +0.000 HD
BRANCH   9  11
ATOM     11  C   UNL     1      45.052   4.329   8.466  0.00  0.00    +0.000 C 
BRANCH  11  12
ATOM     12  C   UNL     1      45.867   3.230   7.812  0.00  0.00    +0.000 A 
ATOM     13  C   UNL     1      46.608   3.465   6.643  0.00  0.00    +0.000 A 
ATOM     14  C   UNL     1      47.377   2.444   6.072  0.00  0.00    +0.000 A 
ATOM     15  C   UNL     1      47.413   1.181   6.660  0.00  0.00    +0.000 A 
ATOM     16  C   UNL     1      46.675   0.934   7.814  0.00  0.00    +0.000 A 
ATOM     17  C   UNL     1      45.910   1.951   8.387  0.00  0.00    +0.000 A 
ENDBRANCH  11  12
ENDBRANCH   9  11
ENDBRANCH   8   9
ENDBRANCH   5   8
ENDBRANCH   1   2
BRANCH   1  20
ATOM     18  C   UNL     1      48.658   5.869  16.278  0.00  0.00    +0.000 C 
ATOM     19  O   UNL     1      49.395   4.935  16.602  0.00  0.00    +0.000 OA
ATOM     20  N   UNL     1      47.553   5.662  15.504  0.00  0.00    +0.000 N 
ATOM     21  H   UNL     1      46.908   6.420  15.322  0.00  0.00    +0.000 HD
BRANCH  18  29
ATOM     22  C   UNL     1      48.804   8.884  14.609  0.00  0.00    +0.000 A 
ATOM     23  N   UNL     1      49.011  10.156  14.210  0.00  0.00    +0.000 NA
ATOM     24  C   UNL     1      49.391  11.054  15.120  0.00  0.00    +0.000 A 
ATOM     25  N   UNL     1      49.594  10.837  16.415  0.00  0.00    +0.000 NA
ATOM     26  C   UNL     1      49.398   9.556  16.772  0.00  0.00    +0.000 A 
ATOM     27  S   UNL     1      49.606   9.105  18.394  0.00  0.00    +0.000 S 
ATOM     28  C   UNL     1      49.230   7.486  18.042  0.00  0.00    +0.000 A 
ATOM     29  C   UNL     1      48.946   7.250  16.702  0.00  0.00    +0.000 A 
ATOM     30  C   UNL     1      49.019   8.501  15.946  0.00  0.00    +0.000 A 
BRANCH  22  32
ATOM     31  C   UNL     1      49.374   7.428  12.863  0.00  0.00    +0.000 C 
ATOM     32  O   UNL     1      48.339   7.978  13.676  0.00  0.00    +0.000 OA
ENDBRANCH  22  32
ENDBRANCH  18  29
ENDBRANCH   1  20
TORSDOF 8
ENDMDL
MODEL 5
REMARK VINA RESULT:    -7.639      1.555      2.385
REMARK INTER + INTRA:         -12.467
REMARK INTER:                 -11.330
REMARK INTRA:                  -1.137
REMARK UNBOUND:                -1.256
REMARK  Name = 
REMARK  9 active torsions:
REMARK  status: ('A' for Active; 'I' for Inactive)
REMARK    1  A    between atoms: C_1  and  O_2
REMARK    2  A    between atoms: O_2  and  C_3
REMARK    3  A    between atoms: C_10  and  C_11
REMARK    4  A    between atoms: N_13  and  C_14
REMARK    5  A    between atoms: C_14  and  C_15
REMARK    6  A    between atoms: C_18  and  C_19
REMARK    7  A    between atoms: C_19  and  N_20
REMARK    8  A    between atoms: N_20  and  C_21
REMARK    9  A    between atoms: C_21  and  C_22
REMARK                            x       y       z     vdW  Elec       q    Type
REMARK                         _______ _______ _______ _____ _____    ______ ____
ROOT
ATOM      1  C   UNL     1      47.420   4.276  14.924  0.00  0.00    +0.000 C 
ENDROOT
BRANCH   1   2
ATOM      2  C   UNL     1      46.472   4.393  13.756  0.00  0.00    +0.000 A 
ATOM      3  C   UNL     1      46.028   3.254  13.072  0.00  0.00    +0.000 A 
ATOM      4  C   UNL     1      45.103   3.366  12.026  0.00  0.00    +0.000 A 
ATOM      5  C   UNL     1      44.600   4.618  11.640  0.00  0.00    +0.000 A 
ATOM      6  C   UNL     1      45.089   5.758  12.291  0.00  0.00    +0.000 A 
ATOM      7  C   UNL     1      46.021   5.649  13.330  0.00  0.00    +0.000 A 
BRANCH   5   8
ATOM      8  C   UNL     1      43.549   4.740  10.553  0.00  0.00    +0.000 C 
BRANCH   8   9
ATOM      9  N   UNL     1      43.899   3.927   9.389  0.00  0.00    +0.000 NA
ATOM     10  H   UNL     1      43.112   3.916   8.743  0.00  0.00    +0.000 HD
BRANCH   9  11
ATOM     11  C   UNL     1      45.077   4.438   8.683  0.00  0.00    +0.000 C 
BRANCH  11  12
ATOM     12  C   UNL     1      45.828   3.315   7.993  0.00  0.00    +0.000 A 
ATOM     13  C   UNL     1      46.612   3.551   6.853  0.00  0.00    +0.000 A 
ATOM     14  C   UNL     1      47.321   2.506   6.250  0.00  0.00    +0.000 A 
ATOM     15  C   UNL     1      47.254   1.217   6.776  0.00  0.00    +0.000 A 
ATOM     16  C   UNL     1      46.472   0.970   7.902  0.00  0.00    +0.000 A 
ATOM     17  C   UNL     1      45.767   2.012   8.507  0.00  0.00    +0.000 A 
ENDBRANCH  11  12
ENDBRANCH   9  11
ENDBRANCH   8   9
ENDBRANCH   5   8
ENDBRANCH   1   2
BRANCH   1  20
ATOM     18  C   UNL     1      48.605   5.809  16.431  0.00  0.00    +0.000 C 
ATOM     19  O   UNL     1      49.543   5.017  16.545  0.00  0.00    +0.000 OA
ATOM     20  N   UNL     1      47.518   5.512  15.660  0.00  0.00    +0.000 N 
ATOM     21  H   UNL     1      46.717   6.130  15.648  0.00  0.00    +0.000 HD
BRANCH  18  29
ATOM     22  C   UNL     1      47.806   6.829  19.627  0.00  0.00    +0.000 A 
ATOM     23  N   UNL     1      47.489   7.509  20.749  0.00  0.00    +0.000 NA
ATOM     24  C   UNL     1      47.640   8.834  20.752  0.00  0.00    +0.000 A 
ATOM     25  N   UNL     1      48.080   9.587  19.751  0.00  0.00    +0.000 NA
ATOM     26  C   UNL     1      48.366   8.878  18.645  0.00  0.00    +0.000 A 
ATOM     27  S   UNL     1      48.951   9.685  17.271  0.00  0.00    +0.000 S 
ATOM     28  C   UNL     1      49.035   8.231  16.396  0.00  0.00    +0.000 A 
ATOM     29  C   UNL     1      48.623   7.114  17.113  0.00  0.00    +0.000 A 
ATOM     30  C   UNL     1      48.249   7.503  18.474  0.00  0.00    +0.000 A 
BRANCH  22  32
ATOM     31  C   UNL     1      48.918   4.821  20.104  0.00  0.00    +0.000 C 
ATOM     32  O   UNL     1      47.718   5.451  19.657  0.00  0.00    +0.000 OA
ENDBRANCH  22  32
ENDBRANCH  18  29
ENDBRANCH   1  20
TORSDOF 8
ENDMDL
MODEL 6
REMARK VINA RESULT:    -7.410      1.788      2.476
REMARK INTER + INTRA:         -12.132
REMARK INTER:                 -10.996
REMARK INTRA:                  -1.136
REMARK UNBOUND:                -1.256
REMARK  Name = 
REMARK  9 active torsions:
REMARK  status: ('A' for Active; 'I' for Inactive)
REMARK    1  A    between atoms: C_1  and  O_2
REMARK    2  A    between atoms: O_2  and  C_3
REMARK    3  A    between atoms: C_10  and  C_11
REMARK    4  A    between atoms: N_13  and  C_14
REMARK    5  A    between atoms: C_14  and  C_15
REMARK    6  A    between atoms: C_18  and  C_19
REMARK    7  A    between atoms: C_19  and  N_20
REMARK    8  A    between atoms: N_20  and  C_21
REMARK    9  A    between atoms: C_21  and  C_22
REMARK                            x       y       z     vdW  Elec       q    Type
REMARK                         _______ _______ _______ _____ _____    ______ ____
ROOT
ATOM      1  C   UNL     1      47.773   6.860  13.492  0.00  0.00    +0.000 C 
ENDROOT
BRANCH   1   2
ATOM      2  C   UNL     1      46.616   6.126  12.860  0.00  0.00    +0.000 A 
ATOM      3  C   UNL     1      45.949   6.655  11.747  0.00  0.00    +0.000 A 
ATOM      4  C   UNL     1      44.914   5.941  11.131  0.00  0.00    +0.000 A 
ATOM      5  C   UNL     1      44.522   4.682  11.612  0.00  0.00    +0.000 A 
ATOM      6  C   UNL     1      45.156   4.183  12.757  0.00  0.00    +0.000 A 
ATOM      7  C   UNL     1      46.184   4.900  13.380  0.00  0.00    +0.000 A 
BRANCH   5   8
ATOM      8  C   UNL     1      43.447   3.874  10.910  0.00  0.00    +0.000 C 
BRANCH   8   9
ATOM      9  N   UNL     1      43.866   3.502   9.559  0.00  0.00    +0.000 NA
ATOM     10  H   UNL     1      44.374   4.282   9.143  0.00  0.00    +0.000 HD
BRANCH   9  11
ATOM     11  C   UNL     1      44.730   2.320   9.546  0.00  0.00    +0.000 C 
BRANCH  11  12
ATOM     12  C   UNL     1      45.710   2.374   8.390  0.00  0.00    +0.000 A 
ATOM     13  C   UNL     1      46.458   1.247   8.011  0.00  0.00    +0.000 A 
ATOM     14  C   UNL     1      47.335   1.310   6.922  0.00  0.00    +0.000 A 
ATOM     15  C   UNL     1      47.475   2.496   6.202  0.00  0.00    +0.000 A 
ATOM     16  C   UNL     1      46.745   3.621   6.575  0.00  0.00    +0.000 A 
ATOM     17  C   UNL     1      45.867   3.560   7.658  0.00  0.00    +0.000 A 
ENDBRANCH  11  12
ENDBRANCH   9  11
ENDBRANCH   8   9
ENDBRANCH   5   8
ENDBRANCH   1   2
BRANCH   1  20
ATOM     18  C   UNL     1      48.674   6.890  15.775  0.00  0.00    +0.000 C 
ATOM     19  O   UNL     1      48.692   8.122  15.782  0.00  0.00    +0.000 OA
ATOM     20  N   UNL     1      48.245   6.195  14.681  0.00  0.00    +0.000 N 
ATOM     21  H   UNL     1      48.320   5.186  14.654  0.00  0.00    +0.000 HD
BRANCH  18  29
ATOM     22  C   UNL     1      51.750   5.879  16.963  0.00  0.00    +0.000 A 
ATOM     23  N   UNL     1      52.784   5.290  17.598  0.00  0.00    +0.000 NA
ATOM     24  C   UNL     1      52.528   4.547  18.676  0.00  0.00    +0.000 A 
ATOM     25  N   UNL     1      51.338   4.315  19.217  0.00  0.00    +0.000 NA
ATOM     26  C   UNL     1      50.331   4.902  18.547  0.00  0.00    +0.000 A 
ATOM     27  S   UNL     1      48.740   4.714  19.109  0.00  0.00    +0.000 S 
ATOM     28  C   UNL     1      48.128   5.647  17.828  0.00  0.00    +0.000 A 
ATOM     29  C   UNL     1      49.101   6.114  16.952  0.00  0.00    +0.000 A 
ATOM     30  C   UNL     1      50.427   5.688  17.403  0.00  0.00    +0.000 A 
BRANCH  22  32
ATOM     31  C   UNL     1      52.484   8.001  16.287  0.00  0.00    +0.000 C 
ATOM     32  O   UNL     1      52.031   6.706  15.893  0.00  0.00    +0.000 OA
ENDBRANCH  22  32
ENDBRANCH  18  29
ENDBRANCH   1  20
TORSDOF 8
ENDMDL
MODEL 7
REMARK VINA RESULT:    -7.262      1.834      2.175
REMARK INTER + INTRA:         -11.914
REMARK INTER:                 -11.160
REMARK INTRA:                  -0.754
REMARK UNBOUND:                -1.256
REMARK  Name = 
REMARK  9 active torsions:
REMARK  status: ('A' for Active; 'I' for Inactive)
REMARK    1  A    between atoms: C_1  and  O_2
REMARK    2  A    between atoms: O_2  and  C_3
REMARK    3  A    between atoms: C_10  and  C_11
REMARK    4  A    between atoms: N_13  and  C_14
REMARK    5  A    between atoms: C_14  and  C_15
REMARK    6  A    between atoms: C_18  and  C_19
REMARK    7  A    between atoms: C_19  and  N_20
REMARK    8  A    between atoms: N_20  and  C_21
REMARK    9  A    between atoms: C_21  and  C_22
REMARK                            x       y       z     vdW  Elec       q    Type
REMARK                         _______ _______ _______ _____ _____    ______ ____
ROOT
ATOM      1  C   UNL     1      47.472   7.689  13.355  0.00  0.00    +0.000 C 
ENDROOT
BRANCH   1   2
ATOM      2  C   UNL     1      46.486   6.590  13.046  0.00  0.00    +0.000 A 
ATOM      3  C   UNL     1      46.866   5.243  13.110  0.00  0.00    +0.000 A 
ATOM      4  C   UNL     1      45.930   4.226  12.879  0.00  0.00    +0.000 A 
ATOM      5  C   UNL     1      44.594   4.532  12.580  0.00  0.00    +0.000 A 
ATOM      6  C   UNL     1      44.232   5.881  12.465  0.00  0.00    +0.000 A 
ATOM      7  C   UNL     1      45.168   6.898  12.686  0.00  0.00    +0.000 A 
BRANCH   5   8
ATOM      8  C   UNL     1      43.561   3.437  12.394  0.00  0.00    +0.000 C 
BRANCH   8   9
ATOM      9  N   UNL     1      43.417   3.084  10.983  0.00  0.00    +0.000 NA
ATOM     10  H   UNL     1      42.427   2.974  10.767  0.00  0.00    +0.000 HD
BRANCH   9  11
ATOM     11  C   UNL     1      43.980   4.101  10.091  0.00  0.00    +0.000 C 
BRANCH  11  12
ATOM     12  C   UNL     1      44.957   3.483   9.109  0.00  0.00    +0.000 A 
ATOM     13  C   UNL     1      45.659   4.270   8.183  0.00  0.00    +0.000 A 
ATOM     14  C   UNL     1      46.579   3.684   7.306  0.00  0.00    +0.000 A 
ATOM     15  C   UNL     1      46.806   2.309   7.343  0.00  0.00    +0.000 A 
ATOM     16  C   UNL     1      46.108   1.518   8.252  0.00  0.00    +0.000 A 
ATOM     17  C   UNL     1      45.193   2.101   9.130  0.00  0.00    +0.000 A 
ENDBRANCH  11  12
ENDBRANCH   9  11
ENDBRANCH   8   9
ENDBRANCH   5   8
ENDBRANCH   1   2
BRANCH   1  20
ATOM     18  C   UNL     1      49.005   7.592  15.270  0.00  0.00    +0.000 C 
ATOM     19  O   UNL     1      48.340   8.431  15.880  0.00  0.00    +0.000 OA
ATOM     20  N   UNL     1      48.649   7.182  14.017  0.00  0.00    +0.000 N 
ATOM     21  H   UNL     1      49.252   6.563  13.491  0.00  0.00    +0.000 HD
BRANCH  18  29
ATOM     22  C   UNL     1      49.491   5.150  17.657  0.00  0.00    +0.000 A 
ATOM     23  N   UNL     1      49.967   4.311  18.600  0.00  0.00    +0.000 NA
ATOM     24  C   UNL     1      51.286   4.240  18.780  0.00  0.00    +0.000 A 
ATOM     25  N   UNL     1      52.216   4.919  18.118  0.00  0.00    +0.000 NA
ATOM     26  C   UNL     1      51.704   5.758  17.202  0.00  0.00    +0.000 A 
ATOM     27  S   UNL     1      52.756   6.698  16.258  0.00  0.00    +0.000 S 
ATOM     28  C   UNL     1      51.454   7.427  15.447  0.00  0.00    +0.000 A 
ATOM     29  C   UNL     1      50.206   6.985  15.871  0.00  0.00    +0.000 A 
ATOM     30  C   UNL     1      50.360   5.961  16.905  0.00  0.00    +0.000 A 
BRANCH  22  32
ATOM     31  C   UNL     1      47.696   4.109  16.563  0.00  0.00    +0.000 C 
ATOM     32  O   UNL     1      48.129   5.162  17.425  0.00  0.00    +0.000 OA
ENDBRANCH  22  32
ENDBRANCH  18  29
ENDBRANCH   1  20
TORSDOF 8
ENDMDL
MODEL 8
REMARK VINA RESULT:    -6.977      1.300      2.023
REMARK INTER + INTRA:         -11.496
REMARK INTER:                 -10.387
REMARK INTRA:                  -1.109
REMARK UNBOUND:                -1.256
REMARK  Name = 
REMARK  9 active torsions:
REMARK  status: ('A' for Active; 'I' for Inactive)
REMARK    1  A    between atoms: C_1  and  O_2
REMARK    2  A    between atoms: O_2  and  C_3
REMARK    3  A    between atoms: C_10  and  C_11
REMARK    4  A    between atoms: N_13  and  C_14
REMARK    5  A    between atoms: C_14  and  C_15
REMARK    6  A    between atoms: C_18  and  C_19
REMARK    7  A    between atoms: C_19  and  N_20
REMARK    8  A    between atoms: N_20  and  C_21
REMARK    9  A    between atoms: C_21  and  C_22
REMARK                            x       y       z     vdW  Elec       q    Type
REMARK                         _______ _______ _______ _____ _____    ______ ____
ROOT
ATOM      1  C   UNL     1      49.602   7.460  13.820  0.00  0.00    +0.000 C 
ENDROOT
BRANCH   1   2
ATOM      2  C   UNL     1      48.377   6.926  13.122  0.00  0.00    +0.000 A 
ATOM      3  C   UNL     1      47.593   5.924  13.708  0.00  0.00    +0.000 A 
ATOM      4  C   UNL     1      46.424   5.473  13.081  0.00  0.00    +0.000 A 
ATOM      5  C   UNL     1      46.011   6.015  11.855  0.00  0.00    +0.000 A 
ATOM      6  C   UNL     1      46.827   6.979  11.247  0.00  0.00    +0.000 A 
ATOM      7  C   UNL     1      48.000   7.423  11.868  0.00  0.00    +0.000 A 
BRANCH   5   8
ATOM      8  C   UNL     1      44.713   5.581  11.202  0.00  0.00    +0.000 C 
BRANCH   8   9
ATOM      9  N   UNL     1      44.926   5.204   9.806  0.00  0.00    +0.000 NA
ATOM     10  H   UNL     1      45.925   5.223   9.605  0.00  0.00    +0.000 HD
BRANCH   9  11
ATOM     11  C   UNL     1      44.412   3.867   9.501  0.00  0.00    +0.000 C 
BRANCH  11  12
ATOM     12  C   UNL     1      45.386   3.094   8.633  0.00  0.00    +0.000 A 
ATOM     13  C   UNL     1      45.543   1.705   8.767  0.00  0.00    +0.000 A 
ATOM     14  C   UNL     1      46.425   1.006   7.935  0.00  0.00    +0.000 A 
ATOM     15  C   UNL     1      47.159   1.685   6.963  0.00  0.00    +0.000 A 
ATOM     16  C   UNL     1      47.017   3.063   6.827  0.00  0.00    +0.000 A 
ATOM     17  C   UNL     1      46.135   3.762   7.654  0.00  0.00    +0.000 A 
ENDBRANCH  11  12
ENDBRANCH   9  11
ENDBRANCH   8   9
ENDBRANCH   5   8
ENDBRANCH   1   2
BRANCH   1  20
ATOM     18  C   UNL     1      50.167   7.068  16.177  0.00  0.00    +0.000 C 
ATOM     19  O   UNL     1      51.104   6.333  15.859  0.00  0.00    +0.000 OA
ATOM     20  N   UNL     1      49.374   7.652  15.231  0.00  0.00    +0.000 N 
ATOM     21  H   UNL     1      48.554   8.178  15.505  0.00  0.00    +0.000 HD
BRANCH  18  29
ATOM     22  C   UNL     1      47.866   5.822  18.424  0.00  0.00    +0.000 A 
ATOM     23  N   UNL     1      47.038   5.589  19.463  0.00  0.00    +0.000 NA
ATOM     24  C   UNL     1      47.205   6.297  20.580  0.00  0.00    +0.000 A 
ATOM     25  N   UNL     1      48.121   7.233  20.798  0.00  0.00    +0.000 NA
ATOM     26  C   UNL     1      48.914   7.453  19.736  0.00  0.00    +0.000 A 
ATOM     27  S   UNL     1      50.148   8.613  19.846  0.00  0.00    +0.000 S 
ATOM     28  C   UNL     1      50.627   8.325  18.242  0.00  0.00    +0.000 A 
ATOM     29  C   UNL     1      49.870   7.358  17.590  0.00  0.00    +0.000 A 
ATOM     30  C   UNL     1      48.860   6.815  18.500  0.00  0.00    +0.000 A 
BRANCH  22  32
ATOM     31  C   UNL     1      48.540   3.855  17.340  0.00  0.00    +0.000 C 
ATOM     32  O   UNL     1      47.735   5.032  17.298  0.00  0.00    +0.000 OA
ENDBRANCH  22  32
ENDBRANCH  18  29
ENDBRANCH   1  20
TORSDOF 8
ENDMDL
MODEL 9
REMARK VINA RESULT:    -6.774      3.266      5.141
REMARK INTER + INTRA:         -11.199
REMARK INTER:                 -10.053
REMARK INTRA:                  -1.146
REMARK UNBOUND:                -1.256
REMARK  Name = 
REMARK  9 active torsions:
REMARK  status: ('A' for Active; 'I' for Inactive)
REMARK    1  A    between atoms: C_1  and  O_2
REMARK    2  A    between atoms: O_2  and  C_3
REMARK    3  A    between atoms: C_10  and  C_11
REMARK    4  A    between atoms: N_13  and  C_14
REMARK    5  A    between atoms: C_14  and  C_15
REMARK    6  A    between atoms: C_18  and  C_19
REMARK    7  A    between atoms: C_19  and  N_20
REMARK    8  A    between atoms: N_20  and  C_21
REMARK    9  A    between atoms: C_21  and  C_22
REMARK                            x       y       z     vdW  Elec       q    Type
REMARK                         _______ _______ _______ _____ _____    ______ ____
ROOT
ATOM      1  C   UNL     1      48.019   6.927  14.608  0.00  0.00    +0.000 C 
ENDROOT
BRANCH   1   2
ATOM      2  C   UNL     1      47.172   6.170  13.617  0.00  0.00    +0.000 A 
ATOM      3  C   UNL     1      46.929   4.799  13.777  0.00  0.00    +0.000 A 
ATOM      4  C   UNL     1      46.094   4.114  12.884  0.00  0.00    +0.000 A 
ATOM      5  C   UNL     1      45.481   4.783  11.814  0.00  0.00    +0.000 A 
ATOM      6  C   UNL     1      45.770   6.142  11.628  0.00  0.00    +0.000 A 
ATOM      7  C   UNL     1      46.613   6.825  12.513  0.00  0.00    +0.000 A 
BRANCH   5   8
ATOM      8  C   UNL     1      44.523   4.063  10.884  0.00  0.00    +0.000 C 
BRANCH   8   9
ATOM      9  N   UNL     1      44.950   2.684  10.654  0.00  0.00    +0.000 NA
ATOM     10  H   UNL     1      44.597   2.097  11.408  0.00  0.00    +0.000 HD
BRANCH   9  11
ATOM     11  C   UNL     1      44.464   2.152   9.379  0.00  0.00    +0.000 C 
BRANCH  11  12
ATOM     12  C   UNL     1      45.531   2.249   8.306  0.00  0.00    +0.000 A 
ATOM     13  C   UNL     1      45.708   3.421   7.553  0.00  0.00    +0.000 A 
ATOM     14  C   UNL     1      46.718   3.500   6.588  0.00  0.00    +0.000 A 
ATOM     15  C   UNL     1      47.560   2.412   6.363  0.00  0.00    +0.000 A 
ATOM     16  C   UNL     1      47.388   1.242   7.098  0.00  0.00    +0.000 A 
ATOM     17  C   UNL     1      46.383   1.162   8.063  0.00  0.00    +0.000 A 
ENDBRANCH  11  12
ENDBRANCH   9  11
ENDBRANCH   8   9
ENDBRANCH   5   8
ENDBRANCH   1   2
BRANCH   1  20
ATOM     18  C   UNL     1      50.165   8.119  14.652  0.00  0.00    +0.000 C 
ATOM     19  O   UNL     1      49.796   8.807  15.605  0.00  0.00    +0.000 OA
ATOM     20  N   UNL     1      49.344   7.179  14.098  0.00  0.00    +0.000 N 
ATOM     21  H   UNL     1      49.625   6.686  13.260  0.00  0.00    +0.000 HD
BRANCH  18  29
ATOM     22  C   UNL     1      51.338   8.623  11.448  0.00  0.00    +0.000 A 
ATOM     23  N   UNL     1      52.065   8.731  10.317  0.00  0.00    +0.000 NA
ATOM     24  C   UNL     1      53.396   8.717  10.413  0.00  0.00    +0.000 A 
ATOM     25  N   UNL     1      54.111   8.609  11.527  0.00  0.00    +0.000 NA
ATOM     26  C   UNL     1      53.353   8.483  12.630  0.00  0.00    +0.000 A 
ATOM     27  S   UNL     1      54.107   8.342  14.144  0.00  0.00    +0.000 S 
ATOM     28  C   UNL     1      52.608   8.216  14.932  0.00  0.00    +0.000 A 
ATOM     29  C   UNL     1      51.513   8.272  14.078  0.00  0.00    +0.000 A 
ATOM     30  C   UNL     1      51.963   8.462  12.698  0.00  0.00    +0.000 A 
BRANCH  22  32
ATOM     31  C   UNL     1      49.476  10.048  11.481  0.00  0.00    +0.000 C 
ATOM     32  O   UNL     1      49.963   8.713  11.347  0.00  0.00    +0.000 OA
ENDBRANCH  22  32
ENDBRANCH  18  29
ENDBRANCH   1  20
TORSDOF 8
ENDMDL
