MODEL 1
REMARK VINA RESULT:    -8.463      0.000      0.000
REMARK INTER + INTRA:         -12.747
REMARK INTER:                 -11.431
REMARK INTRA:                  -1.316
REMARK UNBOUND:                -1.316
REMARK  Name = 
REMARK  7 active torsions:
REMARK  status: ('A' for Active; 'I' for Inactive)
REMARK    1  A    between atoms: C_1  and  O_2
REMARK    2  A    between atoms: O_2  and  C_3
REMARK    3  A    between atoms: C_5  and  C_6
REMARK    4  A    between atoms: C_11  and  O_12
REMARK    5  A    between atoms: O_12  and  C_13
REMARK    6  A    between atoms: C_13  and  C_14
REMARK    7  A    between atoms: C_18  and  C_19
REMARK                            x       y       z     vdW  Elec       q    Type
REMARK                         _______ _______ _______ _____ _____    ______ ____
ROOT
ATOM      1  O   UNL     1      44.081   6.472  12.713  0.00  0.00    +0.000 OA
ENDROOT
BRANCH   1   7
ATOM      2  C   UNL     1      46.390   5.709  13.313  0.00  0.00    +0.000 A 
ATOM      3  C   UNL     1      47.754   6.024  13.241  0.00  0.00    +0.000 A 
ATOM      4  C   UNL     1      48.206   7.197  12.615  0.00  0.00    +0.000 A 
ATOM      5  C   UNL     1      47.271   8.067  12.049  0.00  0.00    +0.000 A 
ATOM      6  C   UNL     1      45.908   7.761  12.120  0.00  0.00    +0.000 A 
ATOM      7  C   UNL     1      45.452   6.591  12.745  0.00  0.00    +0.000 A 
BRANCH   4   8
ATOM      8  C   UNL     1      49.680   7.434  12.591  0.00  0.00    +0.000 C 
ATOM      9  N   UNL     1      50.350   7.549  13.773  0.00  0.00    +0.000 N 
ATOM     10  O   UNL     1      50.292   7.527  11.531  0.00  0.00    +0.000 OA
ATOM     11  H   UNL     1      49.935   7.513  14.690  0.00  0.00    +0.000 HD
ATOM     12  H   UNL     1      51.348   7.722  13.712  0.00  0.00    +0.000 HD
ENDBRANCH   4   8
BRANCH   2  14
ATOM     13  C   UNL     1      46.393   3.317  13.297  0.00  0.00    +0.000 C 
ATOM     14  O   UNL     1      45.944   4.539  13.867  0.00  0.00    +0.000 OA
ENDBRANCH   2  14
ENDBRANCH   1   7
BRANCH   1  15
ATOM     15  C   UNL     1      43.470   6.173  11.461  0.00  0.00    +0.000 C 
BRANCH  15  16
ATOM     16  C   UNL     1      43.757   4.754  11.055  0.00  0.00    +0.000 A 
ATOM     17  C   UNL     1      43.127   3.690  11.683  0.00  0.00    +0.000 A 
ATOM     18  N   UNL     1      43.256   2.406  11.291  0.00  0.00    +0.000 NA
ATOM     19  C   UNL     1      44.058   2.171  10.222  0.00  0.00    +0.000 A 
ATOM     20  C   UNL     1      44.770   3.144   9.515  0.00  0.00    +0.000 A 
ATOM     21  C   UNL     1      44.593   4.461   9.967  0.00  0.00    +0.000 A 
BRANCH  20  22
ATOM     22  C   UNL     1      45.656   2.815   8.374  0.00  0.00    +0.000 A 
ATOM     23  C   UNL     1      45.989   3.774   7.395  0.00  0.00    +0.000 A 
ATOM     24  C   UNL     1      46.862   3.473   6.344  0.00  0.00    +0.000 A 
ATOM     25  C   UNL     1      47.404   2.200   6.247  0.00  0.00    +0.000 A 
ATOM     26  F   UNL     1      48.245   1.913   5.247  0.00  0.00    +0.000 F 
ATOM     27  C   UNL     1      47.085   1.224   7.178  0.00  0.00    +0.000 A 
ATOM     28  C   UNL     1      46.221   1.530   8.235  0.00  0.00    +0.000 A 
ENDBRANCH  20  22
ENDBRANCH  15  16
ENDBRANCH   1  15
TORSDOF 6
ENDMDL
MODEL 2
REMARK VINA RESULT:    -7.869      1.089      2.095
REMARK INTER + INTRA:         -11.945
REMARK INTER:                 -11.029
REMARK INTRA:                  -0.916
REMARK UNBOUND:                -1.316
REMARK  Name = 
REMARK  7 active torsions:
REMARK  status: ('A' for Active; 'I' for Inactive)
REMARK    1  A    between atoms: C_1  and  O_2
REMARK    2  A    between atoms: O_2  and  C_3
REMARK    3  A    between atoms: C_5  and  C_6
REMARK    4  A    between atoms: C_11  and  O_12
REMARK    5  A    between atoms: O_12  and  C_13
REMARK    6  A    between atoms: C_13  and  C_14
REMARK    7  A    between atoms: C_18  and  C_19
REMARK                            x       y       z     vdW  Elec       q    Type
REMARK                         _______ _______ _______ _____ _____    ______ ____
ROOT
ATOM      1  O   UNL     1      44.623   6.435  12.819  0.00  0.00    +0.000 OA
ENDROOT
BRANCH   1   7
ATOM      2  C   UNL     1      46.323   8.252  12.527  0.00  0.00    +0.000 A 
ATOM      3  C   UNL     1      47.694   8.539  12.485  0.00  0.00    +0.000 A 
ATOM      4  C   UNL     1      48.662   7.536  12.658  0.00  0.00    +0.000 A 
ATOM      5  C   UNL     1      48.244   6.223  12.881  0.00  0.00    +0.000 A 
ATOM      6  C   UNL     1      46.877   5.927  12.921  0.00  0.00    +0.000 A 
ATOM      7  C   UNL     1      45.907   6.925  12.748  0.00  0.00    +0.000 A 
BRANCH   4   8
ATOM      8  C   UNL     1      50.095   7.952  12.598  0.00  0.00    +0.000 C 
ATOM      9  N   UNL     1      50.885   7.458  11.602  0.00  0.00    +0.000 N 
ATOM     10  O   UNL     1      50.568   8.725  13.426  0.00  0.00    +0.000 OA
ATOM     11  H   UNL     1      50.597   6.802  10.894  0.00  0.00    +0.000 HD
ATOM     12  H   UNL     1      51.854   7.756  11.605  0.00  0.00    +0.000 HD
ENDBRANCH   4   8
BRANCH   2  14
ATOM     13  C   UNL     1      45.752  10.468  11.829  0.00  0.00    +0.000 C 
ATOM     14  O   UNL     1      45.372   9.232  12.419  0.00  0.00    +0.000 OA
ENDBRANCH   2  14
ENDBRANCH   1   7
BRANCH   1  15
ATOM     15  C   UNL     1      43.915   6.251  11.597  0.00  0.00    +0.000 C 
BRANCH  15  16
ATOM     16  C   UNL     1      44.042   4.831  11.117  0.00  0.00    +0.000 A 
ATOM     17  C   UNL     1      43.293   3.814  11.690  0.00  0.00    +0.000 A 
ATOM     18  N   UNL     1      43.279   2.545  11.232  0.00  0.00    +0.000 NA
ATOM     19  C   UNL     1      44.054   2.277  10.151  0.00  0.00    +0.000 A 
ATOM     20  C   UNL     1      44.874   3.199   9.494  0.00  0.00    +0.000 A 
ATOM     21  C   UNL     1      44.845   4.502  10.014  0.00  0.00    +0.000 A 
BRANCH  20  22
ATOM     22  C   UNL     1      45.722   2.831   8.338  0.00  0.00    +0.000 A 
ATOM     23  C   UNL     1      46.046   3.764   7.330  0.00  0.00    +0.000 A 
ATOM     24  C   UNL     1      46.885   3.427   6.263  0.00  0.00    +0.000 A 
ATOM     25  C   UNL     1      47.400   2.142   6.177  0.00  0.00    +0.000 A 
ATOM     26  F   UNL     1      48.209   1.820   5.160  0.00  0.00    +0.000 F 
ATOM     27  C   UNL     1      47.090   1.190   7.135  0.00  0.00    +0.000 A 
ATOM     28  C   UNL     1      46.260   1.533   8.208  0.00  0.00    +0.000 A 
ENDBRANCH  20  22
ENDBRANCH  15  16
ENDBRANCH   1  15
TORSDOF 6
ENDMDL
MODEL 3
REMARK VINA RESULT:    -7.222      2.614      3.438
REMARK INTER + INTRA:         -11.070
REMARK INTER:                 -10.301
REMARK INTRA:                  -0.769
REMARK UNBOUND:                -1.316
REMARK  Name = 
REMARK  7 active torsions:
REMARK  status: ('A' for Active; 'I' for Inactive)
REMARK    1  A    between atoms: C_1  and  O_2
REMARK    2  A    between atoms: O_2  and  C_3
REMARK    3  A    between atoms: C_5  and  C_6
REMARK    4  A    between atoms: C_11  and  O_12
REMARK    5  A    between atoms: O_12  and  C_13
REMARK    6  A    between atoms: C_13  and  C_14
REMARK    7  A    between atoms: C_18  and  C_19
REMARK                            x       y       z     vdW  Elec       q    Type
REMARK                         _______ _______ _______ _____ _____    ______ ____
ROOT
ATOM      1  O   UNL     1      46.629   5.553  13.097  0.00  0.00    +0.000 OA
ENDROOT
BRANCH   1   7
ATOM      2  C   UNL     1      48.155   6.288  14.942  0.00  0.00    +0.000 A 
ATOM      3  C   UNL     1      48.694   5.940  16.188  0.00  0.00    +0.000 A 
ATOM      4  C   UNL     1      48.360   4.732  16.823  0.00  0.00    +0.000 A 
ATOM      5  C   UNL     1      47.468   3.861  16.195  0.00  0.00    +0.000 A 
ATOM      6  C   UNL     1      46.929   4.200  14.949  0.00  0.00    +0.000 A 
ATOM      7  C   UNL     1      47.259   5.405  14.311  0.00  0.00    +0.000 A 
BRANCH   4   8
ATOM      8  C   UNL     1      48.988   4.461  18.150  0.00  0.00    +0.000 C 
ATOM      9  N   UNL     1      48.210   3.984  19.164  0.00  0.00    +0.000 N 
ATOM     10  O   UNL     1      50.184   4.660  18.341  0.00  0.00    +0.000 OA
ATOM     11  H   UNL     1      47.219   3.813  19.114  0.00  0.00    +0.000 HD
ATOM     12  H   UNL     1      48.673   3.825  20.052  0.00  0.00    +0.000 HD
ENDBRANCH   4   8
BRANCH   2  14
ATOM     13  C   UNL     1      49.491   7.543  13.404  0.00  0.00    +0.000 C 
ATOM     14  O   UNL     1      48.427   7.490  14.344  0.00  0.00    +0.000 OA
ENDBRANCH   2  14
ENDBRANCH   1   7
BRANCH   1  15
ATOM     15  C   UNL     1      45.209   5.447  13.069  0.00  0.00    +0.000 C 
BRANCH  15  16
ATOM     16  C   UNL     1      44.776   4.344  12.142  0.00  0.00    +0.000 A 
ATOM     17  C   UNL     1      43.638   3.597  12.404  0.00  0.00    +0.000 A 
ATOM     18  N   UNL     1      43.136   2.674  11.559  0.00  0.00    +0.000 NA
ATOM     19  C   UNL     1      43.807   2.483  10.395  0.00  0.00    +0.000 A 
ATOM     20  C   UNL     1      44.978   3.147  10.017  0.00  0.00    +0.000 A 
ATOM     21  C   UNL     1      45.449   4.098  10.936  0.00  0.00    +0.000 A 
BRANCH  20  22
ATOM     22  C   UNL     1      45.680   2.867   8.744  0.00  0.00    +0.000 A 
ATOM     23  C   UNL     1      45.972   3.891   7.818  0.00  0.00    +0.000 A 
ATOM     24  C   UNL     1      46.676   3.631   6.638  0.00  0.00    +0.000 A 
ATOM     25  C   UNL     1      47.084   2.336   6.355  0.00  0.00    +0.000 A 
ATOM     26  F   UNL     1      47.764   2.087   5.229  0.00  0.00    +0.000 F 
ATOM     27  C   UNL     1      46.798   1.298   7.228  0.00  0.00    +0.000 A 
ATOM     28  C   UNL     1      46.105   1.563   8.415  0.00  0.00    +0.000 A 
ENDBRANCH  20  22
ENDBRANCH  15  16
ENDBRANCH   1  15
TORSDOF 6
ENDMDL
MODEL 4
REMARK VINA RESULT:    -7.183      3.559      6.698
REMARK INTER + INTRA:         -11.018
REMARK INTER:                 -10.862
REMARK INTRA:                  -0.156
REMARK UNBOUND:                -1.316
REMARK  Name = 
REMARK  7 active torsions:
REMARK  status: ('A' for Active; 'I' for Inactive)
REMARK    1  A    between atoms: C_1  and  O_2
REMARK    2  A    between atoms: O_2  and  C_3
REMARK    3  A    between atoms: C_5  and  C_6
REMARK    4  A    between atoms: C_11  and  O_12
REMARK    5  A    between atoms: O_12  and  C_13
REMARK    6  A    between atoms: C_13  and  C_14
REMARK    7  A    between atoms: C_18  and  C_19
REMARK                            x       y       z     vdW  Elec       q    Type
REMARK                         _______ _______ _______ _____ _____    ______ ____
ROOT
ATOM      1  O   UNL     1      43.952   4.890  10.348  0.00  0.00    +0.000 OA
ENDROOT
BRANCH   1   7
ATOM      2  C   UNL     1      44.661   2.614   9.578  0.00  0.00    +0.000 A 
ATOM      3  C   UNL     1      45.511   1.912   8.713  0.00  0.00    +0.000 A 
ATOM      4  C   UNL     1      46.394   2.579   7.847  0.00  0.00    +0.000 A 
ATOM      5  C   UNL     1      46.419   3.975   7.850  0.00  0.00    +0.000 A 
ATOM      6  C   UNL     1      45.576   4.683   8.714  0.00  0.00    +0.000 A 
ATOM      7  C   UNL     1      44.693   4.021   9.580  0.00  0.00    +0.000 A 
BRANCH   4   8
ATOM      8  C   UNL     1      47.253   1.736   6.965  0.00  0.00    +0.000 C 
ATOM      9  N   UNL     1      48.283   2.322   6.289  0.00  0.00    +0.000 N 
ATOM     10  O   UNL     1      47.048   0.533   6.838  0.00  0.00    +0.000 OA
ATOM     11  H   UNL     1      48.516   3.302   6.308  0.00  0.00    +0.000 HD
ATOM     12  H   UNL     1      48.834   1.716   5.692  0.00  0.00    +0.000 HD
ENDBRANCH   4   8
BRANCH   2  14
ATOM     13  C   UNL     1      43.483   2.533  11.660  0.00  0.00    +0.000 C 
ATOM     14  O   UNL     1      43.754   1.974  10.381  0.00  0.00    +0.000 OA
ENDBRANCH   2  14
ENDBRANCH   1   7
BRANCH   1  15
ATOM     15  C   UNL     1      44.519   6.162  10.644  0.00  0.00    +0.000 C 
BRANCH  15  16
ATOM     16  C   UNL     1      45.489   6.060  11.789  0.00  0.00    +0.000 A 
ATOM     17  C   UNL     1      45.227   5.237  12.874  0.00  0.00    +0.000 A 
ATOM     18  N   UNL     1      46.104   5.016  13.875  0.00  0.00    +0.000 NA
ATOM     19  C   UNL     1      47.300   5.652  13.791  0.00  0.00    +0.000 A 
ATOM     20  C   UNL     1      47.683   6.525  12.769  0.00  0.00    +0.000 A 
ATOM     21  C   UNL     1      46.730   6.712  11.754  0.00  0.00    +0.000 A 
BRANCH  20  22
ATOM     22  C   UNL     1      48.994   7.212  12.755  0.00  0.00    +0.000 A 
ATOM     23  C   UNL     1      49.612   7.604  11.548  0.00  0.00    +0.000 A 
ATOM     24  C   UNL     1      50.829   8.294  11.540  0.00  0.00    +0.000 A 
ATOM     25  C   UNL     1      51.457   8.588  12.740  0.00  0.00    +0.000 A 
ATOM     26  F   UNL     1      52.618   9.255  12.735  0.00  0.00    +0.000 F 
ATOM     27  C   UNL     1      50.894   8.202  13.946  0.00  0.00    +0.000 A 
ATOM     28  C   UNL     1      49.670   7.523  13.953  0.00  0.00    +0.000 A 
ENDBRANCH  20  22
ENDBRANCH  15  16
ENDBRANCH   1  15
TORSDOF 6
ENDMDL
MODEL 5
REMARK VINA RESULT:    -7.158      2.315      3.067
REMARK INTER + INTRA:         -10.984
REMARK INTER:                 -10.392
REMARK INTRA:                  -0.593
REMARK UNBOUND:                -1.316
REMARK  Name = 
REMARK  7 active torsions:
REMARK  status: ('A' for Active; 'I' for Inactive)
REMARK    1  A    between atoms: C_1  and  O_2
REMARK    2  A    between atoms: O_2  and  C_3
REMARK    3  A    between atoms: C_5  and  C_6
REMARK    4  A    between atoms: C_11  and  O_12
REMARK    5  A    between atoms: O_12  and  C_13
REMARK    6  A    between atoms: C_13  and  C_14
REMARK    7  A    between atoms: C_18  and  C_19
REMARK                            x       y       z     vdW  Elec       q    Type
REMARK                         _______ _______ _______ _____ _____    ______ ____
ROOT
ATOM      1  O   UNL     1      46.497   5.331  12.858  0.00  0.00    +0.000 OA
ENDROOT
BRANCH   1   7
ATOM      2  C   UNL     1      46.697   7.794  13.266  0.00  0.00    +0.000 A 
ATOM      3  C   UNL     1      46.181   9.054  12.934  0.00  0.00    +0.000 A 
ATOM      4  C   UNL     1      45.125   9.200  12.019  0.00  0.00    +0.000 A 
ATOM      5  C   UNL     1      44.582   8.059  11.425  0.00  0.00    +0.000 A 
ATOM      6  C   UNL     1      45.090   6.797  11.754  0.00  0.00    +0.000 A 
ATOM      7  C   UNL     1      46.143   6.647  12.667  0.00  0.00    +0.000 A 
BRANCH   4   8
ATOM      8  C   UNL     1      44.654  10.587  11.734  0.00  0.00    +0.000 C 
ATOM      9  N   UNL     1      43.373  10.929  12.056  0.00  0.00    +0.000 N 
ATOM     10  O   UNL     1      45.395  11.418  11.218  0.00  0.00    +0.000 OA
ATOM     11  H   UNL     1      42.684  10.315  12.458  0.00  0.00    +0.000 HD
ATOM     12  H   UNL     1      43.090  11.878  11.835  0.00  0.00    +0.000 HD
ENDBRANCH   4   8
BRANCH   2  14
ATOM     13  C   UNL     1      49.069   7.635  13.541  0.00  0.00    +0.000 C 
ATOM     14  O   UNL     1      47.766   7.647  14.110  0.00  0.00    +0.000 OA
ENDBRANCH   2  14
ENDBRANCH   1   7
BRANCH   1  15
ATOM     15  C   UNL     1      45.498   4.439  13.344  0.00  0.00    +0.000 C 
BRANCH  15  16
ATOM     16  C   UNL     1      44.945   3.600  12.224  0.00  0.00    +0.000 A 
ATOM     17  C   UNL     1      43.697   3.005  12.327  0.00  0.00    +0.000 A 
ATOM     18  N   UNL     1      43.100   2.337  11.319  0.00  0.00    +0.000 NA
ATOM     19  C   UNL     1      43.787   2.253  10.151  0.00  0.00    +0.000 A 
ATOM     20  C   UNL     1      45.059   2.783   9.920  0.00  0.00    +0.000 A 
ATOM     21  C   UNL     1      45.627   3.470  11.005  0.00  0.00    +0.000 A 
BRANCH  20  22
ATOM     22  C   UNL     1      45.767   2.627   8.629  0.00  0.00    +0.000 A 
ATOM     23  C   UNL     1      45.972   3.719   7.760  0.00  0.00    +0.000 A 
ATOM     24  C   UNL     1      46.681   3.579   6.562  0.00  0.00    +0.000 A 
ATOM     25  C   UNL     1      47.183   2.336   6.206  0.00  0.00    +0.000 A 
ATOM     26  F   UNL     1      47.868   2.202   5.064  0.00  0.00    +0.000 F 
ATOM     27  C   UNL     1      46.986   1.234   7.022  0.00  0.00    +0.000 A 
ATOM     28  C   UNL     1      46.287   1.380   8.226  0.00  0.00    +0.000 A 
ENDBRANCH  20  22
ENDBRANCH  15  16
ENDBRANCH   1  15
TORSDOF 6
ENDMDL
MODEL 6
REMARK VINA RESULT:    -6.495      3.939      5.544
REMARK INTER + INTRA:         -10.089
REMARK INTER:                  -9.215
REMARK INTRA:                  -0.875
REMARK UNBOUND:                -1.316
REMARK  Name = 
REMARK  7 active torsions:
REMARK  status: ('A' for Active; 'I' for Inactive)
REMARK    1  A    between atoms: C_1  and  O_2
REMARK    2  A    between atoms: O_2  and  C_3
REMARK    3  A    between atoms: C_5  and  C_6
REMARK    4  A    between atoms: C_11  and  O_12
REMARK    5  A    between atoms: O_12  and  C_13
REMARK    6  A    between atoms: C_13  and  C_14
REMARK    7  A    between atoms: C_18  and  C_19
REMARK                            x       y       z     vdW  Elec       q    Type
REMARK                         _______ _______ _______ _____ _____    ______ ____
ROOT
ATOM      1  O   UNL     1      49.047   6.174  14.745  0.00  0.00    +0.000 OA
ENDROOT
BRANCH   1   7
ATOM      2  C   UNL     1      48.250   4.850  16.716  0.00  0.00    +0.000 A 
ATOM      3  C   UNL     1      47.946   4.904  18.083  0.00  0.00    +0.000 A 
ATOM      4  C   UNL     1      48.083   6.092  18.821  0.00  0.00    +0.000 A 
ATOM      5  C   UNL     1      48.537   7.242  18.174  0.00  0.00    +0.000 A 
ATOM      6  C   UNL     1      48.840   7.197  16.808  0.00  0.00    +0.000 A 
ATOM      7  C   UNL     1      48.704   6.014  16.068  0.00  0.00    +0.000 A 
BRANCH   4   8
ATOM      8  C   UNL     1      47.735   6.038  20.272  0.00  0.00    +0.000 C 
ATOM      9  N   UNL     1      47.909   4.868  20.950  0.00  0.00    +0.000 N 
ATOM     10  O   UNL     1      47.298   7.024  20.858  0.00  0.00    +0.000 OA
ATOM     11  H   UNL     1      48.236   4.002  20.554  0.00  0.00    +0.000 HD
ATOM     12  H   UNL     1      47.649   4.871  21.931  0.00  0.00    +0.000 HD
ENDBRANCH   4   8
BRANCH   2  14
ATOM     13  C   UNL     1      48.561   2.478  16.652  0.00  0.00    +0.000 C 
ATOM     14  O   UNL     1      48.178   3.683  16.002  0.00  0.00    +0.000 OA
ENDBRANCH   2  14
ENDBRANCH   1   7
BRANCH   1  15
ATOM     15  C   UNL     1      48.823   7.449  14.151  0.00  0.00    +0.000 C 
BRANCH  15  16
ATOM     16  C   UNL     1      47.501   7.477  13.434  0.00  0.00    +0.000 A 
ATOM     17  C   UNL     1      46.700   8.609  13.457  0.00  0.00    +0.000 A 
ATOM     18  N   UNL     1      45.561   8.736  12.746  0.00  0.00    +0.000 NA
ATOM     19  C   UNL     1      45.201   7.677  11.976  0.00  0.00    +0.000 A 
ATOM     20  C   UNL     1      45.900   6.471  11.880  0.00  0.00    +0.000 A 
ATOM     21  C   UNL     1      47.078   6.400  12.641  0.00  0.00    +0.000 A 
BRANCH  20  22
ATOM     22  C   UNL     1      45.433   5.341  11.044  0.00  0.00    +0.000 A 
ATOM     23  C   UNL     1      45.592   5.342   9.642  0.00  0.00    +0.000 A 
ATOM     24  C   UNL     1      45.191   4.254   8.860  0.00  0.00    +0.000 A 
ATOM     25  C   UNL     1      44.608   3.153   9.467  0.00  0.00    +0.000 A 
ATOM     26  F   UNL     1      44.231   2.107   8.721  0.00  0.00    +0.000 F 
ATOM     27  C   UNL     1      44.415   3.121  10.839  0.00  0.00    +0.000 A 
ATOM     28  C   UNL     1      44.828   4.206  11.621  0.00  0.00    +0.000 A 
ENDBRANCH  20  22
ENDBRANCH  15  16
ENDBRANCH   1  15
TORSDOF 6
ENDMDL
MODEL 7
REMARK VINA RESULT:    -6.236      5.263      8.545
REMARK INTER + INTRA:          -9.739
REMARK INTER:                  -8.691
REMARK INTRA:                  -1.048
REMARK UNBOUND:                -1.316
REMARK  Name = 
REMARK  7 active torsions:
REMARK  status: ('A' for Active; 'I' for Inactive)
REMARK    1  A    between atoms: C_1  and  O_2
REMARK    2  A    between atoms: O_2  and  C_3
REMARK    3  A    between atoms: C_5  and  C_6
REMARK    4  A    between atoms: C_11  and  O_12
REMARK    5  A    between atoms: O_12  and  C_13
REMARK    6  A    between atoms: C_13  and  C_14
REMARK    7  A    between atoms: C_18  and  C_19
REMARK                            x       y       z     vdW  Elec       q    Type
REMARK                         _______ _______ _______ _____ _____    ______ ____
ROOT
ATOM      1  O   UNL     1      48.870   6.508  14.303  0.00  0.00    +0.000 OA
ENDROOT
BRANCH   1   7
ATOM      2  C   UNL     1      46.914   4.963  14.060  0.00  0.00    +0.000 A 
ATOM      3  C   UNL     1      45.624   4.825  13.530  0.00  0.00    +0.000 A 
ATOM      4  C   UNL     1      45.006   5.867  12.818  0.00  0.00    +0.000 A 
ATOM      5  C   UNL     1      45.695   7.067  12.640  0.00  0.00    +0.000 A 
ATOM      6  C   UNL     1      46.985   7.211  13.163  0.00  0.00    +0.000 A 
ATOM      7  C   UNL     1      47.606   6.174  13.873  0.00  0.00    +0.000 A 
BRANCH   4   8
ATOM      8  C   UNL     1      43.629   5.616  12.300  0.00  0.00    +0.000 C 
ATOM      9  N   UNL     1      43.290   6.090  11.066  0.00  0.00    +0.000 N 
ATOM     10  O   UNL     1      42.802   4.995  12.962  0.00  0.00    +0.000 OA
ATOM     11  H   UNL     1      43.887   6.629  10.460  0.00  0.00    +0.000 HD
ATOM     12  H   UNL     1      42.342   5.908  10.757  0.00  0.00    +0.000 HD
ENDBRANCH   4   8
BRANCH   2  14
ATOM     13  C   UNL     1      47.127   3.862  16.173  0.00  0.00    +0.000 C 
ATOM     14  O   UNL     1      47.501   3.976  14.807  0.00  0.00    +0.000 OA
ENDBRANCH   2  14
ENDBRANCH   1   7
BRANCH   1  15
ATOM     15  C   UNL     1      48.981   7.420  15.392  0.00  0.00    +0.000 C 
BRANCH  15  16
ATOM     16  C   UNL     1      49.324   6.692  16.663  0.00  0.00    +0.000 A 
ATOM     17  C   UNL     1      48.756   7.062  17.873  0.00  0.00    +0.000 A 
ATOM     18  N   UNL     1      48.935   6.381  19.023  0.00  0.00    +0.000 NA
ATOM     19  C   UNL     1      49.723   5.278  18.964  0.00  0.00    +0.000 A 
ATOM     20  C   UNL     1      50.374   4.809  17.820  0.00  0.00    +0.000 A 
ATOM     21  C   UNL     1      50.147   5.557  16.653  0.00  0.00    +0.000 A 
BRANCH  20  22
ATOM     22  C   UNL     1      51.249   3.614  17.832  0.00  0.00    +0.000 A 
ATOM     23  C   UNL     1      52.574   3.671  18.314  0.00  0.00    +0.000 A 
ATOM     24  C   UNL     1      53.382   2.531  18.366  0.00  0.00    +0.000 A 
ATOM     25  C   UNL     1      52.883   1.316  17.921  0.00  0.00    +0.000 A 
ATOM     26  F   UNL     1      53.653   0.222  17.978  0.00  0.00    +0.000 F 
ATOM     27  C   UNL     1      51.594   1.222  17.421  0.00  0.00    +0.000 A 
ATOM     28  C   UNL     1      50.782   2.362  17.381  0.00  0.00    +0.000 A 
ENDBRANCH  20  22
ENDBRANCH  15  16
ENDBRANCH   1  15
TORSDOF 6
ENDMDL
MODEL 8
REMARK VINA RESULT:    -6.054      4.755      7.089
REMARK INTER + INTRA:          -9.494
REMARK INTER:                  -8.562
REMARK INTRA:                  -0.932
REMARK UNBOUND:                -1.316
REMARK  Name = 
REMARK  7 active torsions:
REMARK  status: ('A' for Active; 'I' for Inactive)
REMARK    1  A    between atoms: C_1  and  O_2
REMARK    2  A    between atoms: O_2  and  C_3
REMARK    3  A    between atoms: C_5  and  C_6
REMARK    4  A    between atoms: C_11  and  O_12
REMARK    5  A    between atoms: O_12  and  C_13
REMARK    6  A    between atoms: C_13  and  C_14
REMARK    7  A    between atoms: C_18  and  C_19
REMARK                            x       y       z     vdW  Elec       q    Type
REMARK                         _______ _______ _______ _____ _____    ______ ____
ROOT
ATOM      1  O   UNL     1      49.108   5.794  17.014  0.00  0.00    +0.000 OA
ENDROOT
BRANCH   1   7
ATOM      2  C   UNL     1      49.509   3.322  17.014  0.00  0.00    +0.000 A 
ATOM      3  C   UNL     1      50.450   2.316  17.272  0.00  0.00    +0.000 A 
ATOM      4  C   UNL     1      51.749   2.618  17.715  0.00  0.00    +0.000 A 
ATOM      5  C   UNL     1      52.107   3.955  17.898  0.00  0.00    +0.000 A 
ATOM      6  C   UNL     1      51.172   4.965  17.645  0.00  0.00    +0.000 A 
ATOM      7  C   UNL     1      49.875   4.668  17.203  0.00  0.00    +0.000 A 
BRANCH   4   8
ATOM      8  C   UNL     1      52.672   1.471  17.958  0.00  0.00    +0.000 C 
ATOM      9  N   UNL     1      52.500   0.322  17.244  0.00  0.00    +0.000 N 
ATOM     10  O   UNL     1      53.577   1.546  18.784  0.00  0.00    +0.000 OA
ATOM     11  H   UNL     1      51.775   0.154  16.565  0.00  0.00    +0.000 HD
ATOM     12  H   UNL     1      53.141  -0.437  17.448  0.00  0.00    +0.000 HD
ENDBRANCH   4   8
BRANCH   2  14
ATOM     13  C   UNL     1      47.180   2.986  17.444  0.00  0.00    +0.000 C 
ATOM     14  O   UNL     1      48.262   3.040  16.523  0.00  0.00    +0.000 OA
ENDBRANCH   2  14
ENDBRANCH   1   7
BRANCH   1  15
ATOM     15  C   UNL     1      49.732   6.930  16.423  0.00  0.00    +0.000 C 
BRANCH  15  16
ATOM     16  C   UNL     1      49.312   7.080  14.986  0.00  0.00    +0.000 A 
ATOM     17  C   UNL     1      50.118   7.741  14.072  0.00  0.00    +0.000 A 
ATOM     18  N   UNL     1      49.853   7.811  12.751  0.00  0.00    +0.000 NA
ATOM     19  C   UNL     1      48.723   7.193  12.322  0.00  0.00    +0.000 A 
ATOM     20  C   UNL     1      47.812   6.515  13.137  0.00  0.00    +0.000 A 
ATOM     21  C   UNL     1      48.144   6.473  14.500  0.00  0.00    +0.000 A 
BRANCH  20  22
ATOM     22  C   UNL     1      46.579   5.890  12.606  0.00  0.00    +0.000 A 
ATOM     23  C   UNL     1      45.743   5.096  13.420  0.00  0.00    +0.000 A 
ATOM     24  C   UNL     1      44.555   4.545  12.929  0.00  0.00    +0.000 A 
ATOM     25  C   UNL     1      44.192   4.764  11.609  0.00  0.00    +0.000 A 
ATOM     26  F   UNL     1      43.052   4.243  11.140  0.00  0.00    +0.000 F 
ATOM     27  C   UNL     1      44.997   5.520  10.771  0.00  0.00    +0.000 A 
ATOM     28  C   UNL     1      46.179   6.081  11.268  0.00  0.00    +0.000 A 
ENDBRANCH  20  22
ENDBRANCH  15  16
ENDBRANCH   1  15
TORSDOF 6
ENDMDL
MODEL 9
REMARK VINA RESULT:    -5.892      5.710      8.958
REMARK INTER + INTRA:          -9.274
REMARK INTER:                  -8.566
REMARK INTRA:                  -0.709
REMARK UNBOUND:                -1.316
REMARK  Name = 
REMARK  7 active torsions:
REMARK  status: ('A' for Active; 'I' for Inactive)
REMARK    1  A    between atoms: C_1  and  O_2
REMARK    2  A    between atoms: O_2  and  C_3
REMARK    3  A    between atoms: C_5  and  C_6
REMARK    4  A    between atoms: C_11  and  O_12
REMARK    5  A    between atoms: O_12  and  C_13
REMARK    6  A    between atoms: C_13  and  C_14
REMARK    7  A    between atoms: C_18  and  C_19
REMARK                            x       y       z     vdW  Elec       q    Type
REMARK                         _______ _______ _______ _____ _____    ______ ____
ROOT
ATOM      1  O   UNL     1      47.819   5.147  14.749  0.00  0.00    +0.000 OA
ENDROOT
BRANCH   1   7
ATOM      2  C   UNL     1      46.425   5.957  12.833  0.00  0.00    +0.000 A 
ATOM      3  C   UNL     1      45.521   5.572  11.832  0.00  0.00    +0.000 A 
ATOM      4  C   UNL     1      45.114   4.236  11.682  0.00  0.00    +0.000 A 
ATOM      5  C   UNL     1      45.626   3.271  12.551  0.00  0.00    +0.000 A 
ATOM      6  C   UNL     1      46.526   3.647  13.554  0.00  0.00    +0.000 A 
ATOM      7  C   UNL     1      46.935   4.980  13.708  0.00  0.00    +0.000 A 
BRANCH   4   8
ATOM      8  C   UNL     1      44.151   3.935  10.582  0.00  0.00    +0.000 C 
ATOM      9  N   UNL     1      44.167   4.710   9.459  0.00  0.00    +0.000 N 
ATOM     10  O   UNL     1      43.350   3.009  10.673  0.00  0.00    +0.000 OA
ATOM     11  H   UNL     1      44.766   5.504   9.302  0.00  0.00    +0.000 HD
ATOM     12  H   UNL     1      43.488   4.479   8.742  0.00  0.00    +0.000 HD
ENDBRANCH   4   8
BRANCH   2  14
ATOM     13  C   UNL     1      48.015   7.625  12.189  0.00  0.00    +0.000 C 
ATOM     14  O   UNL     1      46.874   7.246  12.948  0.00  0.00    +0.000 OA
ENDBRANCH   2  14
ENDBRANCH   1   7
BRANCH   1  15
ATOM     15  C   UNL     1      47.486   4.557  16.003  0.00  0.00    +0.000 C 
BRANCH  15  16
ATOM     16  C   UNL     1      48.615   4.720  16.983  0.00  0.00    +0.000 A 
ATOM     17  C   UNL     1      48.599   5.733  17.929  0.00  0.00    +0.000 A 
ATOM     18  N   UNL     1      49.522   5.863  18.904  0.00  0.00    +0.000 NA
ATOM     19  C   UNL     1      50.513   4.937  18.934  0.00  0.00    +0.000 A 
ATOM     20  C   UNL     1      50.662   3.882  18.029  0.00  0.00    +0.000 A 
ATOM     21  C   UNL     1      49.670   3.797  17.040  0.00  0.00    +0.000 A 
BRANCH  20  22
ATOM     22  C   UNL     1      51.789   2.923  18.099  0.00  0.00    +0.000 A 
ATOM     23  C   UNL     1      52.985   3.235  18.779  0.00  0.00    +0.000 A 
ATOM     24  C   UNL     1      54.030   2.311  18.883  0.00  0.00    +0.000 A 
ATOM     25  C   UNL     1      53.902   1.064  18.291  0.00  0.00    +0.000 A 
ATOM     26  F   UNL     1      54.898   0.175  18.395  0.00  0.00    +0.000 F 
ATOM     27  C   UNL     1      52.752   0.726  17.595  0.00  0.00    +0.000 A 
ATOM     28  C   UNL     1      51.703   1.648  17.504  0.00  0.00    +0.000 A 
ENDBRANCH  20  22
ENDBRANCH  15  16
ENDBRANCH   1  15
TORSDOF 6
ENDMDL
