MODEL 1
REMARK VINA RESULT:    -8.422      0.000      0.000
REMARK INTER + INTRA:         -11.838
REMARK INTER:                 -10.883
REMARK INTRA:                  -0.955
REMARK UNBOUND:                -0.955
REMARK  Name = 
REMARK  5 active torsions:
REMARK  status: ('A' for Active; 'I' for Inactive)
REMARK    1  A    between atoms: C_2  and  C_3
REMARK    2  A    between atoms: C_6  and  N_7
REMARK    3  A    between atoms: N_7  and  C_8
REMARK    4  A    between atoms: C_8  and  C_9
REMARK    5  A    between atoms: C_13  and  C_14
REMARK                            x       y       z     vdW  Elec       q    Type
REMARK                         _______ _______ _______ _____ _____    ______ ____
ROOT
ATOM      1  C   UNL     1      43.885   5.017  11.164  0.00  0.00    +0.000 C 
ATOM      2  C   UNL     1      42.608   5.113  11.989  0.00  0.00    +0.000 C 
ATOM      3  C   UNL     1      42.985   6.227  11.070  0.00  0.00    +0.000 C 
ENDROOT
BRANCH   1   4
ATOM      4  C   UNL     1      45.234   5.148  11.854  0.00  0.00    +0.000 A 
ATOM      5  C   UNL     1      45.609   4.328  12.927  0.00  0.00    +0.000 A 
ATOM      6  C   UNL     1      46.746   4.611  13.683  0.00  0.00    +0.000 A 
ATOM      7  C   UNL     1      47.521   5.733  13.383  0.00  0.00    +0.000 A 
ATOM      8  C   UNL     1      47.196   6.576  12.309  0.00  0.00    +0.000 A 
ATOM      9  C   UNL     1      46.075   6.230  11.536  0.00  0.00    +0.000 A 
BRANCH   8  10
ATOM     10  C   UNL     1      47.920   7.842  12.062  0.00  0.00    +0.000 A 
ATOM     11  C   UNL     1      49.244   7.823  11.581  0.00  0.00    +0.000 A 
ATOM     12  C   UNL     1      49.972   9.003  11.394  0.00  0.00    +0.000 A 
ATOM     13  C   UNL     1      49.396  10.233  11.697  0.00  0.00    +0.000 A 
ATOM     14  C   UNL     1      48.095  10.282  12.184  0.00  0.00    +0.000 A 
ATOM     15  C   UNL     1      47.371   9.102  12.358  0.00  0.00    +0.000 A 
ATOM     16  F   UNL     1      46.120   9.207  12.836  0.00  0.00    +0.000 F 
ENDBRANCH   8  10
ENDBRANCH   1   4
BRANCH   1  17
ATOM     17  N   UNL     1      43.852   3.875  10.227  0.00  0.00    +0.000 N 
ATOM     18  H   UNL     1      43.425   3.045  10.639  0.00  0.00    +0.000 HD
BRANCH  17  22
ATOM     19  C   UNL     1      46.659   2.599   7.488  0.00  0.00    +0.000 A 
ATOM     20  N   UNL     1      46.386   3.918   7.491  0.00  0.00    +0.000 NA
ATOM     21  C   UNL     1      45.488   4.339   8.416  0.00  0.00    +0.000 A 
ATOM     22  C   UNL     1      44.878   3.519   9.341  0.00  0.00    +0.000 A 
ATOM     23  C   UNL     1      45.243   2.182   9.220  0.00  0.00    +0.000 A 
ATOM     24  N   UNL     1      46.125   1.689   8.326  0.00  0.00    +0.000 NA
BRANCH  19  26
ATOM     25  N   UNL     1      48.292   1.709   5.661  0.00  0.00    +0.000 NA
ATOM     26  C   UNL     1      47.558   2.100   6.478  0.00  0.00    +0.000 C 
ENDBRANCH  19  26
ENDBRANCH  17  22
ENDBRANCH   1  17
TORSDOF 5
ENDMDL
MODEL 2
REMARK VINA RESULT:    -8.028      3.444      6.927
REMARK INTER + INTRA:         -11.329
REMARK INTER:                 -10.381
REMARK INTRA:                  -0.949
REMARK UNBOUND:                -0.955
REMARK  Name = 
REMARK  5 active torsions:
REMARK  status: ('A' for Active; 'I' for Inactive)
REMARK    1  A    between atoms: C_2  and  C_3
REMARK    2  A    between atoms: C_6  and  N_7
REMARK    3  A    between atoms: N_7  and  C_8
REMARK    4  A    between atoms: C_8  and  C_9
REMARK    5  A    between atoms: C_13  and  C_14
REMARK                            x       y       z     vdW  Elec       q    Type
REMARK                         _______ _______ _______ _____ _____    ______ ____
ROOT
ATOM      1  C   UNL     1      46.120   7.331  12.158  0.00  0.00    +0.000 C 
ATOM      2  C   UNL     1      46.396   8.770  11.740  0.00  0.00    +0.000 C 
ATOM      3  C   UNL     1      45.533   8.492  12.926  0.00  0.00    +0.000 C 
ENDROOT
BRANCH   1   4
ATOM      4  C   UNL     1      45.204   6.466  11.307  0.00  0.00    +0.000 A 
ATOM      5  C   UNL     1      43.848   6.284  11.612  0.00  0.00    +0.000 A 
ATOM      6  C   UNL     1      43.089   5.317  10.955  0.00  0.00    +0.000 A 
ATOM      7  C   UNL     1      43.681   4.505   9.986  0.00  0.00    +0.000 A 
ATOM      8  C   UNL     1      45.031   4.659   9.633  0.00  0.00    +0.000 A 
ATOM      9  C   UNL     1      45.752   5.678  10.277  0.00  0.00    +0.000 A 
BRANCH   8  10
ATOM     10  C   UNL     1      45.712   3.719   8.715  0.00  0.00    +0.000 A 
ATOM     11  C   UNL     1      46.426   4.204   7.602  0.00  0.00    +0.000 A 
ATOM     12  C   UNL     1      47.030   3.337   6.686  0.00  0.00    +0.000 A 
ATOM     13  C   UNL     1      46.923   1.960   6.854  0.00  0.00    +0.000 A 
ATOM     14  C   UNL     1      46.215   1.452   7.937  0.00  0.00    +0.000 A 
ATOM     15  C   UNL     1      45.624   2.323   8.853  0.00  0.00    +0.000 A 
ATOM     16  F   UNL     1      44.948   1.779   9.879  0.00  0.00    +0.000 F 
ENDBRANCH   8  10
ENDBRANCH   1   4
BRANCH   1  17
ATOM     17  N   UNL     1      47.359   6.620  12.535  0.00  0.00    +0.000 N 
ATOM     18  H   UNL     1      47.889   6.304  11.722  0.00  0.00    +0.000 HD
BRANCH  17  22
ATOM     19  C   UNL     1      47.613   4.189  15.858  0.00  0.00    +0.000 A 
ATOM     20  N   UNL     1      46.913   3.701  14.815  0.00  0.00    +0.000 NA
ATOM     21  C   UNL     1      46.861   4.489  13.712  0.00  0.00    +0.000 A 
ATOM     22  C   UNL     1      47.487   5.712  13.595  0.00  0.00    +0.000 A 
ATOM     23  C   UNL     1      48.165   6.097  14.747  0.00  0.00    +0.000 A 
ATOM     24  N   UNL     1      48.259   5.371  15.880  0.00  0.00    +0.000 NA
BRANCH  19  26
ATOM     25  N   UNL     1      47.672   2.787  18.055  0.00  0.00    +0.000 NA
ATOM     26  C   UNL     1      47.638   3.413  17.072  0.00  0.00    +0.000 C 
ENDBRANCH  19  26
ENDBRANCH  17  22
ENDBRANCH   1  17
TORSDOF 5
ENDMDL
MODEL 3
REMARK VINA RESULT:    -7.381      2.061      3.869
REMARK INTER + INTRA:         -10.494
REMARK INTER:                 -10.002
REMARK INTRA:                  -0.492
REMARK UNBOUND:                -0.955
REMARK  Name = 
REMARK  5 active torsions:
REMARK  status: ('A' for Active; 'I' for Inactive)
REMARK    1  A    between atoms: C_2  and  C_3
REMARK    2  A    between atoms: C_6  and  N_7
REMARK    3  A    between atoms: N_7  and  C_8
REMARK    4  A    between atoms: C_8  and  C_9
REMARK    5  A    between atoms: C_13  and  C_14
REMARK                            x       y       z     vdW  Elec       q    Type
REMARK                         _______ _______ _______ _____ _____    ______ ____
ROOT
ATOM      1  C   UNL     1      44.131   5.091  11.802  0.00  0.00    +0.000 C 
ATOM      2  C   UNL     1      42.840   5.165  12.607  0.00  0.00    +0.000 C 
ATOM      3  C   UNL     1      43.008   6.014  11.391  0.00  0.00    +0.000 C 
ENDROOT
BRANCH   1   4
ATOM      4  C   UNL     1      45.407   5.686  12.377  0.00  0.00    +0.000 A 
ATOM      5  C   UNL     1      46.228   6.552  11.642  0.00  0.00    +0.000 A 
ATOM      6  C   UNL     1      47.496   6.903  12.103  0.00  0.00    +0.000 A 
ATOM      7  C   UNL     1      47.969   6.378  13.307  0.00  0.00    +0.000 A 
ATOM      8  C   UNL     1      47.179   5.520  14.088  0.00  0.00    +0.000 A 
ATOM      9  C   UNL     1      45.887   5.231  13.619  0.00  0.00    +0.000 A 
BRANCH   8  10
ATOM     10  C   UNL     1      47.713   4.845  15.291  0.00  0.00    +0.000 A 
ATOM     11  C   UNL     1      47.552   3.455  15.457  0.00  0.00    +0.000 A 
ATOM     12  C   UNL     1      47.995   2.800  16.611  0.00  0.00    +0.000 A 
ATOM     13  C   UNL     1      48.599   3.522  17.635  0.00  0.00    +0.000 A 
ATOM     14  C   UNL     1      48.760   4.897  17.504  0.00  0.00    +0.000 A 
ATOM     15  C   UNL     1      48.326   5.543  16.346  0.00  0.00    +0.000 A 
ATOM     16  F   UNL     1      48.503   6.872  16.274  0.00  0.00    +0.000 F 
ENDBRANCH   8  10
ENDBRANCH   1   4
BRANCH   1  17
ATOM     17  N   UNL     1      44.354   3.743  11.240  0.00  0.00    +0.000 N 
ATOM     18  H   UNL     1      44.762   3.100  11.920  0.00  0.00    +0.000 HD
BRANCH  17  22
ATOM     19  C   UNL     1      46.002   3.128   7.510  0.00  0.00    +0.000 A 
ATOM     20  N   UNL     1      45.733   2.022   8.232  0.00  0.00    +0.000 NA
ATOM     21  C   UNL     1      45.160   2.228   9.444  0.00  0.00    +0.000 A 
ATOM     22  C   UNL     1      44.825   3.466   9.949  0.00  0.00    +0.000 A 
ATOM     23  C   UNL     1      45.167   4.518   9.105  0.00  0.00    +0.000 A 
ATOM     24  N   UNL     1      45.739   4.392   7.891  0.00  0.00    +0.000 NA
BRANCH  19  26
ATOM     25  N   UNL     1      47.213   2.806   5.223  0.00  0.00    +0.000 NA
ATOM     26  C   UNL     1      46.672   2.957   6.244  0.00  0.00    +0.000 C 
ENDBRANCH  19  26
ENDBRANCH  17  22
ENDBRANCH   1  17
TORSDOF 5
ENDMDL
MODEL 4
REMARK VINA RESULT:    -6.850      1.836      2.705
REMARK INTER + INTRA:          -9.807
REMARK INTER:                  -8.722
REMARK INTRA:                  -1.085
REMARK UNBOUND:                -0.955
REMARK  Name = 
REMARK  5 active torsions:
REMARK  status: ('A' for Active; 'I' for Inactive)
REMARK    1  A    between atoms: C_2  and  C_3
REMARK    2  A    between atoms: C_6  and  N_7
REMARK    3  A    between atoms: N_7  and  C_8
REMARK    4  A    between atoms: C_8  and  C_9
REMARK    5  A    between atoms: C_13  and  C_14
REMARK                            x       y       z     vdW  Elec       q    Type
REMARK                         _______ _______ _______ _____ _____    ______ ____
ROOT
ATOM      1  C   UNL     1      43.898   5.601  11.948  0.00  0.00    +0.000 C 
ATOM      2  C   UNL     1      42.940   5.095  13.019  0.00  0.00    +0.000 C 
ATOM      3  C   UNL     1      42.413   5.509  11.685  0.00  0.00    +0.000 C 
ENDROOT
BRANCH   1   4
ATOM      4  C   UNL     1      44.540   6.971  12.105  0.00  0.00    +0.000 A 
ATOM      5  C   UNL     1      44.034   8.113  11.469  0.00  0.00    +0.000 A 
ATOM      6  C   UNL     1      44.761   9.302  11.444  0.00  0.00    +0.000 A 
ATOM      7  C   UNL     1      46.019   9.363  12.048  0.00  0.00    +0.000 A 
ATOM      8  C   UNL     1      46.562   8.251  12.712  0.00  0.00    +0.000 A 
ATOM      9  C   UNL     1      45.779   7.087  12.763  0.00  0.00    +0.000 A 
BRANCH   8  10
ATOM     10  C   UNL     1      47.946   8.252  13.234  0.00  0.00    +0.000 A 
ATOM     11  C   UNL     1      48.203   8.626  14.567  0.00  0.00    +0.000 A 
ATOM     12  C   UNL     1      49.507   8.691  15.071  0.00  0.00    +0.000 A 
ATOM     13  C   UNL     1      50.589   8.396  14.247  0.00  0.00    +0.000 A 
ATOM     14  C   UNL     1      50.366   8.036  12.922  0.00  0.00    +0.000 A 
ATOM     15  C   UNL     1      49.062   7.962  12.430  0.00  0.00    +0.000 A 
ATOM     16  F   UNL     1      48.905   7.613  11.143  0.00  0.00    +0.000 F 
ENDBRANCH   8  10
ENDBRANCH   1   4
BRANCH   1  17
ATOM     17  N   UNL     1      44.882   4.572  11.557  0.00  0.00    +0.000 N 
ATOM     18  H   UNL     1      45.745   4.632  12.099  0.00  0.00    +0.000 HD
BRANCH  17  22
ATOM     19  C   UNL     1      45.970   3.463   7.737  0.00  0.00    +0.000 A 
ATOM     20  N   UNL     1      45.488   2.483   8.527  0.00  0.00    +0.000 NA
ATOM     21  C   UNL     1      45.100   2.859   9.771  0.00  0.00    +0.000 A 
ATOM     22  C   UNL     1      45.147   4.152  10.246  0.00  0.00    +0.000 A 
ATOM     23  C   UNL     1      45.673   5.059   9.331  0.00  0.00    +0.000 A 
ATOM     24  N   UNL     1      46.082   4.760   8.081  0.00  0.00    +0.000 NA
BRANCH  19  26
ATOM     25  N   UNL     1      46.844   2.809   5.369  0.00  0.00    +0.000 NA
ATOM     26  C   UNL     1      46.456   3.095   6.430  0.00  0.00    +0.000 C 
ENDBRANCH  19  26
ENDBRANCH  17  22
ENDBRANCH   1  17
TORSDOF 5
ENDMDL
MODEL 5
REMARK VINA RESULT:    -6.832      3.555      6.914
REMARK INTER + INTRA:          -9.784
REMARK INTER:                  -9.141
REMARK INTRA:                  -0.643
REMARK UNBOUND:                -0.955
REMARK  Name = 
REMARK  5 active torsions:
REMARK  status: ('A' for Active; 'I' for Inactive)
REMARK    1  A    between atoms: C_2  and  C_3
REMARK    2  A    between atoms: C_6  and  N_7
REMARK    3  A    between atoms: N_7  and  C_8
REMARK    4  A    between atoms: C_8  and  C_9
REMARK    5  A    between atoms: C_13  and  C_14
REMARK                            x       y       z     vdW  Elec       q    Type
REMARK                         _______ _______ _______ _____ _____    ______ ____
ROOT
ATOM      1  C   UNL     1      44.459   5.911  11.438  0.00  0.00    +0.000 C 
ATOM      2  C   UNL     1      43.323   6.924  11.388  0.00  0.00    +0.000 C 
ATOM      3  C   UNL     1      43.629   6.211  12.663  0.00  0.00    +0.000 C 
ENDROOT
BRANCH   1   4
ATOM      4  C   UNL     1      44.296   4.569  10.742  0.00  0.00    +0.000 A 
ATOM      5  C   UNL     1      43.606   3.499  11.329  0.00  0.00    +0.000 A 
ATOM      6  C   UNL     1      43.662   2.220  10.777  0.00  0.00    +0.000 A 
ATOM      7  C   UNL     1      44.425   1.988   9.631  0.00  0.00    +0.000 A 
ATOM      8  C   UNL     1      45.121   3.029   8.997  0.00  0.00    +0.000 A 
ATOM      9  C   UNL     1      44.999   4.314   9.549  0.00  0.00    +0.000 A 
BRANCH   8  10
ATOM     10  C   UNL     1      46.044   2.778   7.869  0.00  0.00    +0.000 A 
ATOM     11  C   UNL     1      46.367   3.814   6.969  0.00  0.00    +0.000 A 
ATOM     12  C   UNL     1      47.191   3.591   5.861  0.00  0.00    +0.000 A 
ATOM     13  C   UNL     1      47.703   2.321   5.617  0.00  0.00    +0.000 A 
ATOM     14  C   UNL     1      47.393   1.276   6.481  0.00  0.00    +0.000 A 
ATOM     15  C   UNL     1      46.579   1.508   7.591  0.00  0.00    +0.000 A 
ATOM     16  F   UNL     1      46.308   0.463   8.390  0.00  0.00    +0.000 F 
ENDBRANCH   8  10
ENDBRANCH   1   4
BRANCH   1  17
ATOM     17  N   UNL     1      45.766   6.533  11.139  0.00  0.00    +0.000 N 
ATOM     18  H   UNL     1      46.082   6.338  10.189  0.00  0.00    +0.000 HD
BRANCH  17  22
ATOM     19  C   UNL     1      48.818   7.018  13.870  0.00  0.00    +0.000 A 
ATOM     20  N   UNL     1      48.231   5.805  13.842  0.00  0.00    +0.000 NA
ATOM     21  C   UNL     1      47.251   5.640  12.919  0.00  0.00    +0.000 A 
ATOM     22  C   UNL     1      46.853   6.606  12.020  0.00  0.00    +0.000 A 
ATOM     23  C   UNL     1      47.535   7.810  12.166  0.00  0.00    +0.000 A 
ATOM     24  N   UNL     1      48.516   8.050  13.060  0.00  0.00    +0.000 NA
BRANCH  19  26
ATOM     25  N   UNL     1      50.625   7.463  15.697  0.00  0.00    +0.000 NA
ATOM     26  C   UNL     1      49.819   7.257  14.880  0.00  0.00    +0.000 C 
ENDBRANCH  19  26
ENDBRANCH  17  22
ENDBRANCH   1  17
TORSDOF 5
ENDMDL
MODEL 6
REMARK VINA RESULT:    -6.606      3.662      6.740
REMARK INTER + INTRA:          -9.492
REMARK INTER:                  -8.841
REMARK INTRA:                  -0.651
REMARK UNBOUND:                -0.955
REMARK  Name = 
REMARK  5 active torsions:
REMARK  status: ('A' for Active; 'I' for Inactive)
REMARK    1  A    between atoms: C_2  and  C_3
REMARK    2  A    between atoms: C_6  and  N_7
REMARK    3  A    between atoms: N_7  and  C_8
REMARK    4  A    between atoms: C_8  and  C_9
REMARK    5  A    between atoms: C_13  and  C_14
REMARK                            x       y       z     vdW  Elec       q    Type
REMARK                         _______ _______ _______ _____ _____    ______ ____
ROOT
ATOM      1  C   UNL     1      46.010   5.096  13.183  0.00  0.00    +0.000 C 
ATOM      2  C   UNL     1      46.629   4.407  14.392  0.00  0.00    +0.000 C 
ATOM      3  C   UNL     1      47.495   4.832  13.254  0.00  0.00    +0.000 C 
ENDROOT
BRANCH   1   4
ATOM      4  C   UNL     1      45.158   4.290  12.216  0.00  0.00    +0.000 A 
ATOM      5  C   UNL     1      44.002   3.610  12.623  0.00  0.00    +0.000 A 
ATOM      6  C   UNL     1      43.368   2.701  11.775  0.00  0.00    +0.000 A 
ATOM      7  C   UNL     1      43.893   2.448  10.507  0.00  0.00    +0.000 A 
ATOM      8  C   UNL     1      45.039   3.115  10.047  0.00  0.00    +0.000 A 
ATOM      9  C   UNL     1      45.620   4.062  10.906  0.00  0.00    +0.000 A 
BRANCH   8  10
ATOM     10  C   UNL     1      45.690   2.759   8.767  0.00  0.00    +0.000 A 
ATOM     11  C   UNL     1      46.039   1.422   8.494  0.00  0.00    +0.000 A 
ATOM     12  C   UNL     1      46.707   1.066   7.318  0.00  0.00    +0.000 A 
ATOM     13  C   UNL     1      47.054   2.042   6.389  0.00  0.00    +0.000 A 
ATOM     14  C   UNL     1      46.733   3.372   6.637  0.00  0.00    +0.000 A 
ATOM     15  C   UNL     1      46.057   3.719   7.808  0.00  0.00    +0.000 A 
ATOM     16  F   UNL     1      45.775   5.018   7.999  0.00  0.00    +0.000 F 
ENDBRANCH   8  10
ENDBRANCH   1   4
BRANCH   1  17
ATOM     17  N   UNL     1      45.370   6.377  13.547  0.00  0.00    +0.000 N 
ATOM     18  H   UNL     1      44.573   6.251  14.171  0.00  0.00    +0.000 HD
BRANCH  17  22
ATOM     19  C   UNL     1      44.409   9.525  11.061  0.00  0.00    +0.000 A 
ATOM     20  N   UNL     1      45.329   9.777  12.013  0.00  0.00    +0.000 NA
ATOM     21  C   UNL     1      45.666   8.730  12.806  0.00  0.00    +0.000 A 
ATOM     22  C   UNL     1      45.155   7.456  12.678  0.00  0.00    +0.000 A 
ATOM     23  C   UNL     1      44.211   7.339  11.663  0.00  0.00    +0.000 A 
ATOM     24  N   UNL     1      43.823   8.333  10.838  0.00  0.00    +0.000 NA
BRANCH  19  26
ATOM     25  N   UNL     1      43.608  11.515   9.579  0.00  0.00    +0.000 NA
ATOM     26  C   UNL     1      43.973  10.626  10.239  0.00  0.00    +0.000 C 
ENDBRANCH  19  26
ENDBRANCH  17  22
ENDBRANCH   1  17
TORSDOF 5
ENDMDL
MODEL 7
REMARK VINA RESULT:    -6.519      5.808      8.324
REMARK INTER + INTRA:          -9.380
REMARK INTER:                  -8.805
REMARK INTRA:                  -0.575
REMARK UNBOUND:                -0.955
REMARK  Name = 
REMARK  5 active torsions:
REMARK  status: ('A' for Active; 'I' for Inactive)
REMARK    1  A    between atoms: C_2  and  C_3
REMARK    2  A    between atoms: C_6  and  N_7
REMARK    3  A    between atoms: N_7  and  C_8
REMARK    4  A    between atoms: C_8  and  C_9
REMARK    5  A    between atoms: C_13  and  C_14
REMARK                            x       y       z     vdW  Elec       q    Type
REMARK                         _______ _______ _______ _____ _____    ______ ____
ROOT
ATOM      1  C   UNL     1      48.171   4.486  17.011  0.00  0.00    +0.000 C 
ATOM      2  C   UNL     1      47.188   4.805  18.130  0.00  0.00    +0.000 C 
ATOM      3  C   UNL     1      47.163   3.463  17.478  0.00  0.00    +0.000 C 
ENDROOT
BRANCH   1   4
ATOM      4  C   UNL     1      47.990   5.137  15.648  0.00  0.00    +0.000 A 
ATOM      5  C   UNL     1      48.683   6.297  15.274  0.00  0.00    +0.000 A 
ATOM      6  C   UNL     1      48.338   6.997  14.118  0.00  0.00    +0.000 A 
ATOM      7  C   UNL     1      47.280   6.553  13.324  0.00  0.00    +0.000 A 
ATOM      8  C   UNL     1      46.566   5.388  13.647  0.00  0.00    +0.000 A 
ATOM      9  C   UNL     1      46.975   4.678  14.788  0.00  0.00    +0.000 A 
BRANCH   8  10
ATOM     10  C   UNL     1      45.357   4.979  12.899  0.00  0.00    +0.000 A 
ATOM     11  C   UNL     1      44.332   5.910  12.639  0.00  0.00    +0.000 A 
ATOM     12  C   UNL     1      43.153   5.538  11.986  0.00  0.00    +0.000 A 
ATOM     13  C   UNL     1      42.963   4.219  11.587  0.00  0.00    +0.000 A 
ATOM     14  C   UNL     1      43.952   3.275  11.840  0.00  0.00    +0.000 A 
ATOM     15  C   UNL     1      45.131   3.656  12.483  0.00  0.00    +0.000 A 
ATOM     16  F   UNL     1      46.050   2.703  12.707  0.00  0.00    +0.000 F 
ENDBRANCH   8  10
ENDBRANCH   1   4
BRANCH   1  17
ATOM     17  N   UNL     1      49.573   4.552  17.473  0.00  0.00    +0.000 N 
ATOM     18  H   UNL     1      50.023   5.434  17.227  0.00  0.00    +0.000 HD
BRANCH  17  22
ATOM     19  C   UNL     1      52.330   1.492  17.688  0.00  0.00    +0.000 A 
ATOM     20  N   UNL     1      51.125   1.174  17.175  0.00  0.00    +0.000 NA
ATOM     21  C   UNL     1      50.233   2.190  17.075  0.00  0.00    +0.000 A 
ATOM     22  C   UNL     1      50.493   3.496  17.434  0.00  0.00    +0.000 A 
ATOM     23  C   UNL     1      51.770   3.682  17.955  0.00  0.00    +0.000 A 
ATOM     24  N   UNL     1      52.708   2.722  18.089  0.00  0.00    +0.000 NA
BRANCH  19  26
ATOM     25  N   UNL     1      54.060  -0.432  18.010  0.00  0.00    +0.000 NA
ATOM     26  C   UNL     1      53.285   0.428  17.874  0.00  0.00    +0.000 C 
ENDBRANCH  19  26
ENDBRANCH  17  22
ENDBRANCH   1  17
TORSDOF 5
ENDMDL
MODEL 8
REMARK VINA RESULT:    -6.336      3.323      6.084
REMARK INTER + INTRA:          -9.143
REMARK INTER:                  -8.212
REMARK INTRA:                  -0.931
REMARK UNBOUND:                -0.955
REMARK  Name = 
REMARK  5 active torsions:
REMARK  status: ('A' for Active; 'I' for Inactive)
REMARK    1  A    between atoms: C_2  and  C_3
REMARK    2  A    between atoms: C_6  and  N_7
REMARK    3  A    between atoms: N_7  and  C_8
REMARK    4  A    between atoms: C_8  and  C_9
REMARK    5  A    between atoms: C_13  and  C_14
REMARK                            x       y       z     vdW  Elec       q    Type
REMARK                         _______ _______ _______ _____ _____    ______ ____
ROOT
ATOM      1  C   UNL     1      48.134   7.933  12.529  0.00  0.00    +0.000 C 
ATOM      2  C   UNL     1      49.067   8.871  11.774  0.00  0.00    +0.000 C 
ATOM      3  C   UNL     1      49.308   7.398  11.744  0.00  0.00    +0.000 C 
ENDROOT
BRANCH   1   4
ATOM      4  C   UNL     1      48.178   7.896  14.048  0.00  0.00    +0.000 A 
ATOM      5  C   UNL     1      48.238   9.060  14.826  0.00  0.00    +0.000 A 
ATOM      6  C   UNL     1      48.503   8.998  16.193  0.00  0.00    +0.000 A 
ATOM      7  C   UNL     1      48.727   7.763  16.804  0.00  0.00    +0.000 A 
ATOM      8  C   UNL     1      48.663   6.566  16.072  0.00  0.00    +0.000 A 
ATOM      9  C   UNL     1      48.340   6.663  14.709  0.00  0.00    +0.000 A 
BRANCH   8  10
ATOM     10  C   UNL     1      49.034   5.264  16.668  0.00  0.00    +0.000 A 
ATOM     11  C   UNL     1      50.332   5.058  17.175  0.00  0.00    +0.000 A 
ATOM     12  C   UNL     1      50.729   3.820  17.690  0.00  0.00    +0.000 A 
ATOM     13  C   UNL     1      49.839   2.751  17.700  0.00  0.00    +0.000 A 
ATOM     14  C   UNL     1      48.554   2.921  17.196  0.00  0.00    +0.000 A 
ATOM     15  C   UNL     1      48.162   4.162  16.693  0.00  0.00    +0.000 A 
ATOM     16  F   UNL     1      46.911   4.270  16.215  0.00  0.00    +0.000 F 
ENDBRANCH   8  10
ENDBRANCH   1   4
BRANCH   1  17
ATOM     17  N   UNL     1      46.749   8.005  12.019  0.00  0.00    +0.000 N 
ATOM     18  H   UNL     1      46.269   8.856  12.313  0.00  0.00    +0.000 HD
BRANCH  17  22
ATOM     19  C   UNL     1      44.379   4.640  11.763  0.00  0.00    +0.000 A 
ATOM     20  N   UNL     1      44.172   5.435  12.831  0.00  0.00    +0.000 NA
ATOM     21  C   UNL     1      44.930   6.557  12.893  0.00  0.00    +0.000 A 
ATOM     22  C   UNL     1      45.853   6.931  11.940  0.00  0.00    +0.000 A 
ATOM     23  C   UNL     1      45.972   6.016  10.898  0.00  0.00    +0.000 A 
ATOM     24  N   UNL     1      45.257   4.880  10.769  0.00  0.00    +0.000 NA
BRANCH  19  26
ATOM     25  N   UNL     1      43.057   2.396  11.631  0.00  0.00    +0.000 NA
ATOM     26  C   UNL     1      43.642   3.403  11.692  0.00  0.00    +0.000 C 
ENDBRANCH  19  26
ENDBRANCH  17  22
ENDBRANCH   1  17
TORSDOF 5
ENDMDL
MODEL 9
REMARK VINA RESULT:    -6.327      3.302      6.832
REMARK INTER + INTRA:          -9.131
REMARK INTER:                  -8.483
REMARK INTRA:                  -0.648
REMARK UNBOUND:                -0.955
REMARK  Name = 
REMARK  5 active torsions:
REMARK  status: ('A' for Active; 'I' for Inactive)
REMARK    1  A    between atoms: C_2  and  C_3
REMARK    2  A    between atoms: C_6  and  N_7
REMARK    3  A    between atoms: N_7  and  C_8
REMARK    4  A    between atoms: C_8  and  C_9
REMARK    5  A    between atoms: C_13  and  C_14
REMARK                            x       y       z     vdW  Elec       q    Type
REMARK                         _______ _______ _______ _____ _____    ______ ____
ROOT
ATOM      1  C   UNL     1      46.077   4.943  13.257  0.00  0.00    +0.000 C 
ATOM      2  C   UNL     1      46.193   4.392  14.672  0.00  0.00    +0.000 C 
ATOM      3  C   UNL     1      47.347   4.279  13.732  0.00  0.00    +0.000 C 
ENDROOT
BRANCH   1   4
ATOM      4  C   UNL     1      45.199   4.225  12.244  0.00  0.00    +0.000 A 
ATOM      5  C   UNL     1      44.006   3.584  12.606  0.00  0.00    +0.000 A 
ATOM      6  C   UNL     1      43.340   2.748  11.710  0.00  0.00    +0.000 A 
ATOM      7  C   UNL     1      43.867   2.530  10.437  0.00  0.00    +0.000 A 
ATOM      8  C   UNL     1      45.050   3.162  10.020  0.00  0.00    +0.000 A 
ATOM      9  C   UNL     1      45.665   4.038  10.929  0.00  0.00    +0.000 A 
BRANCH   8  10
ATOM     10  C   UNL     1      45.698   2.836   8.731  0.00  0.00    +0.000 A 
ATOM     11  C   UNL     1      46.015   1.501   8.411  0.00  0.00    +0.000 A 
ATOM     12  C   UNL     1      46.680   1.170   7.226  0.00  0.00    +0.000 A 
ATOM     13  C   UNL     1      47.057   2.170   6.335  0.00  0.00    +0.000 A 
ATOM     14  C   UNL     1      46.767   3.498   6.629  0.00  0.00    +0.000 A 
ATOM     15  C   UNL     1      46.094   3.820   7.809  0.00  0.00    +0.000 A 
ATOM     16  F   UNL     1      45.844   5.118   8.045  0.00  0.00    +0.000 F 
ENDBRANCH   8  10
ENDBRANCH   1   4
BRANCH   1  17
ATOM     17  N   UNL     1      45.847   6.402  13.251  0.00  0.00    +0.000 N 
ATOM     18  H   UNL     1      44.899   6.646  12.962  0.00  0.00    +0.000 HD
BRANCH  17  22
ATOM     19  C   UNL     1      48.680   9.238  12.280  0.00  0.00    +0.000 A 
ATOM     20  N   UNL     1      48.619   8.157  11.477  0.00  0.00    +0.000 NA
ATOM     21  C   UNL     1      47.663   7.244  11.779  0.00  0.00    +0.000 A 
ATOM     22  C   UNL     1      46.763   7.370  12.816  0.00  0.00    +0.000 A 
ATOM     23  C   UNL     1      46.945   8.526  13.568  0.00  0.00    +0.000 A 
ATOM     24  N   UNL     1      47.872   9.476  13.331  0.00  0.00    +0.000 NA
BRANCH  19  26
ATOM     25  N   UNL     1      50.565  10.986  11.844  0.00  0.00    +0.000 NA
ATOM     26  C   UNL     1      49.725  10.200  12.033  0.00  0.00    +0.000 C 
ENDBRANCH  19  26
ENDBRANCH  17  22
ENDBRANCH   1  17
TORSDOF 5
ENDMDL
