MODEL 1
REMARK VINA RESULT:    -8.892      0.000      0.000
REMARK INTER + INTRA:         -13.719
REMARK INTER:                 -12.531
REMARK INTRA:                  -1.188
REMARK UNBOUND:                -1.188
REMARK  Name = 
REMARK  8 active torsions:
REMARK  status: ('A' for Active; 'I' for Inactive)
REMARK    1  A    between atoms: C_1  and  O_2
REMARK    2  A    between atoms: O_2  and  C_3
REMARK    3  A    between atoms: C_6  and  C_7
REMARK    4  A    between atoms: C_7  and  N_8
REMARK    5  A    between atoms: C_9  and  C_11
REMARK    6  A    between atoms: C_22  and  C_23
REMARK    7  A    between atoms: C_23  and  N_24
REMARK    8  A    between atoms: C_25  and  C_27
REMARK                            x       y       z     vdW  Elec       q    Type
REMARK                         _______ _______ _______ _____ _____    ______ ____
ROOT
ATOM      1  C   UNL     1      45.167   7.140  12.011  0.00  0.00    +0.000 A 
ATOM      2  C   UNL     1      46.209   7.472  12.885  0.00  0.00    +0.000 A 
ATOM      3  C   UNL     1      46.824   6.498  13.669  0.00  0.00    +0.000 A 
ATOM      4  C   UNL     1      46.385   5.174  13.625  0.00  0.00    +0.000 A 
ATOM      5  C   UNL     1      45.332   4.839  12.761  0.00  0.00    +0.000 A 
ATOM      6  C   UNL     1      44.720   5.807  11.941  0.00  0.00    +0.000 A 
ENDROOT
BRANCH   1   8
ATOM      7  C   UNL     1      44.838   9.426  11.487  0.00  0.00    +0.000 C 
ATOM      8  O   UNL     1      44.532   8.059  11.213  0.00  0.00    +0.000 OA
ENDBRANCH   1   8
BRANCH   4   9
ATOM      9  C   UNL     1      47.061   4.129  14.466  0.00  0.00    +0.000 C 
BRANCH   9  10
ATOM     10  N   UNL     1      47.536   4.679  15.710  0.00  0.00    +0.000 N 
ATOM     11  C   UNL     1      47.139   4.213  16.935  0.00  0.00    +0.000 C 
ATOM     12  O   UNL     1      46.328   3.299  17.067  0.00  0.00    +0.000 OA
ATOM     13  H   UNL     1      48.028   5.564  15.649  0.00  0.00    +0.000 HD
BRANCH  11  14
ATOM     14  C   UNL     1      47.803   4.817  18.100  0.00  0.00    +0.000 A 
ATOM     15  C   UNL     1      47.093   5.674  18.930  0.00  0.00    +0.000 A 
ATOM     16  S   UNL     1      47.993   6.241  20.262  0.00  0.00    +0.000 S 
ATOM     17  C   UNL     1      49.383   5.403  19.751  0.00  0.00    +0.000 A 
ATOM     18  N   UNL     1      50.544   5.485  20.449  0.00  0.00    +0.000 NA
ATOM     19  C   UNL     1      51.527   4.826  19.933  0.00  0.00    +0.000 A 
ATOM     20  N   UNL     1      51.449   4.086  18.781  0.00  0.00    +0.000 N 
ATOM     21  C   UNL     1      50.280   3.923  18.075  0.00  0.00    +0.000 A 
ATOM     22  O   UNL     1      50.223   3.170  17.110  0.00  0.00    +0.000 OA
ATOM     23  C   UNL     1      49.154   4.675  18.596  0.00  0.00    +0.000 A 
ATOM     24  H   UNL     1      52.248   3.571  18.442  0.00  0.00    +0.000 HD
ENDBRANCH  11  14
ENDBRANCH   9  10
ENDBRANCH   4   9
BRANCH   6  25
ATOM     25  C   UNL     1      43.636   5.359  10.991  0.00  0.00    +0.000 C 
BRANCH  25  26
ATOM     26  N   UNL     1      44.154   4.740   9.788  0.00  0.00    +0.000 N 
ATOM     27  C   UNL     1      44.238   3.375   9.620  0.00  0.00    +0.000 C 
ATOM     28  O   UNL     1      43.862   2.569  10.463  0.00  0.00    +0.000 OA
ATOM     29  H   UNL     1      44.381   5.358   9.023  0.00  0.00    +0.000 HD
BRANCH  27  30
ATOM     30  C   UNL     1      44.956   2.961   8.337  0.00  0.00    +0.000 C 
ATOM     31  C   UNL     1      45.831   1.721   8.492  0.00  0.00    +0.000 C 
ATOM     32  C   UNL     1      46.824   1.783   7.334  0.00  0.00    +0.000 C 
ATOM     33  C   UNL     1      46.818   3.227   6.838  0.00  0.00    +0.000 C 
ATOM     34  C   UNL     1      45.949   4.001   7.822  0.00  0.00    +0.000 C 
ENDBRANCH  27  30
ENDBRANCH  25  26
ENDBRANCH   6  25
TORSDOF 7
ENDMDL
MODEL 2
REMARK VINA RESULT:    -8.347      2.037      2.909
REMARK INTER + INTRA:         -12.950
REMARK INTER:                 -11.603
REMARK INTRA:                  -1.347
REMARK UNBOUND:                -1.188
REMARK  Name = 
REMARK  8 active torsions:
REMARK  status: ('A' for Active; 'I' for Inactive)
REMARK    1  A    between atoms: C_1  and  O_2
REMARK    2  A    between atoms: O_2  and  C_3
REMARK    3  A    between atoms: C_6  and  C_7
REMARK    4  A    between atoms: C_7  and  N_8
REMARK    5  A    between atoms: C_9  and  C_11
REMARK    6  A    between atoms: C_22  and  C_23
REMARK    7  A    between atoms: C_23  and  N_24
REMARK    8  A    between atoms: C_25  and  C_27
REMARK                            x       y       z     vdW  Elec       q    Type
REMARK                         _______ _______ _______ _____ _____    ______ ____
ROOT
ATOM      1  C   UNL     1      44.803   8.078  11.454  0.00  0.00    +0.000 A 
ATOM      2  C   UNL     1      45.702   9.098  11.791  0.00  0.00    +0.000 A 
ATOM      3  C   UNL     1      47.039   8.813  12.059  0.00  0.00    +0.000 A 
ATOM      4  C   UNL     1      47.501   7.497  12.034  0.00  0.00    +0.000 A 
ATOM      5  C   UNL     1      46.601   6.471  11.710  0.00  0.00    +0.000 A 
ATOM      6  C   UNL     1      45.253   6.746  11.408  0.00  0.00    +0.000 A 
ENDROOT
BRANCH   1   8
ATOM      7  C   UNL     1      43.167   9.610  10.686  0.00  0.00    +0.000 C 
ATOM      8  O   UNL     1      43.478   8.305  11.174  0.00  0.00    +0.000 OA
ENDBRANCH   1   8
BRANCH   4   9
ATOM      9  C   UNL     1      48.947   7.201  12.315  0.00  0.00    +0.000 C 
BRANCH   9  10
ATOM     10  N   UNL     1      49.116   6.564  13.596  0.00  0.00    +0.000 N 
ATOM     11  C   UNL     1      49.187   7.259  14.774  0.00  0.00    +0.000 C 
ATOM     12  O   UNL     1      49.131   8.485  14.826  0.00  0.00    +0.000 OA
ATOM     13  H   UNL     1      49.384   5.586  13.577  0.00  0.00    +0.000 HD
BRANCH  11  14
ATOM     14  C   UNL     1      49.252   6.446  15.998  0.00  0.00    +0.000 A 
ATOM     15  C   UNL     1      50.181   6.756  16.981  0.00  0.00    +0.000 A 
ATOM     16  S   UNL     1      50.086   5.752  18.356  0.00  0.00    +0.000 S 
ATOM     17  C   UNL     1      48.833   4.830  17.665  0.00  0.00    +0.000 A 
ATOM     18  N   UNL     1      48.299   3.772  18.326  0.00  0.00    +0.000 NA
ATOM     19  C   UNL     1      47.380   3.142  17.674  0.00  0.00    +0.000 A 
ATOM     20  N   UNL     1      46.942   3.484  16.420  0.00  0.00    +0.000 N 
ATOM     21  C   UNL     1      47.408   4.583  15.738  0.00  0.00    +0.000 A 
ATOM     22  O   UNL     1      46.920   4.918  14.666  0.00  0.00    +0.000 OA
ATOM     23  C   UNL     1      48.471   5.303  16.416  0.00  0.00    +0.000 A 
ATOM     24  H   UNL     1      46.200   2.966  15.973  0.00  0.00    +0.000 HD
ENDBRANCH  11  14
ENDBRANCH   9  10
ENDBRANCH   4   9
BRANCH   6  25
ATOM     25  C   UNL     1      44.360   5.596  11.007  0.00  0.00    +0.000 C 
BRANCH  25  26
ATOM     26  N   UNL     1      44.799   4.930   9.799  0.00  0.00    +0.000 N 
ATOM     27  C   UNL     1      44.466   3.627   9.494  0.00  0.00    +0.000 C 
ATOM     28  O   UNL     1      43.752   2.931  10.207  0.00  0.00    +0.000 OA
ATOM     29  H   UNL     1      45.303   5.492   9.129  0.00  0.00    +0.000 HD
BRANCH  27  30
ATOM     30  C   UNL     1      45.168   3.094   8.247  0.00  0.00    +0.000 C 
ATOM     31  C   UNL     1      45.893   1.769   8.467  0.00  0.00    +0.000 C 
ATOM     32  C   UNL     1      46.918   1.682   7.339  0.00  0.00    +0.000 C 
ATOM     33  C   UNL     1      47.089   3.100   6.800  0.00  0.00    +0.000 C 
ATOM     34  C   UNL     1      46.286   3.999   7.733  0.00  0.00    +0.000 C 
ENDBRANCH  27  30
ENDBRANCH  25  26
ENDBRANCH   6  25
TORSDOF 7
ENDMDL
MODEL 3
REMARK VINA RESULT:    -8.200      1.923      2.717
REMARK INTER + INTRA:         -12.743
REMARK INTER:                 -11.470
REMARK INTRA:                  -1.274
REMARK UNBOUND:                -1.188
REMARK  Name = 
REMARK  8 active torsions:
REMARK  status: ('A' for Active; 'I' for Inactive)
REMARK    1  A    between atoms: C_1  and  O_2
REMARK    2  A    between atoms: O_2  and  C_3
REMARK    3  A    between atoms: C_6  and  C_7
REMARK    4  A    between atoms: C_7  and  N_8
REMARK    5  A    between atoms: C_9  and  C_11
REMARK    6  A    between atoms: C_22  and  C_23
REMARK    7  A    between atoms: C_23  and  N_24
REMARK    8  A    between atoms: C_25  and  C_27
REMARK                            x       y       z     vdW  Elec       q    Type
REMARK                         _______ _______ _______ _____ _____    ______ ____
ROOT
ATOM      1  C   UNL     1      45.703   4.288  12.477  0.00  0.00    +0.000 A 
ATOM      2  C   UNL     1      46.351   4.084  13.702  0.00  0.00    +0.000 A 
ATOM      3  C   UNL     1      47.197   5.055  14.235  0.00  0.00    +0.000 A 
ATOM      4  C   UNL     1      47.444   6.237  13.537  0.00  0.00    +0.000 A 
ATOM      5  C   UNL     1      46.808   6.440  12.303  0.00  0.00    +0.000 A 
ATOM      6  C   UNL     1      45.927   5.481  11.766  0.00  0.00    +0.000 A 
ENDROOT
BRANCH   1   8
ATOM      7  C   UNL     1      43.568   3.264  12.519  0.00  0.00    +0.000 C 
ATOM      8  O   UNL     1      44.855   3.368  11.912  0.00  0.00    +0.000 OA
ENDBRANCH   1   8
BRANCH   4   9
ATOM      9  C   UNL     1      48.350   7.282  14.124  0.00  0.00    +0.000 C 
BRANCH   9  10
ATOM     10  N   UNL     1      48.422   7.171  15.559  0.00  0.00    +0.000 N 
ATOM     11  C   UNL     1      49.570   6.838  16.227  0.00  0.00    +0.000 C 
ATOM     12  O   UNL     1      50.626   6.588  15.650  0.00  0.00    +0.000 OA
ATOM     13  H   UNL     1      47.536   7.154  16.051  0.00  0.00    +0.000 HD
BRANCH  11  14
ATOM     14  C   UNL     1      49.495   6.876  17.696  0.00  0.00    +0.000 A 
ATOM     15  C   UNL     1      49.784   8.054  18.370  0.00  0.00    +0.000 A 
ATOM     16  S   UNL     1      49.595   7.942  20.061  0.00  0.00    +0.000 S 
ATOM     17  C   UNL     1      49.172   6.296  19.960  0.00  0.00    +0.000 A 
ATOM     18  N   UNL     1      48.902   5.575  21.077  0.00  0.00    +0.000 NA
ATOM     19  C   UNL     1      48.627   4.332  20.859  0.00  0.00    +0.000 A 
ATOM     20  N   UNL     1      48.589   3.750  19.618  0.00  0.00    +0.000 N 
ATOM     21  C   UNL     1      48.793   4.454  18.454  0.00  0.00    +0.000 A 
ATOM     22  O   UNL     1      48.649   3.923  17.360  0.00  0.00    +0.000 OA
ATOM     23  C   UNL     1      49.144   5.848  18.650  0.00  0.00    +0.000 A 
ATOM     24  H   UNL     1      48.341   2.778  19.511  0.00  0.00    +0.000 HD
ENDBRANCH  11  14
ENDBRANCH   9  10
ENDBRANCH   4   9
BRANCH   6  25
ATOM     25  C   UNL     1      45.231   5.798  10.464  0.00  0.00    +0.000 C 
BRANCH  25  26
ATOM     26  N   UNL     1      45.665   4.958   9.367  0.00  0.00    +0.000 N 
ATOM     27  C   UNL     1      44.835   4.057   8.735  0.00  0.00    +0.000 C 
ATOM     28  O   UNL     1      43.656   3.906   9.031  0.00  0.00    +0.000 OA
ATOM     29  H   UNL     1      46.598   5.117   9.016  0.00  0.00    +0.000 HD
BRANCH  27  30
ATOM     30  C   UNL     1      45.555   3.179   7.714  0.00  0.00    +0.000 C 
ATOM     31  C   UNL     1      46.014   1.834   8.271  0.00  0.00    +0.000 C 
ATOM     32  C   UNL     1      47.115   1.363   7.325  0.00  0.00    +0.000 C 
ATOM     33  C   UNL     1      47.582   2.598   6.558  0.00  0.00    +0.000 C 
ATOM     34  C   UNL     1      46.858   3.780   7.191  0.00  0.00    +0.000 C 
ENDBRANCH  27  30
ENDBRANCH  25  26
ENDBRANCH   6  25
TORSDOF 7
ENDMDL
MODEL 4
REMARK VINA RESULT:    -8.169      1.907      2.356
REMARK INTER + INTRA:         -12.700
REMARK INTER:                 -11.510
REMARK INTRA:                  -1.190
REMARK UNBOUND:                -1.188
REMARK  Name = 
REMARK  8 active torsions:
REMARK  status: ('A' for Active; 'I' for Inactive)
REMARK    1  A    between atoms: C_1  and  O_2
REMARK    2  A    between atoms: O_2  and  C_3
REMARK    3  A    between atoms: C_6  and  C_7
REMARK    4  A    between atoms: C_7  and  N_8
REMARK    5  A    between atoms: C_9  and  C_11
REMARK    6  A    between atoms: C_22  and  C_23
REMARK    7  A    between atoms: C_23  and  N_24
REMARK    8  A    between atoms: C_25  and  C_27
REMARK                            x       y       z     vdW  Elec       q    Type
REMARK                         _______ _______ _______ _____ _____    ______ ____
ROOT
ATOM      1  C   UNL     1      44.963   7.872  11.731  0.00  0.00    +0.000 A 
ATOM      2  C   UNL     1      46.031   8.446  12.432  0.00  0.00    +0.000 A 
ATOM      3  C   UNL     1      46.877   7.663  13.215  0.00  0.00    +0.000 A 
ATOM      4  C   UNL     1      46.652   6.292  13.345  0.00  0.00    +0.000 A 
ATOM      5  C   UNL     1      45.575   5.715  12.657  0.00  0.00    +0.000 A 
ATOM      6  C   UNL     1      44.729   6.489  11.838  0.00  0.00    +0.000 A 
ENDROOT
BRANCH   1   8
ATOM      7  C   UNL     1      44.069  10.000  11.200  0.00  0.00    +0.000 C 
ATOM      8  O   UNL     1      44.104   8.597  10.942  0.00  0.00    +0.000 OA
ENDBRANCH   1   8
BRANCH   4   9
ATOM      9  C   UNL     1      47.576   5.454  14.184  0.00  0.00    +0.000 C 
BRANCH   9  10
ATOM     10  N   UNL     1      47.759   6.023  15.495  0.00  0.00    +0.000 N 
ATOM     11  C   UNL     1      48.954   6.533  15.929  0.00  0.00    +0.000 C 
ATOM     12  O   UNL     1      49.969   6.528  15.237  0.00  0.00    +0.000 OA
ATOM     13  H   UNL     1      47.019   5.849  16.165  0.00  0.00    +0.000 HD
BRANCH  11  14
ATOM     14  C   UNL     1      48.938   7.172  17.254  0.00  0.00    +0.000 A 
ATOM     15  C   UNL     1      49.598   8.378  17.444  0.00  0.00    +0.000 A 
ATOM     16  S   UNL     1      49.435   9.009  19.020  0.00  0.00    +0.000 S 
ATOM     17  C   UNL     1      48.519   7.665  19.522  0.00  0.00    +0.000 A 
ATOM     18  N   UNL     1      48.073   7.562  20.800  0.00  0.00    +0.000 NA
ATOM     19  C   UNL     1      47.420   6.478  21.054  0.00  0.00    +0.000 A 
ATOM     20  N   UNL     1      47.166   5.489  20.137  0.00  0.00    +0.000 N 
ATOM     21  C   UNL     1      47.543   5.578  18.818  0.00  0.00    +0.000 A 
ATOM     22  O   UNL     1      47.208   4.724  18.005  0.00  0.00    +0.000 OA
ATOM     23  C   UNL     1      48.314   6.763  18.492  0.00  0.00    +0.000 A 
ATOM     24  H   UNL     1      46.625   4.676  20.391  0.00  0.00    +0.000 HD
ENDBRANCH  11  14
ENDBRANCH   9  10
ENDBRANCH   4   9
BRANCH   6  25
ATOM     25  C   UNL     1      43.629   5.786  11.079  0.00  0.00    +0.000 C 
BRANCH  25  26
ATOM     26  N   UNL     1      44.111   5.064   9.919  0.00  0.00    +0.000 N 
ATOM     27  C   UNL     1      44.053   3.691   9.810  0.00  0.00    +0.000 C 
ATOM     28  O   UNL     1      43.568   2.968  10.672  0.00  0.00    +0.000 OA
ATOM     29  H   UNL     1      44.424   5.619   9.137  0.00  0.00    +0.000 HD
BRANCH  27  30
ATOM     30  C   UNL     1      44.757   3.148   8.569  0.00  0.00    +0.000 C 
ATOM     31  C   UNL     1      45.545   1.865   8.819  0.00  0.00    +0.000 C 
ATOM     32  C   UNL     1      46.555   1.785   7.676  0.00  0.00    +0.000 C 
ATOM     33  C   UNL     1      46.652   3.191   7.088  0.00  0.00    +0.000 C 
ATOM     34  C   UNL     1      45.824   4.084   8.004  0.00  0.00    +0.000 C 
ENDBRANCH  27  30
ENDBRANCH  25  26
ENDBRANCH   6  25
TORSDOF 7
ENDMDL
MODEL 5
REMARK VINA RESULT:    -7.976      2.608      3.328
REMARK INTER + INTRA:         -12.428
REMARK INTER:                 -11.396
REMARK INTRA:                  -1.031
REMARK UNBOUND:                -1.188
REMARK  Name = 
REMARK  8 active torsions:
REMARK  status: ('A' for Active; 'I' for Inactive)
REMARK    1  A    between atoms: C_1  and  O_2
REMARK    2  A    between atoms: O_2  and  C_3
REMARK    3  A    between atoms: C_6  and  C_7
REMARK    4  A    between atoms: C_7  and  N_8
REMARK    5  A    between atoms: C_9  and  C_11
REMARK    6  A    between atoms: C_22  and  C_23
REMARK    7  A    between atoms: C_23  and  N_24
REMARK    8  A    between atoms: C_25  and  C_27
REMARK                            x       y       z     vdW  Elec       q    Type
REMARK                         _______ _______ _______ _____ _____    ______ ____
ROOT
ATOM      1  C   UNL     1      45.547   4.685  12.784  0.00  0.00    +0.000 A 
ATOM      2  C   UNL     1      46.462   4.751  13.843  0.00  0.00    +0.000 A 
ATOM      3  C   UNL     1      47.488   5.694  13.844  0.00  0.00    +0.000 A 
ATOM      4  C   UNL     1      47.647   6.568  12.769  0.00  0.00    +0.000 A 
ATOM      5  C   UNL     1      46.741   6.497  11.700  0.00  0.00    +0.000 A 
ATOM      6  C   UNL     1      45.681   5.569  11.698  0.00  0.00    +0.000 A 
ENDROOT
BRANCH   1   8
ATOM      7  C   UNL     1      43.269   4.244  13.256  0.00  0.00    +0.000 C 
ATOM      8  O   UNL     1      44.515   3.781  12.736  0.00  0.00    +0.000 OA
ENDBRANCH   1   8
BRANCH   4   9
ATOM      9  C   UNL     1      48.751   7.588  12.785  0.00  0.00    +0.000 C 
BRANCH   9  10
ATOM     10  N   UNL     1      49.828   7.186  13.653  0.00  0.00    +0.000 N 
ATOM     11  C   UNL     1      50.026   7.722  14.897  0.00  0.00    +0.000 C 
ATOM     12  O   UNL     1      49.309   8.605  15.362  0.00  0.00    +0.000 OA
ATOM     13  H   UNL     1      50.560   6.628  13.228  0.00  0.00    +0.000 HD
BRANCH  11  14
ATOM     14  C   UNL     1      51.107   7.121  15.693  0.00  0.00    +0.000 A 
ATOM     15  C   UNL     1      52.419   7.528  15.490  0.00  0.00    +0.000 A 
ATOM     16  S   UNL     1      53.540   6.775  16.530  0.00  0.00    +0.000 S 
ATOM     17  C   UNL     1      52.320   5.835  17.255  0.00  0.00    +0.000 A 
ATOM     18  N   UNL     1      52.616   4.938  18.230  0.00  0.00    +0.000 NA
ATOM     19  C   UNL     1      51.601   4.270  18.669  0.00  0.00    +0.000 A 
ATOM     20  N   UNL     1      50.314   4.428  18.223  0.00  0.00    +0.000 N 
ATOM     21  C   UNL     1      49.957   5.366  17.284  0.00  0.00    +0.000 A 
ATOM     22  O   UNL     1      48.783   5.549  16.986  0.00  0.00    +0.000 OA
ATOM     23  C   UNL     1      51.070   6.117  16.732  0.00  0.00    +0.000 A 
ATOM     24  H   UNL     1      49.559   3.893  18.626  0.00  0.00    +0.000 HD
ENDBRANCH  11  14
ENDBRANCH   9  10
ENDBRANCH   4   9
BRANCH   6  25
ATOM     25  C   UNL     1      44.710   5.595  10.542  0.00  0.00    +0.000 C 
BRANCH  25  26
ATOM     26  N   UNL     1      45.170   4.840   9.395  0.00  0.00    +0.000 N 
ATOM     27  C   UNL     1      44.706   3.579   9.088  0.00  0.00    +0.000 C 
ATOM     28  O   UNL     1      43.848   3.000   9.745  0.00  0.00    +0.000 OA
ATOM     29  H   UNL     1      45.799   5.313   8.764  0.00  0.00    +0.000 HD
BRANCH  27  30
ATOM     30  C   UNL     1      45.446   2.923   7.925  0.00  0.00    +0.000 C 
ATOM     31  C   UNL     1      46.117   1.601   8.288  0.00  0.00    +0.000 C 
ATOM     32  C   UNL     1      47.189   1.389   7.222  0.00  0.00    +0.000 C 
ATOM     33  C   UNL     1      47.431   2.752   6.577  0.00  0.00    +0.000 C 
ATOM     34  C   UNL     1      46.615   3.748   7.392  0.00  0.00    +0.000 C 
ENDBRANCH  27  30
ENDBRANCH  25  26
ENDBRANCH   6  25
TORSDOF 7
ENDMDL
MODEL 6
REMARK VINA RESULT:    -7.526      2.920      6.301
REMARK INTER + INTRA:         -11.793
REMARK INTER:                  -9.645
REMARK INTRA:                  -2.149
REMARK UNBOUND:                -1.188
REMARK  Name = 
REMARK  8 active torsions:
REMARK  status: ('A' for Active; 'I' for Inactive)
REMARK    1  A    between atoms: C_1  and  O_2
REMARK    2  A    between atoms: O_2  and  C_3
REMARK    3  A    between atoms: C_6  and  C_7
REMARK    4  A    between atoms: C_7  and  N_8
REMARK    5  A    between atoms: C_9  and  C_11
REMARK    6  A    between atoms: C_22  and  C_23
REMARK    7  A    between atoms: C_23  and  N_24
REMARK    8  A    between atoms: C_25  and  C_27
REMARK                            x       y       z     vdW  Elec       q    Type
REMARK                         _______ _______ _______ _____ _____    ______ ____
ROOT
ATOM      1  C   UNL     1      45.095   4.549  11.950  0.00  0.00    +0.000 A 
ATOM      2  C   UNL     1      44.461   5.614  11.297  0.00  0.00    +0.000 A 
ATOM      3  C   UNL     1      44.739   6.934  11.646  0.00  0.00    +0.000 A 
ATOM      4  C   UNL     1      45.631   7.219  12.680  0.00  0.00    +0.000 A 
ATOM      5  C   UNL     1      46.259   6.155  13.345  0.00  0.00    +0.000 A 
ATOM      6  C   UNL     1      46.010   4.817  12.985  0.00  0.00    +0.000 A 
ENDROOT
BRANCH   1   8
ATOM      7  C   UNL     1      43.494   2.882  11.434  0.00  0.00    +0.000 C 
ATOM      8  O   UNL     1      44.862   3.231  11.641  0.00  0.00    +0.000 OA
ENDBRANCH   1   8
BRANCH   4   9
ATOM      9  C   UNL     1      45.933   8.647  13.041  0.00  0.00    +0.000 C 
BRANCH   9  10
ATOM     10  N   UNL     1      46.886   8.728  14.119  0.00  0.00    +0.000 N 
ATOM     11  C   UNL     1      48.119   9.308  13.985  0.00  0.00    +0.000 C 
ATOM     12  O   UNL     1      48.516   9.788  12.926  0.00  0.00    +0.000 OA
ATOM     13  H   UNL     1      46.689   8.158  14.934  0.00  0.00    +0.000 HD
BRANCH  11  14
ATOM     14  C   UNL     1      48.923   9.402  15.213  0.00  0.00    +0.000 A 
ATOM     15  C   UNL     1      49.109  10.636  15.821  0.00  0.00    +0.000 A 
ATOM     16  S   UNL     1      50.018  10.561  17.262  0.00  0.00    +0.000 S 
ATOM     17  C   UNL     1      50.242   8.881  17.098  0.00  0.00    +0.000 A 
ATOM     18  N   UNL     1      50.970   8.183  18.006  0.00  0.00    +0.000 NA
ATOM     19  C   UNL     1      51.088   6.924  17.743  0.00  0.00    +0.000 A 
ATOM     20  N   UNL     1      50.533   6.301  16.655  0.00  0.00    +0.000 N 
ATOM     21  C   UNL     1      49.736   6.954  15.744  0.00  0.00    +0.000 A 
ATOM     22  O   UNL     1      49.173   6.344  14.843  0.00  0.00    +0.000 OA
ATOM     23  C   UNL     1      49.605   8.381  15.976  0.00  0.00    +0.000 A 
ATOM     24  H   UNL     1      50.639   5.307  16.519  0.00  0.00    +0.000 HD
ENDBRANCH  11  14
ENDBRANCH   9  10
ENDBRANCH   4   9
BRANCH   6  25
ATOM     25  C   UNL     1      46.770   3.729  13.704  0.00  0.00    +0.000 C 
BRANCH  25  26
ATOM     26  N   UNL     1      46.925   3.983  15.121  0.00  0.00    +0.000 N 
ATOM     27  C   UNL     1      47.801   3.281  15.921  0.00  0.00    +0.000 C 
ATOM     28  O   UNL     1      48.540   2.401  15.497  0.00  0.00    +0.000 OA
ATOM     29  H   UNL     1      46.415   4.768  15.499  0.00  0.00    +0.000 HD
BRANCH  27  30
ATOM     30  C   UNL     1      47.678   3.621  17.404  0.00  0.00    +0.000 C 
ATOM     31  C   UNL     1      47.301   5.075  17.675  0.00  0.00    +0.000 C 
ATOM     32  C   UNL     1      47.734   5.341  19.114  0.00  0.00    +0.000 C 
ATOM     33  C   UNL     1      48.736   4.246  19.472  0.00  0.00    +0.000 C 
ATOM     34  C   UNL     1      48.983   3.470  18.184  0.00  0.00    +0.000 C 
ENDBRANCH  27  30
ENDBRANCH  25  26
ENDBRANCH   6  25
TORSDOF 7
ENDMDL
MODEL 7
REMARK VINA RESULT:    -7.410      3.308      8.788
REMARK INTER + INTRA:         -11.629
REMARK INTER:                 -10.330
REMARK INTRA:                  -1.300
REMARK UNBOUND:                -1.188
REMARK  Name = 
REMARK  8 active torsions:
REMARK  status: ('A' for Active; 'I' for Inactive)
REMARK    1  A    between atoms: C_1  and  O_2
REMARK    2  A    between atoms: O_2  and  C_3
REMARK    3  A    between atoms: C_6  and  C_7
REMARK    4  A    between atoms: C_7  and  N_8
REMARK    5  A    between atoms: C_9  and  C_11
REMARK    6  A    between atoms: C_22  and  C_23
REMARK    7  A    between atoms: C_23  and  N_24
REMARK    8  A    between atoms: C_25  and  C_27
REMARK                            x       y       z     vdW  Elec       q    Type
REMARK                         _______ _______ _______ _____ _____    ______ ____
ROOT
ATOM      1  C   UNL     1      48.867   5.857  19.066  0.00  0.00    +0.000 A 
ATOM      2  C   UNL     1      48.866   7.257  19.017  0.00  0.00    +0.000 A 
ATOM      3  C   UNL     1      48.875   7.930  17.796  0.00  0.00    +0.000 A 
ATOM      4  C   UNL     1      48.921   7.219  16.597  0.00  0.00    +0.000 A 
ATOM      5  C   UNL     1      48.936   5.817  16.642  0.00  0.00    +0.000 A 
ATOM      6  C   UNL     1      48.898   5.122  17.867  0.00  0.00    +0.000 A 
ENDROOT
BRANCH   1   8
ATOM      7  C   UNL     1      50.073   5.159  20.981  0.00  0.00    +0.000 C 
ATOM      8  O   UNL     1      48.853   5.146  20.241  0.00  0.00    +0.000 OA
ENDBRANCH   1   8
BRANCH   4   9
ATOM      9  C   UNL     1      48.920   7.954  15.286  0.00  0.00    +0.000 C 
BRANCH   9  10
ATOM     10  N   UNL     1      47.784   7.588  14.478  0.00  0.00    +0.000 N 
ATOM     11  C   UNL     1      47.867   6.730  13.415  0.00  0.00    +0.000 C 
ATOM     12  O   UNL     1      48.925   6.219  13.054  0.00  0.00    +0.000 OA
ATOM     13  H   UNL     1      46.948   8.149  14.602  0.00  0.00    +0.000 HD
BRANCH  11  14
ATOM     14  C   UNL     1      46.593   6.382  12.766  0.00  0.00    +0.000 A 
ATOM     15  C   UNL     1      45.843   7.373  12.148  0.00  0.00    +0.000 A 
ATOM     16  S   UNL     1      44.425   6.793  11.399  0.00  0.00    +0.000 S 
ATOM     17  C   UNL     1      44.734   5.202  11.920  0.00  0.00    +0.000 A 
ATOM     18  N   UNL     1      43.874   4.193  11.631  0.00  0.00    +0.000 NA
ATOM     19  C   UNL     1      44.213   3.045  12.114  0.00  0.00    +0.000 A 
ATOM     20  N   UNL     1      45.345   2.815  12.855  0.00  0.00    +0.000 N 
ATOM     21  C   UNL     1      46.276   3.792  13.119  0.00  0.00    +0.000 A 
ATOM     22  O   UNL     1      47.325   3.527  13.694  0.00  0.00    +0.000 OA
ATOM     23  C   UNL     1      45.920   5.110  12.628  0.00  0.00    +0.000 A 
ATOM     24  H   UNL     1      45.568   1.888  13.182  0.00  0.00    +0.000 HD
ENDBRANCH  11  14
ENDBRANCH   9  10
ENDBRANCH   4   9
BRANCH   6  25
ATOM     25  C   UNL     1      48.852   3.614  17.833  0.00  0.00    +0.000 C 
BRANCH  25  26
ATOM     26  N   UNL     1      50.128   2.998  18.136  0.00  0.00    +0.000 N 
ATOM     27  C   UNL     1      50.720   2.055  17.323  0.00  0.00    +0.000 C 
ATOM     28  O   UNL     1      50.230   1.675  16.266  0.00  0.00    +0.000 OA
ATOM     29  H   UNL     1      50.622   3.352  18.941  0.00  0.00    +0.000 HD
BRANCH  27  30
ATOM     30  C   UNL     1      51.983   1.440  17.923  0.00  0.00    +0.000 C 
ATOM     31  C   UNL     1      53.012   2.470  18.381  0.00  0.00    +0.000 C 
ATOM     32  C   UNL     1      54.337   1.714  18.439  0.00  0.00    +0.000 C 
ATOM     33  C   UNL     1      54.152   0.454  17.597  0.00  0.00    +0.000 C 
ATOM     34  C   UNL     1      52.784   0.590  16.939  0.00  0.00    +0.000 C 
ENDBRANCH  27  30
ENDBRANCH  25  26
ENDBRANCH   6  25
TORSDOF 7
ENDMDL
MODEL 8
REMARK VINA RESULT:    -7.406      2.286      2.766
REMARK INTER + INTRA:         -11.624
REMARK INTER:                 -10.283
REMARK INTRA:                  -1.341
REMARK UNBOUND:                -1.188
REMARK  Name = 
REMARK  8 active torsions:
REMARK  status: ('A' for Active; 'I' for Inactive)
REMARK    1  A    between atoms: C_1  and  O_2
REMARK    2  A    between atoms: O_2  and  C_3
REMARK    3  A    between atoms: C_6  and  C_7
REMARK    4  A    between atoms: C_7  and  N_8
REMARK    5  A    between atoms: C_9  and  C_11
REMARK    6  A    between atoms: C_22  and  C_23
REMARK    7  A    between atoms: C_23  and  N_24
REMARK    8  A    between atoms: C_25  and  C_27
REMARK                            x       y       z     vdW  Elec       q    Type
REMARK                         _______ _______ _______ _____ _____    ______ ____
ROOT
ATOM      1  C   UNL     1      45.070   8.582  11.726  0.00  0.00    +0.000 A 
ATOM      2  C   UNL     1      46.178   9.343  12.117  0.00  0.00    +0.000 A 
ATOM      3  C   UNL     1      47.347   8.729  12.563  0.00  0.00    +0.000 A 
ATOM      4  C   UNL     1      47.422   7.340  12.664  0.00  0.00    +0.000 A 
ATOM      5  C   UNL     1      46.309   6.573  12.286  0.00  0.00    +0.000 A 
ATOM      6  C   UNL     1      45.131   7.178  11.806  0.00  0.00    +0.000 A 
ENDROOT
BRANCH   1   8
ATOM      7  C   UNL     1      43.984  10.497  10.855  0.00  0.00    +0.000 C 
ATOM      8  O   UNL     1      43.898   9.136  11.274  0.00  0.00    +0.000 OA
ENDBRANCH   1   8
BRANCH   4   9
ATOM      9  C   UNL     1      48.690   6.687  13.136  0.00  0.00    +0.000 C 
BRANCH   9  10
ATOM     10  N   UNL     1      48.842   6.801  14.564  0.00  0.00    +0.000 N 
ATOM     11  C   UNL     1      48.338   5.883  15.446  0.00  0.00    +0.000 C 
ATOM     12  O   UNL     1      47.697   4.898  15.087  0.00  0.00    +0.000 OA
ATOM     13  H   UNL     1      49.167   7.697  14.909  0.00  0.00    +0.000 HD
BRANCH  11  14
ATOM     14  C   UNL     1      48.677   6.096  16.862  0.00  0.00    +0.000 A 
ATOM     15  C   UNL     1      49.086   5.022  17.640  0.00  0.00    +0.000 A 
ATOM     16  S   UNL     1      49.493   5.450  19.240  0.00  0.00    +0.000 S 
ATOM     17  C   UNL     1      49.086   7.080  18.967  0.00  0.00    +0.000 A 
ATOM     18  N   UNL     1      49.183   8.000  19.960  0.00  0.00    +0.000 NA
ATOM     19  C   UNL     1      48.811   9.190  19.625  0.00  0.00    +0.000 A 
ATOM     20  N   UNL     1      48.359   9.543  18.380  0.00  0.00    +0.000 N 
ATOM     21  C   UNL     1      48.303   8.661  17.326  0.00  0.00    +0.000 A 
ATOM     22  O   UNL     1      47.993   9.036  16.202  0.00  0.00    +0.000 OA
ATOM     23  C   UNL     1      48.675   7.299  17.663  0.00  0.00    +0.000 A 
ATOM     24  H   UNL     1      48.108  10.498  18.173  0.00  0.00    +0.000 HD
ENDBRANCH  11  14
ENDBRANCH   9  10
ENDBRANCH   4   9
BRANCH   6  25
ATOM     25  C   UNL     1      43.999   6.285  11.359  0.00  0.00    +0.000 C 
BRANCH  25  26
ATOM     26  N   UNL     1      44.334   5.475  10.206  0.00  0.00    +0.000 N 
ATOM     27  C   UNL     1      43.987   4.146  10.093  0.00  0.00    +0.000 C 
ATOM     28  O   UNL     1      43.345   3.544  10.945  0.00  0.00    +0.000 OA
ATOM     29  H   UNL     1      44.771   5.951   9.430  0.00  0.00    +0.000 HD
BRANCH  27  30
ATOM     30  C   UNL     1      44.579   3.464   8.862  0.00  0.00    +0.000 C 
ATOM     31  C   UNL     1      45.180   2.091   9.147  0.00  0.00    +0.000 C 
ATOM     32  C   UNL     1      46.143   1.827   7.992  0.00  0.00    +0.000 C 
ATOM     33  C   UNL     1      46.428   3.182   7.349  0.00  0.00    +0.000 C 
ATOM     34  C   UNL     1      45.756   4.217   8.245  0.00  0.00    +0.000 C 
ENDBRANCH  27  30
ENDBRANCH  25  26
ENDBRANCH   6  25
TORSDOF 7
ENDMDL
MODEL 9
REMARK VINA RESULT:    -6.988      3.336      8.677
REMARK INTER + INTRA:         -11.035
REMARK INTER:                  -9.651
REMARK INTRA:                  -1.385
REMARK UNBOUND:                -1.188
REMARK  Name = 
REMARK  8 active torsions:
REMARK  status: ('A' for Active; 'I' for Inactive)
REMARK    1  A    between atoms: C_1  and  O_2
REMARK    2  A    between atoms: O_2  and  C_3
REMARK    3  A    between atoms: C_6  and  C_7
REMARK    4  A    between atoms: C_7  and  N_8
REMARK    5  A    between atoms: C_9  and  C_11
REMARK    6  A    between atoms: C_22  and  C_23
REMARK    7  A    between atoms: C_23  and  N_24
REMARK    8  A    between atoms: C_25  and  C_27
REMARK                            x       y       z     vdW  Elec       q    Type
REMARK                         _______ _______ _______ _____ _____    ______ ____
ROOT
ATOM      1  C   UNL     1      48.587   7.322  16.981  0.00  0.00    +0.000 A 
ATOM      2  C   UNL     1      48.754   8.566  16.361  0.00  0.00    +0.000 A 
ATOM      3  C   UNL     1      48.774   8.677  14.972  0.00  0.00    +0.000 A 
ATOM      4  C   UNL     1      48.664   7.540  14.171  0.00  0.00    +0.000 A 
ATOM      5  C   UNL     1      48.510   6.290  14.788  0.00  0.00    +0.000 A 
ATOM      6  C   UNL     1      48.459   6.165  16.190  0.00  0.00    +0.000 A 
ENDROOT
BRANCH   1   8
ATOM      7  C   UNL     1      47.583   7.945  19.034  0.00  0.00    +0.000 C 
ATOM      8  O   UNL     1      48.554   7.158  18.344  0.00  0.00    +0.000 OA
ENDBRANCH   1   8
BRANCH   4   9
ATOM      9  C   UNL     1      48.676   7.671  12.673  0.00  0.00    +0.000 C 
BRANCH   9  10
ATOM     10  N   UNL     1      47.836   6.679  12.050  0.00  0.00    +0.000 N 
ATOM     11  C   UNL     1      46.498   6.866  11.828  0.00  0.00    +0.000 C 
ATOM     12  O   UNL     1      45.905   7.889  12.161  0.00  0.00    +0.000 OA
ATOM     13  H   UNL     1      48.232   5.750  11.962  0.00  0.00    +0.000 HD
BRANCH  11  14
ATOM     14  C   UNL     1      45.814   5.796  11.084  0.00  0.00    +0.000 A 
ATOM     15  C   UNL     1      45.931   5.736   9.703  0.00  0.00    +0.000 A 
ATOM     16  S   UNL     1      45.124   4.406   9.003  0.00  0.00    +0.000 S 
ATOM     17  C   UNL     1      44.542   3.892  10.518  0.00  0.00    +0.000 A 
ATOM     18  N   UNL     1      43.745   2.799  10.625  0.00  0.00    +0.000 NA
ATOM     19  C   UNL     1      43.349   2.541  11.827  0.00  0.00    +0.000 A 
ATOM     20  N   UNL     1      43.688   3.276  12.933  0.00  0.00    +0.000 N 
ATOM     21  C   UNL     1      44.542   4.353  12.883  0.00  0.00    +0.000 A 
ATOM     22  O   UNL     1      44.905   4.922  13.905  0.00  0.00    +0.000 OA
ATOM     23  C   UNL     1      44.985   4.706  11.546  0.00  0.00    +0.000 A 
ATOM     24  H   UNL     1      43.367   3.007  13.851  0.00  0.00    +0.000 HD
ENDBRANCH  11  14
ENDBRANCH   9  10
ENDBRANCH   4   9
BRANCH   6  25
ATOM     25  C   UNL     1      48.226   4.795  16.779  0.00  0.00    +0.000 C 
BRANCH  25  26
ATOM     26  N   UNL     1      49.421   4.214  17.356  0.00  0.00    +0.000 N 
ATOM     27  C   UNL     1      49.897   2.969  17.005  0.00  0.00    +0.000 C 
ATOM     28  O   UNL     1      49.366   2.259  16.160  0.00  0.00    +0.000 OA
ATOM     29  H   UNL     1      49.954   4.800  17.981  0.00  0.00    +0.000 HD
BRANCH  27  30
ATOM     30  C   UNL     1      51.079   2.507  17.855  0.00  0.00    +0.000 C 
ATOM     31  C   UNL     1      52.229   3.508  17.907  0.00  0.00    +0.000 C 
ATOM     32  C   UNL     1      53.452   2.693  18.320  0.00  0.00    +0.000 C 
ATOM     33  C   UNL     1      53.109   1.231  18.044  0.00  0.00    +0.000 C 
ATOM     34  C   UNL     1      51.764   1.247  17.328  0.00  0.00    +0.000 C 
ENDBRANCH  27  30
ENDBRANCH  25  26
ENDBRANCH   6  25
TORSDOF 7
ENDMDL
