MODEL 1
REMARK VINA RESULT:    -8.149      0.000      0.000
REMARK INTER + INTRA:         -11.934
REMARK INTER:                 -11.246
REMARK INTRA:                  -0.689
REMARK UNBOUND:                -0.689
REMARK  Name = 
REMARK  7 active torsions:
REMARK  status: ('A' for Active; 'I' for Inactive)
REMARK    1  A    between atoms: N_1  and  C_2
REMARK    2  A    between atoms: C_2  and  C_3
REMARK    3  A    between atoms: C_3  and  N_4
REMARK    4  A    between atoms: C_3  and  C_17
REMARK    5  A    between atoms: C_5  and  C_7
REMARK    6  A    between atoms: C_20  and  O_21
REMARK    7  A    between atoms: O_21  and  C_22
REMARK                            x       y       z     vdW  Elec       q    Type
REMARK                         _______ _______ _______ _____ _____    ______ ____
ROOT
ATOM      1  C   UNL     1      46.370   6.934  12.759  0.00  0.00    +0.000 C 
ENDROOT
BRANCH   1   2
ATOM      2  C   UNL     1      45.904   5.887  11.747  0.00  0.00    +0.000 A 
ATOM      3  C   UNL     1      45.352   4.679  12.197  0.00  0.00    +0.000 A 
ATOM      4  C   UNL     1      44.911   3.713  11.288  0.00  0.00    +0.000 A 
ATOM      5  C   UNL     1      44.971   3.955   9.915  0.00  0.00    +0.000 A 
ATOM      6  C   UNL     1      45.540   5.143   9.453  0.00  0.00    +0.000 A 
ATOM      7  C   UNL     1      45.997   6.105  10.361  0.00  0.00    +0.000 A 
BRANCH   5   8
ATOM      8  O   UNL     1      44.573   3.048   8.956  0.00  0.00    +0.000 OA
BRANCH   8   9
ATOM      9  C   UNL     1      45.535   2.499   8.116  0.00  0.00    +0.000 A 
ATOM     10  C   UNL     1      45.887   3.248   7.002  0.00  0.00    +0.000 A 
ATOM     11  C   UNL     1      46.858   2.740   6.143  0.00  0.00    +0.000 A 
ATOM     12  C   UNL     1      47.437   1.506   6.421  0.00  0.00    +0.000 A 
ATOM     13  C   UNL     1      47.002   0.817   7.542  0.00  0.00    +0.000 A 
ATOM     14  N   UNL     1      46.054   1.277   8.385  0.00  0.00    +0.000 NA
ENDBRANCH   8   9
ENDBRANCH   5   8
ENDBRANCH   1   2
BRANCH   1  15
ATOM     15  N   UNL     1      46.611   6.270  14.034  0.00  0.00    +0.000 N 
ATOM     16  C   UNL     1      47.863   5.906  14.458  0.00  0.00    +0.000 C 
ATOM     17  O   UNL     1      48.890   6.227  13.870  0.00  0.00    +0.000 OA
ATOM     18  H   UNL     1      45.820   5.758  14.409  0.00  0.00    +0.000 HD
BRANCH  16  19
ATOM     19  C   UNL     1      47.913   5.152  15.715  0.00  0.00    +0.000 A 
ATOM     20  C   UNL     1      47.484   3.833  15.756  0.00  0.00    +0.000 A 
ATOM     21  S   UNL     1      47.637   3.119  17.298  0.00  0.00    +0.000 S 
ATOM     22  C   UNL     1      48.225   4.569  17.972  0.00  0.00    +0.000 A 
ATOM     23  N   UNL     1      48.523   4.660  19.297  0.00  0.00    +0.000 NA
ATOM     24  C   UNL     1      48.918   5.830  19.673  0.00  0.00    +0.000 A 
ATOM     25  N   UNL     1      49.055   6.915  18.846  0.00  0.00    +0.000 N 
ATOM     26  C   UNL     1      48.818   6.852  17.495  0.00  0.00    +0.000 A 
ATOM     27  O   UNL     1      49.034   7.815  16.766  0.00  0.00    +0.000 OA
ATOM     28  C   UNL     1      48.335   5.570  17.027  0.00  0.00    +0.000 A 
ATOM     29  H   UNL     1      49.393   7.799  19.195  0.00  0.00    +0.000 HD
ENDBRANCH  16  19
ENDBRANCH   1  15
BRANCH   1  30
ATOM     30  C   UNL     1      45.357   8.110  12.889  0.00  0.00    +0.000 C 
BRANCH  30  31
ATOM     31  N   UNL     1      45.954   9.450  12.792  0.00  0.00    +0.000 NA
ATOM     32  H   UNL     1      45.331  10.117  13.243  0.00  0.00    +0.000 HD
ATOM     33  H   UNL     1      46.008   9.726  11.811  0.00  0.00    +0.000 HD
ENDBRANCH  30  31
ENDBRANCH   1  30
TORSDOF 7
ENDMDL
MODEL 2
REMARK VINA RESULT:    -8.113      1.634      2.194
REMARK INTER + INTRA:         -11.884
REMARK INTER:                 -11.292
REMARK INTRA:                  -0.592
REMARK UNBOUND:                -0.689
REMARK  Name = 
REMARK  7 active torsions:
REMARK  status: ('A' for Active; 'I' for Inactive)
REMARK    1  A    between atoms: N_1  and  C_2
REMARK    2  A    between atoms: C_2  and  C_3
REMARK    3  A    between atoms: C_3  and  N_4
REMARK    4  A    between atoms: C_3  and  C_17
REMARK    5  A    between atoms: C_5  and  C_7
REMARK    6  A    between atoms: C_20  and  O_21
REMARK    7  A    between atoms: O_21  and  C_22
REMARK                            x       y       z     vdW  Elec       q    Type
REMARK                         _______ _______ _______ _____ _____    ______ ____
ROOT
ATOM      1  C   UNL     1      45.772   7.721  12.127  0.00  0.00    +0.000 C 
ENDROOT
BRANCH   1   2
ATOM      2  C   UNL     1      45.423   6.441  11.365  0.00  0.00    +0.000 A 
ATOM      3  C   UNL     1      44.413   5.596  11.847  0.00  0.00    +0.000 A 
ATOM      4  C   UNL     1      44.071   4.428  11.161  0.00  0.00    +0.000 A 
ATOM      5  C   UNL     1      44.701   4.105   9.958  0.00  0.00    +0.000 A 
ATOM      6  C   UNL     1      45.725   4.924   9.479  0.00  0.00    +0.000 A 
ATOM      7  C   UNL     1      46.080   6.087  10.174  0.00  0.00    +0.000 A 
BRANCH   5   8
ATOM      8  O   UNL     1      44.434   2.965   9.231  0.00  0.00    +0.000 OA
BRANCH   8   9
ATOM      9  C   UNL     1      45.387   2.510   8.328  0.00  0.00    +0.000 A 
ATOM     10  C   UNL     1      45.640   3.322   7.231  0.00  0.00    +0.000 A 
ATOM     11  C   UNL     1      46.599   2.910   6.310  0.00  0.00    +0.000 A 
ATOM     12  C   UNL     1      47.264   1.705   6.510  0.00  0.00    +0.000 A 
ATOM     13  C   UNL     1      46.926   0.947   7.620  0.00  0.00    +0.000 A 
ATOM     14  N   UNL     1      45.992   1.313   8.522  0.00  0.00    +0.000 NA
ENDBRANCH   8   9
ENDBRANCH   5   8
ENDBRANCH   1   2
BRANCH   1  15
ATOM     15  N   UNL     1      46.449   7.352  13.364  0.00  0.00    +0.000 N 
ATOM     16  C   UNL     1      47.791   7.077  13.426  0.00  0.00    +0.000 C 
ATOM     17  O   UNL     1      48.554   7.247  12.482  0.00  0.00    +0.000 OA
ATOM     18  H   UNL     1      45.851   6.946  14.076  0.00  0.00    +0.000 HD
BRANCH  16  19
ATOM     19  C   UNL     1      48.285   6.619  14.728  0.00  0.00    +0.000 A 
ATOM     20  C   UNL     1      49.221   7.369  15.424  0.00  0.00    +0.000 A 
ATOM     21  S   UNL     1      49.658   6.684  16.925  0.00  0.00    +0.000 S 
ATOM     22  C   UNL     1      48.654   5.333  16.663  0.00  0.00    +0.000 A 
ATOM     23  N   UNL     1      48.589   4.319  17.568  0.00  0.00    +0.000 NA
ATOM     24  C   UNL     1      47.819   3.343  17.216  0.00  0.00    +0.000 A 
ATOM     25  N   UNL     1      47.098   3.293  16.051  0.00  0.00    +0.000 N 
ATOM     26  C   UNL     1      47.094   4.318  15.138  0.00  0.00    +0.000 A 
ATOM     27  O   UNL     1      46.370   4.283  14.147  0.00  0.00    +0.000 OA
ATOM     28  C   UNL     1      47.971   5.422  15.466  0.00  0.00    +0.000 A 
ATOM     29  H   UNL     1      46.494   2.513  15.845  0.00  0.00    +0.000 HD
ENDBRANCH  16  19
ENDBRANCH   1  15
BRANCH   1  30
ATOM     30  C   UNL     1      44.519   8.609  12.381  0.00  0.00    +0.000 C 
BRANCH  30  31
ATOM     31  N   UNL     1      44.803  10.040  12.552  0.00  0.00    +0.000 NA
ATOM     32  H   UNL     1      45.018  10.441  11.641  0.00  0.00    +0.000 HD
ATOM     33  H   UNL     1      45.642  10.153  13.121  0.00  0.00    +0.000 HD
ENDBRANCH  30  31
ENDBRANCH   1  30
TORSDOF 7
ENDMDL
MODEL 3
REMARK VINA RESULT:    -7.922      3.211      4.234
REMARK INTER + INTRA:         -11.620
REMARK INTER:                 -10.319
REMARK INTRA:                  -1.302
REMARK UNBOUND:                -0.689
REMARK  Name = 
REMARK  7 active torsions:
REMARK  status: ('A' for Active; 'I' for Inactive)
REMARK    1  A    between atoms: N_1  and  C_2
REMARK    2  A    between atoms: C_2  and  C_3
REMARK    3  A    between atoms: C_3  and  N_4
REMARK    4  A    between atoms: C_3  and  C_17
REMARK    5  A    between atoms: C_5  and  C_7
REMARK    6  A    between atoms: C_20  and  O_21
REMARK    7  A    between atoms: O_21  and  C_22
REMARK                            x       y       z     vdW  Elec       q    Type
REMARK                         _______ _______ _______ _____ _____    ______ ____
ROOT
ATOM      1  C   UNL     1      46.369   5.849  13.584  0.00  0.00    +0.000 C 
ENDROOT
BRANCH   1   2
ATOM      2  C   UNL     1      45.910   5.137  12.310  0.00  0.00    +0.000 A 
ATOM      3  C   UNL     1      45.424   3.824  12.381  0.00  0.00    +0.000 A 
ATOM      4  C   UNL     1      44.990   3.160  11.230  0.00  0.00    +0.000 A 
ATOM      5  C   UNL     1      44.993   3.812   9.996  0.00  0.00    +0.000 A 
ATOM      6  C   UNL     1      45.497   5.110   9.907  0.00  0.00    +0.000 A 
ATOM      7  C   UNL     1      45.947   5.771  11.056  0.00  0.00    +0.000 A 
BRANCH   5   8
ATOM      8  O   UNL     1      44.598   3.222   8.814  0.00  0.00    +0.000 OA
BRANCH   8   9
ATOM      9  C   UNL     1      45.561   2.615   8.016  0.00  0.00    +0.000 A 
ATOM     10  C   UNL     1      45.934   3.297   6.867  0.00  0.00    +0.000 A 
ATOM     11  C   UNL     1      46.907   2.730   6.048  0.00  0.00    +0.000 A 
ATOM     12  C   UNL     1      47.466   1.506   6.399  0.00  0.00    +0.000 A 
ATOM     13  C   UNL     1      47.011   0.886   7.551  0.00  0.00    +0.000 A 
ATOM     14  N   UNL     1      46.061   1.403   8.356  0.00  0.00    +0.000 NA
ENDBRANCH   8   9
ENDBRANCH   5   8
ENDBRANCH   1   2
BRANCH   1  15
ATOM     15  N   UNL     1      47.495   6.712  13.252  0.00  0.00    +0.000 N 
ATOM     16  C   UNL     1      47.406   8.080  13.240  0.00  0.00    +0.000 C 
ATOM     17  O   UNL     1      46.419   8.692  13.635  0.00  0.00    +0.000 OA
ATOM     18  H   UNL     1      48.212   6.281  12.678  0.00  0.00    +0.000 HD
BRANCH  16  19
ATOM     19  C   UNL     1      48.603   8.790  12.779  0.00  0.00    +0.000 A 
ATOM     20  C   UNL     1      48.507   9.752  11.785  0.00  0.00    +0.000 A 
ATOM     21  S   UNL     1      50.001  10.480  11.398  0.00  0.00    +0.000 S 
ATOM     22  C   UNL     1      50.833   9.488  12.506  0.00  0.00    +0.000 A 
ATOM     23  N   UNL     1      52.184   9.570  12.648  0.00  0.00    +0.000 NA
ATOM     24  C   UNL     1      52.681   8.729  13.492  0.00  0.00    +0.000 A 
ATOM     25  N   UNL     1      51.951   7.823  14.218  0.00  0.00    +0.000 N 
ATOM     26  C   UNL     1      50.583   7.745  14.145  0.00  0.00    +0.000 A 
ATOM     27  O   UNL     1      49.950   6.984  14.872  0.00  0.00    +0.000 OA
ATOM     28  C   UNL     1      49.978   8.641  13.183  0.00  0.00    +0.000 A 
ATOM     29  H   UNL     1      52.396   7.208  14.883  0.00  0.00    +0.000 HD
ENDBRANCH  16  19
ENDBRANCH   1  15
BRANCH   1  30
ATOM     30  C   UNL     1      46.713   4.842  14.722  0.00  0.00    +0.000 C 
BRANCH  30  31
ATOM     31  N   UNL     1      47.857   5.227  15.560  0.00  0.00    +0.000 NA
ATOM     32  H   UNL     1      47.522   5.411  16.504  0.00  0.00    +0.000 HD
ATOM     33  H   UNL     1      48.247   6.106  15.217  0.00  0.00    +0.000 HD
ENDBRANCH  30  31
ENDBRANCH   1  30
TORSDOF 7
ENDMDL
MODEL 4
REMARK VINA RESULT:    -7.638      1.708      2.183
REMARK INTER + INTRA:         -11.228
REMARK INTER:                  -9.986
REMARK INTRA:                  -1.243
REMARK UNBOUND:                -0.689
REMARK  Name = 
REMARK  7 active torsions:
REMARK  status: ('A' for Active; 'I' for Inactive)
REMARK    1  A    between atoms: N_1  and  C_2
REMARK    2  A    between atoms: C_2  and  C_3
REMARK    3  A    between atoms: C_3  and  N_4
REMARK    4  A    between atoms: C_3  and  C_17
REMARK    5  A    between atoms: C_5  and  C_7
REMARK    6  A    between atoms: C_20  and  O_21
REMARK    7  A    between atoms: O_21  and  C_22
REMARK                            x       y       z     vdW  Elec       q    Type
REMARK                         _______ _______ _______ _____ _____    ______ ____
ROOT
ATOM      1  C   UNL     1      48.353   7.241  14.108  0.00  0.00    +0.000 C 
ENDROOT
BRANCH   1   2
ATOM      2  C   UNL     1      47.362   6.540  13.177  0.00  0.00    +0.000 A 
ATOM      3  C   UNL     1      46.820   5.299  13.543  0.00  0.00    +0.000 A 
ATOM      4  C   UNL     1      45.905   4.647  12.712  0.00  0.00    +0.000 A 
ATOM      5  C   UNL     1      45.482   5.242  11.523  0.00  0.00    +0.000 A 
ATOM      6  C   UNL     1      46.031   6.465  11.135  0.00  0.00    +0.000 A 
ATOM      7  C   UNL     1      46.960   7.113  11.959  0.00  0.00    +0.000 A 
BRANCH   5   8
ATOM      8  O   UNL     1      44.597   4.657  10.642  0.00  0.00    +0.000 OA
BRANCH   8   9
ATOM      9  C   UNL     1      45.100   3.840   9.636  0.00  0.00    +0.000 A 
ATOM     10  C   UNL     1      45.661   4.479   8.540  0.00  0.00    +0.000 A 
ATOM     11  C   UNL     1      46.189   3.697   7.516  0.00  0.00    +0.000 A 
ATOM     12  C   UNL     1      46.133   2.311   7.619  0.00  0.00    +0.000 A 
ATOM     13  C   UNL     1      45.528   1.762   8.738  0.00  0.00    +0.000 A 
ATOM     14  N   UNL     1      44.996   2.493   9.738  0.00  0.00    +0.000 NA
ENDBRANCH   8   9
ENDBRANCH   5   8
ENDBRANCH   1   2
BRANCH   1  15
ATOM     15  N   UNL     1      48.231   6.656  15.438  0.00  0.00    +0.000 N 
ATOM     16  C   UNL     1      49.313   6.232  16.166  0.00  0.00    +0.000 C 
ATOM     17  O   UNL     1      50.472   6.429  15.821  0.00  0.00    +0.000 OA
ATOM     18  H   UNL     1      47.331   6.236  15.641  0.00  0.00    +0.000 HD
BRANCH  16  19
ATOM     19  C   UNL     1      49.001   5.571  17.437  0.00  0.00    +0.000 A 
ATOM     20  C   UNL     1      49.174   4.202  17.575  0.00  0.00    +0.000 A 
ATOM     21  S   UNL     1      48.778   3.621  19.130  0.00  0.00    +0.000 S 
ATOM     22  C   UNL     1      48.305   5.174  19.649  0.00  0.00    +0.000 A 
ATOM     23  N   UNL     1      47.813   5.378  20.901  0.00  0.00    +0.000 NA
ATOM     24  C   UNL     1      47.457   6.596  21.139  0.00  0.00    +0.000 A 
ATOM     25  N   UNL     1      47.560   7.632  20.247  0.00  0.00    +0.000 N 
ATOM     26  C   UNL     1      48.100   7.480  18.994  0.00  0.00    +0.000 A 
ATOM     27  O   UNL     1      48.260   8.443  18.250  0.00  0.00    +0.000 OA
ATOM     28  C   UNL     1      48.481   6.123  18.662  0.00  0.00    +0.000 A 
ATOM     29  H   UNL     1      47.287   8.569  20.501  0.00  0.00    +0.000 HD
ENDBRANCH  16  19
ENDBRANCH   1  15
BRANCH   1  30
ATOM     30  C   UNL     1      48.149   8.785  14.121  0.00  0.00    +0.000 C 
BRANCH  30  31
ATOM     31  N   UNL     1      47.491   9.309  15.325  0.00  0.00    +0.000 NA
ATOM     32  H   UNL     1      48.148   9.908  15.821  0.00  0.00    +0.000 HD
ATOM     33  H   UNL     1      47.274   8.537  15.956  0.00  0.00    +0.000 HD
ENDBRANCH  30  31
ENDBRANCH   1  30
TORSDOF 7
ENDMDL
MODEL 5
REMARK VINA RESULT:    -7.389      2.747      3.966
REMARK INTER + INTRA:         -10.886
REMARK INTER:                 -10.466
REMARK INTRA:                  -0.420
REMARK UNBOUND:                -0.689
REMARK  Name = 
REMARK  7 active torsions:
REMARK  status: ('A' for Active; 'I' for Inactive)
REMARK    1  A    between atoms: N_1  and  C_2
REMARK    2  A    between atoms: C_2  and  C_3
REMARK    3  A    between atoms: C_3  and  N_4
REMARK    4  A    between atoms: C_3  and  C_17
REMARK    5  A    between atoms: C_5  and  C_7
REMARK    6  A    between atoms: C_20  and  O_21
REMARK    7  A    between atoms: O_21  and  C_22
REMARK                            x       y       z     vdW  Elec       q    Type
REMARK                         _______ _______ _______ _____ _____    ______ ____
ROOT
ATOM      1  C   UNL     1      45.885   5.317  13.761  0.00  0.00    +0.000 C 
ENDROOT
BRANCH   1   2
ATOM      2  C   UNL     1      45.539   4.748  12.384  0.00  0.00    +0.000 A 
ATOM      3  C   UNL     1      45.564   5.583  11.258  0.00  0.00    +0.000 A 
ATOM      4  C   UNL     1      45.261   5.080   9.990  0.00  0.00    +0.000 A 
ATOM      5  C   UNL     1      44.970   3.726   9.817  0.00  0.00    +0.000 A 
ATOM      6  C   UNL     1      44.918   2.889  10.932  0.00  0.00    +0.000 A 
ATOM      7  C   UNL     1      45.205   3.394  12.206  0.00  0.00    +0.000 A 
BRANCH   5   8
ATOM      8  O   UNL     1      44.644   3.158   8.604  0.00  0.00    +0.000 OA
BRANCH   8   9
ATOM      9  C   UNL     1      45.670   2.800   7.738  0.00  0.00    +0.000 A 
ATOM     10  C   UNL     1      46.329   1.610   8.014  0.00  0.00    +0.000 A 
ATOM     11  C   UNL     1      47.354   1.207   7.162  0.00  0.00    +0.000 A 
ATOM     12  C   UNL     1      47.688   2.005   6.073  0.00  0.00    +0.000 A 
ATOM     13  C   UNL     1      46.994   3.190   5.892  0.00  0.00    +0.000 A 
ATOM     14  N   UNL     1      46.006   3.613   6.708  0.00  0.00    +0.000 NA
ENDBRANCH   8   9
ENDBRANCH   5   8
ENDBRANCH   1   2
BRANCH   1  15
ATOM     15  N   UNL     1      46.420   6.661  13.584  0.00  0.00    +0.000 N 
ATOM     16  C   UNL     1      47.749   6.909  13.354  0.00  0.00    +0.000 C 
ATOM     17  O   UNL     1      48.570   6.023  13.144  0.00  0.00    +0.000 OA
ATOM     18  H   UNL     1      45.868   7.401  14.003  0.00  0.00    +0.000 HD
BRANCH  16  19
ATOM     19  C   UNL     1      48.131   8.324  13.307  0.00  0.00    +0.000 A 
ATOM     20  C   UNL     1      48.111   9.014  12.104  0.00  0.00    +0.000 A 
ATOM     21  S   UNL     1      48.568  10.651  12.255  0.00  0.00    +0.000 S 
ATOM     22  C   UNL     1      48.866  10.472  13.923  0.00  0.00    +0.000 A 
ATOM     23  N   UNL     1      49.331  11.509  14.671  0.00  0.00    +0.000 NA
ATOM     24  C   UNL     1      49.549  11.214  15.909  0.00  0.00    +0.000 A 
ATOM     25  N   UNL     1      49.333   9.983  16.472  0.00  0.00    +0.000 N 
ATOM     26  C   UNL     1      48.814   8.926  15.766  0.00  0.00    +0.000 A 
ATOM     27  O   UNL     1      48.549   7.863  16.319  0.00  0.00    +0.000 OA
ATOM     28  C   UNL     1      48.586   9.193  14.362  0.00  0.00    +0.000 A 
ATOM     29  H   UNL     1      49.499   9.822  17.453  0.00  0.00    +0.000 HD
ENDBRANCH  16  19
ENDBRANCH   1  15
BRANCH   1  30
ATOM     30  C   UNL     1      46.861   4.391  14.546  0.00  0.00    +0.000 C 
BRANCH  30  31
ATOM     31  N   UNL     1      47.241   4.884  15.877  0.00  0.00    +0.000 NA
ATOM     32  H   UNL     1      46.832   4.271  16.580  0.00  0.00    +0.000 HD
ATOM     33  H   UNL     1      46.832   5.807  16.026  0.00  0.00    +0.000 HD
ENDBRANCH  30  31
ENDBRANCH   1  30
TORSDOF 7
ENDMDL
MODEL 6
REMARK VINA RESULT:    -7.299      3.021      4.552
REMARK INTER + INTRA:         -10.761
REMARK INTER:                  -9.453
REMARK INTRA:                  -1.308
REMARK UNBOUND:                -0.689
REMARK  Name = 
REMARK  7 active torsions:
REMARK  status: ('A' for Active; 'I' for Inactive)
REMARK    1  A    between atoms: N_1  and  C_2
REMARK    2  A    between atoms: C_2  and  C_3
REMARK    3  A    between atoms: C_3  and  N_4
REMARK    4  A    between atoms: C_3  and  C_17
REMARK    5  A    between atoms: C_5  and  C_7
REMARK    6  A    between atoms: C_20  and  O_21
REMARK    7  A    between atoms: O_21  and  C_22
REMARK                            x       y       z     vdW  Elec       q    Type
REMARK                         _______ _______ _______ _____ _____    ______ ____
ROOT
ATOM      1  C   UNL     1      46.998   5.582  14.394  0.00  0.00    +0.000 C 
ENDROOT
BRANCH   1   2
ATOM      2  C   UNL     1      46.354   5.080  13.101  0.00  0.00    +0.000 A 
ATOM      3  C   UNL     1      45.851   3.773  13.035  0.00  0.00    +0.000 A 
ATOM      4  C   UNL     1      45.249   3.297  11.866  0.00  0.00    +0.000 A 
ATOM      5  C   UNL     1      45.099   4.133  10.759  0.00  0.00    +0.000 A 
ATOM      6  C   UNL     1      45.617   5.429  10.803  0.00  0.00    +0.000 A 
ATOM      7  C   UNL     1      46.234   5.901  11.967  0.00  0.00    +0.000 A 
BRANCH   5   8
ATOM      8  O   UNL     1      44.534   3.736   9.566  0.00  0.00    +0.000 OA
BRANCH   8   9
ATOM      9  C   UNL     1      45.327   3.066   8.642  0.00  0.00    +0.000 A 
ATOM     10  C   UNL     1      45.779   3.807   7.559  0.00  0.00    +0.000 A 
ATOM     11  C   UNL     1      46.589   3.177   6.618  0.00  0.00    +0.000 A 
ATOM     12  C   UNL     1      46.911   1.835   6.785  0.00  0.00    +0.000 A 
ATOM     13  C   UNL     1      46.391   1.169   7.882  0.00  0.00    +0.000 A 
ATOM     14  N   UNL     1      45.593   1.748   8.803  0.00  0.00    +0.000 NA
ENDBRANCH   8   9
ENDBRANCH   5   8
ENDBRANCH   1   2
BRANCH   1  15
ATOM     15  N   UNL     1      48.251   6.247  14.058  0.00  0.00    +0.000 N 
ATOM     16  C   UNL     1      48.802   7.234  14.835  0.00  0.00    +0.000 C 
ATOM     17  O   UNL     1      48.363   7.544  15.936  0.00  0.00    +0.000 OA
ATOM     18  H   UNL     1      48.496   6.229  13.074  0.00  0.00    +0.000 HD
BRANCH  16  19
ATOM     19  C   UNL     1      50.008   7.867  14.293  0.00  0.00    +0.000 A 
ATOM     20  C   UNL     1      51.227   7.716  14.937  0.00  0.00    +0.000 A 
ATOM     21  S   UNL     1      52.515   8.509  14.147  0.00  0.00    +0.000 S 
ATOM     22  C   UNL     1      51.472   9.129  12.952  0.00  0.00    +0.000 A 
ATOM     23  N   UNL     1      51.936   9.945  11.966  0.00  0.00    +0.000 NA
ATOM     24  C   UNL     1      51.025  10.371  11.157  0.00  0.00    +0.000 A 
ATOM     25  N   UNL     1      49.695  10.048  11.233  0.00  0.00    +0.000 N 
ATOM     26  C   UNL     1      49.194   9.186  12.178  0.00  0.00    +0.000 A 
ATOM     27  O   UNL     1      48.015   8.847  12.166  0.00  0.00    +0.000 OA
ATOM     28  C   UNL     1      50.169   8.708  13.135  0.00  0.00    +0.000 A 
ATOM     29  H   UNL     1      49.034  10.394  10.555  0.00  0.00    +0.000 HD
ENDBRANCH  16  19
ENDBRANCH   1  15
BRANCH   1  30
ATOM     30  C   UNL     1      47.197   4.437  15.430  0.00  0.00    +0.000 C 
BRANCH  30  31
ATOM     31  N   UNL     1      47.166   4.866  16.836  0.00  0.00    +0.000 NA
ATOM     32  H   UNL     1      48.073   4.670  17.255  0.00  0.00    +0.000 HD
ATOM     33  H   UNL     1      46.485   4.303  17.347  0.00  0.00    +0.000 HD
ENDBRANCH  30  31
ENDBRANCH   1  30
TORSDOF 7
ENDMDL
MODEL 7
REMARK VINA RESULT:    -7.180      1.828      2.737
REMARK INTER + INTRA:         -10.597
REMARK INTER:                  -9.633
REMARK INTRA:                  -0.964
REMARK UNBOUND:                -0.689
REMARK  Name = 
REMARK  7 active torsions:
REMARK  status: ('A' for Active; 'I' for Inactive)
REMARK    1  A    between atoms: N_1  and  C_2
REMARK    2  A    between atoms: C_2  and  C_3
REMARK    3  A    between atoms: C_3  and  N_4
REMARK    4  A    between atoms: C_3  and  C_17
REMARK    5  A    between atoms: C_5  and  C_7
REMARK    6  A    between atoms: C_20  and  O_21
REMARK    7  A    between atoms: O_21  and  C_22
REMARK                            x       y       z     vdW  Elec       q    Type
REMARK                         _______ _______ _______ _____ _____    ______ ____
ROOT
ATOM      1  C   UNL     1      47.757   8.170  13.485  0.00  0.00    +0.000 C 
ENDROOT
BRANCH   1   2
ATOM      2  C   UNL     1      46.754   7.337  12.685  0.00  0.00    +0.000 A 
ATOM      3  C   UNL     1      45.638   7.957  12.105  0.00  0.00    +0.000 A 
ATOM      4  C   UNL     1      44.715   7.215  11.362  0.00  0.00    +0.000 A 
ATOM      5  C   UNL     1      44.915   5.851  11.146  0.00  0.00    +0.000 A 
ATOM      6  C   UNL     1      46.009   5.217  11.737  0.00  0.00    +0.000 A 
ATOM      7  C   UNL     1      46.926   5.955  12.495  0.00  0.00    +0.000 A 
BRANCH   5   8
ATOM      8  O   UNL     1      44.045   5.048  10.440  0.00  0.00    +0.000 OA
BRANCH   8   9
ATOM      9  C   UNL     1      44.568   4.044   9.634  0.00  0.00    +0.000 A 
ATOM     10  C   UNL     1      45.370   4.451   8.578  0.00  0.00    +0.000 A 
ATOM     11  C   UNL     1      45.926   3.475   7.755  0.00  0.00    +0.000 A 
ATOM     12  C   UNL     1      45.658   2.134   8.009  0.00  0.00    +0.000 A 
ATOM     13  C   UNL     1      44.822   1.824   9.070  0.00  0.00    +0.000 A 
ATOM     14  N   UNL     1      44.259   2.747   9.876  0.00  0.00    +0.000 NA
ENDBRANCH   8   9
ENDBRANCH   5   8
ENDBRANCH   1   2
BRANCH   1  15
ATOM     15  N   UNL     1      47.929   7.554  14.794  0.00  0.00    +0.000 N 
ATOM     16  C   UNL     1      49.136   7.087  15.245  0.00  0.00    +0.000 C 
ATOM     17  O   UNL     1      50.191   7.267  14.646  0.00  0.00    +0.000 OA
ATOM     18  H   UNL     1      47.088   7.149  15.192  0.00  0.00    +0.000 HD
BRANCH  16  19
ATOM     19  C   UNL     1      49.107   6.400  16.540  0.00  0.00    +0.000 A 
ATOM     20  C   UNL     1      49.759   6.947  17.636  0.00  0.00    +0.000 A 
ATOM     21  S   UNL     1      49.596   6.015  19.056  0.00  0.00    +0.000 S 
ATOM     22  C   UNL     1      48.699   4.821  18.235  0.00  0.00    +0.000 A 
ATOM     23  N   UNL     1      48.270   3.699  18.874  0.00  0.00    +0.000 NA
ATOM     24  C   UNL     1      47.640   2.865  18.116  0.00  0.00    +0.000 A 
ATOM     25  N   UNL     1      47.387   3.054  16.782  0.00  0.00    +0.000 N 
ATOM     26  C   UNL     1      47.755   4.194  16.112  0.00  0.00    +0.000 A 
ATOM     27  O   UNL     1      47.437   4.373  14.940  0.00  0.00    +0.000 OA
ATOM     28  C   UNL     1      48.499   5.148  16.908  0.00  0.00    +0.000 A 
ATOM     29  H   UNL     1      46.867   2.375  16.248  0.00  0.00    +0.000 HD
ENDBRANCH  16  19
ENDBRANCH   1  15
BRANCH   1  30
ATOM     30  C   UNL     1      47.325   9.663  13.586  0.00  0.00    +0.000 C 
BRANCH  30  31
ATOM     31  N   UNL     1      48.296  10.541  14.255  0.00  0.00    +0.000 NA
ATOM     32  H   UNL     1      48.413  11.383  13.694  0.00  0.00    +0.000 HD
ATOM     33  H   UNL     1      49.207  10.082  14.278  0.00  0.00    +0.000 HD
ENDBRANCH  30  31
ENDBRANCH   1  30
TORSDOF 7
ENDMDL
MODEL 8
REMARK VINA RESULT:    -7.084      3.544      5.818
REMARK INTER + INTRA:         -10.465
REMARK INTER:                  -9.240
REMARK INTRA:                  -1.225
REMARK UNBOUND:                -0.689
REMARK  Name = 
REMARK  7 active torsions:
REMARK  status: ('A' for Active; 'I' for Inactive)
REMARK    1  A    between atoms: N_1  and  C_2
REMARK    2  A    between atoms: C_2  and  C_3
REMARK    3  A    between atoms: C_3  and  N_4
REMARK    4  A    between atoms: C_3  and  C_17
REMARK    5  A    between atoms: C_5  and  C_7
REMARK    6  A    between atoms: C_20  and  O_21
REMARK    7  A    between atoms: O_21  and  C_22
REMARK                            x       y       z     vdW  Elec       q    Type
REMARK                         _______ _______ _______ _____ _____    ______ ____
ROOT
ATOM      1  C   UNL     1      48.983   6.292  17.578  0.00  0.00    +0.000 C 
ENDROOT
BRANCH   1   2
ATOM      2  C   UNL     1      48.237   5.583  16.446  0.00  0.00    +0.000 A 
ATOM      3  C   UNL     1      48.145   6.188  15.185  0.00  0.00    +0.000 A 
ATOM      4  C   UNL     1      47.477   5.553  14.135  0.00  0.00    +0.000 A 
ATOM      5  C   UNL     1      46.929   4.282  14.313  0.00  0.00    +0.000 A 
ATOM      6  C   UNL     1      46.992   3.678  15.569  0.00  0.00    +0.000 A 
ATOM      7  C   UNL     1      47.647   4.320  16.627  0.00  0.00    +0.000 A 
BRANCH   5   8
ATOM      8  O   UNL     1      46.241   3.597  13.334  0.00  0.00    +0.000 OA
BRANCH   8   9
ATOM      9  C   UNL     1      45.093   4.170  12.799  0.00  0.00    +0.000 A 
ATOM     10  C   UNL     1      45.105   4.424  11.435  0.00  0.00    +0.000 A 
ATOM     11  C   UNL     1      43.969   4.985  10.856  0.00  0.00    +0.000 A 
ATOM     12  C   UNL     1      42.869   5.276  11.657  0.00  0.00    +0.000 A 
ATOM     13  C   UNL     1      42.960   5.013  13.014  0.00  0.00    +0.000 A 
ATOM     14  N   UNL     1      44.051   4.484  13.605  0.00  0.00    +0.000 NA
ENDBRANCH   8   9
ENDBRANCH   5   8
ENDBRANCH   1   2
BRANCH   1  15
ATOM     15  N   UNL     1      50.098   5.451  17.994  0.00  0.00    +0.000 N 
ATOM     16  C   UNL     1      51.271   5.366  17.288  0.00  0.00    +0.000 C 
ATOM     17  O   UNL     1      51.530   6.085  16.330  0.00  0.00    +0.000 OA
ATOM     18  H   UNL     1      49.848   4.668  18.589  0.00  0.00    +0.000 HD
BRANCH  16  19
ATOM     19  C   UNL     1      52.244   4.392  17.791  0.00  0.00    +0.000 A 
ATOM     20  C   UNL     1      53.442   4.822  18.344  0.00  0.00    +0.000 A 
ATOM     21  S   UNL     1      54.433   3.545  18.889  0.00  0.00    +0.000 S 
ATOM     22  C   UNL     1      53.319   2.375  18.348  0.00  0.00    +0.000 A 
ATOM     23  N   UNL     1      53.578   1.045  18.473  0.00  0.00    +0.000 NA
ATOM     24  C   UNL     1      52.663   0.278  17.981  0.00  0.00    +0.000 A 
ATOM     25  N   UNL     1      51.508   0.716  17.387  0.00  0.00    +0.000 N 
ATOM     26  C   UNL     1      51.183   2.047  17.289  0.00  0.00    +0.000 A 
ATOM     27  O   UNL     1      50.102   2.405  16.832  0.00  0.00    +0.000 OA
ATOM     28  C   UNL     1      52.194   2.952  17.793  0.00  0.00    +0.000 A 
ATOM     29  H   UNL     1      50.818   0.066  17.044  0.00  0.00    +0.000 HD
ENDBRANCH  16  19
ENDBRANCH   1  15
BRANCH   1  30
ATOM     30  C   UNL     1      48.039   6.650  18.764  0.00  0.00    +0.000 C 
BRANCH  30  31
ATOM     31  N   UNL     1      47.180   7.821  18.535  0.00  0.00    +0.000 NA
ATOM     32  H   UNL     1      47.578   8.372  17.777  0.00  0.00    +0.000 HD
ATOM     33  H   UNL     1      47.194   8.417  19.363  0.00  0.00    +0.000 HD
ENDBRANCH  30  31
ENDBRANCH   1  30
TORSDOF 7
ENDMDL
MODEL 9
REMARK VINA RESULT:    -6.930      2.952      3.839
REMARK INTER + INTRA:         -10.252
REMARK INTER:                  -9.351
REMARK INTRA:                  -0.901
REMARK UNBOUND:                -0.689
REMARK  Name = 
REMARK  7 active torsions:
REMARK  status: ('A' for Active; 'I' for Inactive)
REMARK    1  A    between atoms: N_1  and  C_2
REMARK    2  A    between atoms: C_2  and  C_3
REMARK    3  A    between atoms: C_3  and  N_4
REMARK    4  A    between atoms: C_3  and  C_17
REMARK    5  A    between atoms: C_5  and  C_7
REMARK    6  A    between atoms: C_20  and  O_21
REMARK    7  A    between atoms: O_21  and  C_22
REMARK                            x       y       z     vdW  Elec       q    Type
REMARK                         _______ _______ _______ _____ _____    ______ ____
ROOT
ATOM      1  C   UNL     1      46.933   5.092  14.806  0.00  0.00    +0.000 C 
ENDROOT
BRANCH   1   2
ATOM      2  C   UNL     1      46.339   4.799  13.427  0.00  0.00    +0.000 A 
ATOM      3  C   UNL     1      45.759   3.549  13.169  0.00  0.00    +0.000 A 
ATOM      4  C   UNL     1      45.202   3.264  11.919  0.00  0.00    +0.000 A 
ATOM      5  C   UNL     1      45.174   4.238  10.920  0.00  0.00    +0.000 A 
ATOM      6  C   UNL     1      45.769   5.478  11.155  0.00  0.00    +0.000 A 
ATOM      7  C   UNL     1      46.342   5.760  12.401  0.00  0.00    +0.000 A 
BRANCH   5   8
ATOM      8  O   UNL     1      44.660   4.031   9.658  0.00  0.00    +0.000 OA
BRANCH   8   9
ATOM      9  C   UNL     1      45.416   3.315   8.738  0.00  0.00    +0.000 A 
ATOM     10  C   UNL     1      45.975   4.041   7.695  0.00  0.00    +0.000 A 
ATOM     11  C   UNL     1      46.752   3.364   6.759  0.00  0.00    +0.000 A 
ATOM     12  C   UNL     1      46.939   1.992   6.892  0.00  0.00    +0.000 A 
ATOM     13  C   UNL     1      46.319   1.347   7.950  0.00  0.00    +0.000 A 
ATOM     14  N   UNL     1      45.550   1.973   8.864  0.00  0.00    +0.000 NA
ENDBRANCH   8   9
ENDBRANCH   5   8
ENDBRANCH   1   2
BRANCH   1  15
ATOM     15  N   UNL     1      48.082   5.972  14.636  0.00  0.00    +0.000 N 
ATOM     16  C   UNL     1      48.660   6.651  15.678  0.00  0.00    +0.000 C 
ATOM     17  O   UNL     1      48.348   6.473  16.850  0.00  0.00    +0.000 OA
ATOM     18  H   UNL     1      48.198   6.353  13.703  0.00  0.00    +0.000 HD
BRANCH  16  19
ATOM     19  C   UNL     1      49.739   7.575  15.312  0.00  0.00    +0.000 A 
ATOM     20  C   UNL     1      49.456   8.737  14.611  0.00  0.00    +0.000 A 
ATOM     21  S   UNL     1      50.836   9.691  14.296  0.00  0.00    +0.000 S 
ATOM     22  C   UNL     1      51.862   8.549  15.035  0.00  0.00    +0.000 A 
ATOM     23  N   UNL     1      53.209   8.735  15.075  0.00  0.00    +0.000 NA
ATOM     24  C   UNL     1      53.862   7.768  15.628  0.00  0.00    +0.000 A 
ATOM     25  N   UNL     1      53.292   6.639  16.158  0.00  0.00    +0.000 N 
ATOM     26  C   UNL     1      51.934   6.438  16.187  0.00  0.00    +0.000 A 
ATOM     27  O   UNL     1      51.449   5.459  16.747  0.00  0.00    +0.000 OA
ATOM     28  C   UNL     1      51.157   7.476  15.544  0.00  0.00    +0.000 A 
ATOM     29  H   UNL     1      53.855   5.929  16.601  0.00  0.00    +0.000 HD
ENDBRANCH  16  19
ENDBRANCH   1  15
BRANCH   1  30
ATOM     30  C   UNL     1      47.296   3.787  15.574  0.00  0.00    +0.000 C 
BRANCH  30  31
ATOM     31  N   UNL     1      46.782   3.718  16.949  0.00  0.00    +0.000 NA
ATOM     32  H   UNL     1      46.848   2.755  17.273  0.00  0.00    +0.000 HD
ATOM     33  H   UNL     1      45.789   3.956  16.951  0.00  0.00    +0.000 HD
ENDBRANCH  30  31
ENDBRANCH   1  30
TORSDOF 7
ENDMDL
