MODEL 1
REMARK VINA RESULT:    -8.022      0.000      0.000
REMARK INTER + INTRA:         -13.187
REMARK INTER:                 -12.008
REMARK INTRA:                  -1.179
REMARK UNBOUND:                -1.179
REMARK  Name = 
REMARK  10 active torsions:
REMARK  status: ('A' for Active; 'I' for Inactive)
REMARK    1  A    between atoms: C_1  and  O_2
REMARK    2  A    between atoms: O_2  and  C_3
REMARK    3  A    between atoms: C_10  and  C_11
REMARK    4  A    between atoms: N_13  and  C_14
REMARK    5  A    between atoms: C_14  and  C_15
REMARK    6  A    between atoms: C_18  and  O_19
REMARK    7  A    between atoms: O_19  and  C_20
REMARK    8  A    between atoms: C_20  and  C_21
REMARK    9  A    between atoms: C_21  and  O_22
REMARK   10  A    between atoms: C_21  and  C_23
REMARK                            x       y       z     vdW  Elec       q    Type
REMARK                         _______ _______ _______ _____ _____    ______ ____
ROOT
ATOM      1  C   UNL     1      46.940   6.532  12.735  0.00  0.00    +0.000 A 
ATOM      2  C   UNL     1      46.323   5.525  13.488  0.00  0.00    +0.000 A 
ATOM      3  C   UNL     1      45.314   4.733  12.933  0.00  0.00    +0.000 A 
ATOM      4  C   UNL     1      44.912   4.926  11.612  0.00  0.00    +0.000 A 
ATOM      5  C   UNL     1      45.567   5.887  10.838  0.00  0.00    +0.000 A 
ATOM      6  C   UNL     1      46.585   6.675  11.389  0.00  0.00    +0.000 A 
ENDROOT
BRANCH   1   7
ATOM      7  C   UNL     1      47.951   7.452  13.368  0.00  0.00    +0.000 C 
BRANCH   7  10
ATOM      8  C   UNL     1      49.006   7.038  15.535  0.00  0.00    +0.000 C 
ATOM      9  O   UNL     1      50.051   6.704  14.986  0.00  0.00    +0.000 OA
ATOM     10  N   UNL     1      47.909   7.417  14.806  0.00  0.00    +0.000 N 
ATOM     11  H   UNL     1      47.044   7.675  15.263  0.00  0.00    +0.000 HD
BRANCH   8  19
ATOM     12  C   UNL     1      48.874   4.549  17.927  0.00  0.00    +0.000 A 
ATOM     13  N   UNL     1      48.746   3.799  19.041  0.00  0.00    +0.000 NA
ATOM     14  C   UNL     1      48.588   4.430  20.208  0.00  0.00    +0.000 A 
ATOM     15  N   UNL     1      48.545   5.744  20.407  0.00  0.00    +0.000 NA
ATOM     16  C   UNL     1      48.657   6.452  19.269  0.00  0.00    +0.000 A 
ATOM     17  S   UNL     1      48.626   8.148  19.339  0.00  0.00    +0.000 S 
ATOM     18  C   UNL     1      48.794   8.266  17.652  0.00  0.00    +0.000 A 
ATOM     19  C   UNL     1      48.879   7.038  17.005  0.00  0.00    +0.000 A 
ATOM     20  C   UNL     1      48.810   5.952  17.980  0.00  0.00    +0.000 A 
BRANCH  12  22
ATOM     21  C   UNL     1      47.854   3.321  16.230  0.00  0.00    +0.000 C 
ATOM     22  O   UNL     1      49.063   3.892  16.727  0.00  0.00    +0.000 OA
ENDBRANCH  12  22
ENDBRANCH   8  19
ENDBRANCH   7  10
ENDBRANCH   1   7
BRANCH   4  23
ATOM     23  O   UNL     1      43.902   4.255  10.976  0.00  0.00    +0.000 OA
BRANCH  23  24
ATOM     24  C   UNL     1      44.163   3.831   9.629  0.00  0.00    +0.000 C 
BRANCH  24  25
ATOM     25  C   UNL     1      44.987   2.533   9.588  0.00  0.00    +0.000 C 
BRANCH  25  26
ATOM     26  C   UNL     1      45.842   2.423   8.338  0.00  0.00    +0.000 A 
ATOM     27  C   UNL     1      45.989   3.511   7.480  0.00  0.00    +0.000 A 
ATOM     28  C   UNL     1      46.783   3.370   6.345  0.00  0.00    +0.000 A 
ATOM     29  C   UNL     1      47.403   2.151   6.095  0.00  0.00    +0.000 A 
ATOM     30  C   UNL     1      47.209   1.120   6.998  0.00  0.00    +0.000 A 
ATOM     31  N   UNL     1      46.452   1.228   8.113  0.00  0.00    +0.000 NA
ENDBRANCH  25  26
BRANCH  25  32
ATOM     32  O   UNL     1      44.111   1.403   9.694  0.00  0.00    +0.000 OA
ATOM     33  H   UNL     1      44.383   0.969  10.530  0.00  0.00    +0.000 HD
ENDBRANCH  25  32
ENDBRANCH  24  25
ENDBRANCH  23  24
ENDBRANCH   4  23
TORSDOF 9
ENDMDL
MODEL 2
REMARK VINA RESULT:    -7.928      2.194      2.628
REMARK INTER + INTRA:         -13.047
REMARK INTER:                 -11.966
REMARK INTRA:                  -1.081
REMARK UNBOUND:                -1.179
REMARK  Name = 
REMARK  10 active torsions:
REMARK  status: ('A' for Active; 'I' for Inactive)
REMARK    1  A    between atoms: C_1  and  O_2
REMARK    2  A    between atoms: O_2  and  C_3
REMARK    3  A    between atoms: C_10  and  C_11
REMARK    4  A    between atoms: N_13  and  C_14
REMARK    5  A    between atoms: C_14  and  C_15
REMARK    6  A    between atoms: C_18  and  O_19
REMARK    7  A    between atoms: O_19  and  C_20
REMARK    8  A    between atoms: C_20  and  C_21
REMARK    9  A    between atoms: C_21  and  O_22
REMARK   10  A    between atoms: C_21  and  C_23
REMARK                            x       y       z     vdW  Elec       q    Type
REMARK                         _______ _______ _______ _____ _____    ______ ____
ROOT
ATOM      1  C   UNL     1      47.521   6.541  14.043  0.00  0.00    +0.000 A 
ATOM      2  C   UNL     1      47.248   5.173  14.175  0.00  0.00    +0.000 A 
ATOM      3  C   UNL     1      46.359   4.533  13.306  0.00  0.00    +0.000 A 
ATOM      4  C   UNL     1      45.737   5.247  12.283  0.00  0.00    +0.000 A 
ATOM      5  C   UNL     1      46.053   6.596  12.108  0.00  0.00    +0.000 A 
ATOM      6  C   UNL     1      46.950   7.237  12.972  0.00  0.00    +0.000 A 
ENDROOT
BRANCH   1   7
ATOM      7  C   UNL     1      48.396   7.249  15.044  0.00  0.00    +0.000 C 
BRANCH   7  10
ATOM      8  C   UNL     1      49.536   6.087  16.869  0.00  0.00    +0.000 C 
ATOM      9  O   UNL     1      48.714   6.505  17.677  0.00  0.00    +0.000 OA
ATOM     10  N   UNL     1      49.458   6.414  15.540  0.00  0.00    +0.000 N 
ATOM     11  H   UNL     1      50.148   6.080  14.880  0.00  0.00    +0.000 HD
BRANCH   8  19
ATOM     12  C   UNL     1      50.026   2.667  16.920  0.00  0.00    +0.000 A 
ATOM     13  N   UNL     1      50.455   1.401  17.101  0.00  0.00    +0.000 NA
ATOM     14  C   UNL     1      51.667   1.220  17.633  0.00  0.00    +0.000 A 
ATOM     15  N   UNL     1      52.523   2.163  18.013  0.00  0.00    +0.000 NA
ATOM     16  C   UNL     1      52.047   3.408  17.834  0.00  0.00    +0.000 A 
ATOM     17  S   UNL     1      53.012   4.737  18.262  0.00  0.00    +0.000 S 
ATOM     18  C   UNL     1      51.801   5.829  17.784  0.00  0.00    +0.000 A 
ATOM     19  C   UNL     1      50.653   5.219  17.291  0.00  0.00    +0.000 A 
ATOM     20  C   UNL     1      50.808   3.767  17.311  0.00  0.00    +0.000 A 
BRANCH  12  22
ATOM     21  C   UNL     1      47.741   2.892  17.319  0.00  0.00    +0.000 C 
ATOM     22  O   UNL     1      48.783   2.849  16.345  0.00  0.00    +0.000 OA
ENDBRANCH  12  22
ENDBRANCH   8  19
ENDBRANCH   7  10
ENDBRANCH   1   7
BRANCH   4  23
ATOM     23  O   UNL     1      44.809   4.747  11.408  0.00  0.00    +0.000 OA
BRANCH  23  24
ATOM     24  C   UNL     1      45.009   3.396  10.966  0.00  0.00    +0.000 C 
BRANCH  24  25
ATOM     25  C   UNL     1      44.421   3.161   9.564  0.00  0.00    +0.000 C 
BRANCH  25  26
ATOM     26  C   UNL     1      45.466   2.704   8.560  0.00  0.00    +0.000 A 
ATOM     27  C   UNL     1      46.011   3.603   7.645  0.00  0.00    +0.000 A 
ATOM     28  C   UNL     1      46.968   3.146   6.743  0.00  0.00    +0.000 A 
ATOM     29  C   UNL     1      47.351   1.811   6.775  0.00  0.00    +0.000 A 
ATOM     30  C   UNL     1      46.764   0.983   7.717  0.00  0.00    +0.000 A 
ATOM     31  N   UNL     1      45.840   1.397   8.612  0.00  0.00    +0.000 NA
ENDBRANCH  25  26
BRANCH  25  32
ATOM     32  O   UNL     1      43.778   4.356   9.104  0.00  0.00    +0.000 OA
ATOM     33  H   UNL     1      43.621   4.872   9.922  0.00  0.00    +0.000 HD
ENDBRANCH  25  32
ENDBRANCH  24  25
ENDBRANCH  23  24
ENDBRANCH   4  23
TORSDOF 9
ENDMDL
MODEL 3
REMARK VINA RESULT:    -7.436      1.493      2.453
REMARK INTER + INTRA:         -12.309
REMARK INTER:                 -11.495
REMARK INTRA:                  -0.814
REMARK UNBOUND:                -1.179
REMARK  Name = 
REMARK  10 active torsions:
REMARK  status: ('A' for Active; 'I' for Inactive)
REMARK    1  A    between atoms: C_1  and  O_2
REMARK    2  A    between atoms: O_2  and  C_3
REMARK    3  A    between atoms: C_10  and  C_11
REMARK    4  A    between atoms: N_13  and  C_14
REMARK    5  A    between atoms: C_14  and  C_15
REMARK    6  A    between atoms: C_18  and  O_19
REMARK    7  A    between atoms: O_19  and  C_20
REMARK    8  A    between atoms: C_20  and  C_21
REMARK    9  A    between atoms: C_21  and  O_22
REMARK   10  A    between atoms: C_21  and  C_23
REMARK                            x       y       z     vdW  Elec       q    Type
REMARK                         _______ _______ _______ _____ _____    ______ ____
ROOT
ATOM      1  C   UNL     1      46.977   6.087  12.977  0.00  0.00    +0.000 A 
ATOM      2  C   UNL     1      46.067   5.160  13.502  0.00  0.00    +0.000 A 
ATOM      3  C   UNL     1      44.940   4.772  12.771  0.00  0.00    +0.000 A 
ATOM      4  C   UNL     1      44.709   5.296  11.500  0.00  0.00    +0.000 A 
ATOM      5  C   UNL     1      45.646   6.172  10.948  0.00  0.00    +0.000 A 
ATOM      6  C   UNL     1      46.781   6.555  11.674  0.00  0.00    +0.000 A 
ENDROOT
BRANCH   1   7
ATOM      7  C   UNL     1      48.132   6.581  13.808  0.00  0.00    +0.000 C 
BRANCH   7  10
ATOM      8  C   UNL     1      49.058   6.272  16.050  0.00  0.00    +0.000 C 
ATOM      9  O   UNL     1      50.189   6.504  15.638  0.00  0.00    +0.000 OA
ATOM     10  N   UNL     1      47.977   6.281  15.207  0.00  0.00    +0.000 N 
ATOM     11  H   UNL     1      47.049   6.073  15.549  0.00  0.00    +0.000 HD
BRANCH   8  19
ATOM     12  C   UNL     1      47.857   8.100  18.724  0.00  0.00    +0.000 A 
ATOM     13  N   UNL     1      47.480   8.582  19.926  0.00  0.00    +0.000 NA
ATOM     14  C   UNL     1      47.519   7.754  20.974  0.00  0.00    +0.000 A 
ATOM     15  N   UNL     1      47.892   6.478  20.972  0.00  0.00    +0.000 NA
ATOM     16  C   UNL     1      48.279   6.045  19.759  0.00  0.00    +0.000 A 
ATOM     17  S   UNL     1      48.785   4.436  19.572  0.00  0.00    +0.000 S 
ATOM     18  C   UNL     1      49.085   4.675  17.917  0.00  0.00    +0.000 A 
ATOM     19  C   UNL     1      48.809   5.963  17.472  0.00  0.00    +0.000 A 
ATOM     20  C   UNL     1      48.313   6.780  18.577  0.00  0.00    +0.000 A 
BRANCH  12  22
ATOM     21  C   UNL     1      48.971   9.743  17.502  0.00  0.00    +0.000 C 
ATOM     22  O   UNL     1      47.790   8.953  17.640  0.00  0.00    +0.000 OA
ENDBRANCH  12  22
ENDBRANCH   8  19
ENDBRANCH   7  10
ENDBRANCH   1   7
BRANCH   4  23
ATOM     23  O   UNL     1      43.617   5.037  10.714  0.00  0.00    +0.000 OA
BRANCH  23  24
ATOM     24  C   UNL     1      43.851   4.262   9.529  0.00  0.00    +0.000 C 
BRANCH  24  25
ATOM     25  C   UNL     1      44.864   3.131   9.776  0.00  0.00    +0.000 C 
BRANCH  25  26
ATOM     26  C   UNL     1      45.682   2.798   8.541  0.00  0.00    +0.000 A 
ATOM     27  C   UNL     1      46.128   1.498   8.315  0.00  0.00    +0.000 A 
ATOM     28  C   UNL     1      46.874   1.233   7.169  0.00  0.00    +0.000 A 
ATOM     29  C   UNL     1      47.159   2.269   6.287  0.00  0.00    +0.000 A 
ATOM     30  C   UNL     1      46.676   3.532   6.583  0.00  0.00    +0.000 A 
ATOM     31  N   UNL     1      45.942   3.820   7.681  0.00  0.00    +0.000 NA
ENDBRANCH  25  26
BRANCH  25  32
ATOM     32  O   UNL     1      44.178   1.964  10.248  0.00  0.00    +0.000 OA
ATOM     33  H   UNL     1      43.233   2.222  10.236  0.00  0.00    +0.000 HD
ENDBRANCH  25  32
ENDBRANCH  24  25
ENDBRANCH  23  24
ENDBRANCH   4  23
TORSDOF 9
ENDMDL
MODEL 4
REMARK VINA RESULT:    -7.268      2.124      2.480
REMARK INTER + INTRA:         -12.059
REMARK INTER:                 -10.658
REMARK INTRA:                  -1.401
REMARK UNBOUND:                -1.179
REMARK  Name = 
REMARK  10 active torsions:
REMARK  status: ('A' for Active; 'I' for Inactive)
REMARK    1  A    between atoms: C_1  and  O_2
REMARK    2  A    between atoms: O_2  and  C_3
REMARK    3  A    between atoms: C_10  and  C_11
REMARK    4  A    between atoms: N_13  and  C_14
REMARK    5  A    between atoms: C_14  and  C_15
REMARK    6  A    between atoms: C_18  and  O_19
REMARK    7  A    between atoms: O_19  and  C_20
REMARK    8  A    between atoms: C_20  and  C_21
REMARK    9  A    between atoms: C_21  and  O_22
REMARK   10  A    between atoms: C_21  and  C_23
REMARK                            x       y       z     vdW  Elec       q    Type
REMARK                         _______ _______ _______ _____ _____    ______ ____
ROOT
ATOM      1  C   UNL     1      47.317   6.865  12.965  0.00  0.00    +0.000 A 
ATOM      2  C   UNL     1      47.236   5.568  13.489  0.00  0.00    +0.000 A 
ATOM      3  C   UNL     1      46.010   4.901  13.560  0.00  0.00    +0.000 A 
ATOM      4  C   UNL     1      44.845   5.514  13.100  0.00  0.00    +0.000 A 
ATOM      5  C   UNL     1      44.931   6.782  12.520  0.00  0.00    +0.000 A 
ATOM      6  C   UNL     1      46.160   7.448  12.438  0.00  0.00    +0.000 A 
ENDROOT
BRANCH   1   7
ATOM      7  C   UNL     1      48.620   7.621  12.986  0.00  0.00    +0.000 C 
BRANCH   7  10
ATOM      8  C   UNL     1      49.938   7.750  15.042  0.00  0.00    +0.000 C 
ATOM      9  O   UNL     1      49.484   8.861  15.289  0.00  0.00    +0.000 OA
ATOM     10  N   UNL     1      49.568   7.063  13.914  0.00  0.00    +0.000 N 
ATOM     11  H   UNL     1      49.959   6.154  13.707  0.00  0.00    +0.000 HD
BRANCH   8  19
ATOM     12  C   UNL     1      49.848   4.925  17.029  0.00  0.00    +0.000 A 
ATOM     13  N   UNL     1      50.067   3.930  17.914  0.00  0.00    +0.000 NA
ATOM     14  C   UNL     1      51.252   3.885  18.528  0.00  0.00    +0.000 A 
ATOM     15  N   UNL     1      52.270   4.724  18.365  0.00  0.00    +0.000 NA
ATOM     16  C   UNL     1      52.002   5.711  17.491  0.00  0.00    +0.000 A 
ATOM     17  S   UNL     1      53.194   6.873  17.157  0.00  0.00    +0.000 S 
ATOM     18  C   UNL     1      52.164   7.686  16.078  0.00  0.00    +0.000 A 
ATOM     19  C   UNL     1      50.910   7.102  15.944  0.00  0.00    +0.000 A 
ATOM     20  C   UNL     1      50.820   5.909  16.783  0.00  0.00    +0.000 A 
BRANCH  12  22
ATOM     21  C   UNL     1      47.536   4.775  17.276  0.00  0.00    +0.000 C 
ATOM     22  O   UNL     1      48.630   4.951  16.378  0.00  0.00    +0.000 OA
ENDBRANCH  12  22
ENDBRANCH   8  19
ENDBRANCH   7  10
ENDBRANCH   1   7
BRANCH   4  23
ATOM     23  O   UNL     1      43.583   4.987  13.167  0.00  0.00    +0.000 OA
BRANCH  23  24
ATOM     24  C   UNL     1      43.062   4.415  11.958  0.00  0.00    +0.000 C 
BRANCH  24  25
ATOM     25  C   UNL     1      43.773   3.100  11.595  0.00  0.00    +0.000 C 
BRANCH  25  26
ATOM     26  C   UNL     1      44.484   3.170  10.255  0.00  0.00    +0.000 A 
ATOM     27  C   UNL     1      44.815   4.401   9.691  0.00  0.00    +0.000 A 
ATOM     28  C   UNL     1      45.469   4.422   8.462  0.00  0.00    +0.000 A 
ATOM     29  C   UNL     1      45.768   3.222   7.829  0.00  0.00    +0.000 A 
ATOM     30  C   UNL     1      45.407   2.042   8.457  0.00  0.00    +0.000 A 
ATOM     31  N   UNL     1      44.781   1.987   9.654  0.00  0.00    +0.000 NA
ENDBRANCH  25  26
BRANCH  25  32
ATOM     32  O   UNL     1      42.828   2.023  11.602  0.00  0.00    +0.000 OA
ATOM     33  H   UNL     1      43.381   1.220  11.508  0.00  0.00    +0.000 HD
ENDBRANCH  25  32
ENDBRANCH  24  25
ENDBRANCH  23  24
ENDBRANCH   4  23
TORSDOF 9
ENDMDL
MODEL 5
REMARK VINA RESULT:    -7.151      1.816      3.176
REMARK INTER + INTRA:         -11.883
REMARK INTER:                 -10.943
REMARK INTRA:                  -0.940
REMARK UNBOUND:                -1.179
REMARK  Name = 
REMARK  10 active torsions:
REMARK  status: ('A' for Active; 'I' for Inactive)
REMARK    1  A    between atoms: C_1  and  O_2
REMARK    2  A    between atoms: O_2  and  C_3
REMARK    3  A    between atoms: C_10  and  C_11
REMARK    4  A    between atoms: N_13  and  C_14
REMARK    5  A    between atoms: C_14  and  C_15
REMARK    6  A    between atoms: C_18  and  O_19
REMARK    7  A    between atoms: O_19  and  C_20
REMARK    8  A    between atoms: C_20  and  C_21
REMARK    9  A    between atoms: C_21  and  O_22
REMARK   10  A    between atoms: C_21  and  C_23
REMARK                            x       y       z     vdW  Elec       q    Type
REMARK                         _______ _______ _______ _____ _____    ______ ____
ROOT
ATOM      1  C   UNL     1      46.964   4.430  14.299  0.00  0.00    +0.000 A 
ATOM      2  C   UNL     1      46.237   3.534  13.504  0.00  0.00    +0.000 A 
ATOM      3  C   UNL     1      45.639   3.958  12.313  0.00  0.00    +0.000 A 
ATOM      4  C   UNL     1      45.766   5.281  11.892  0.00  0.00    +0.000 A 
ATOM      5  C   UNL     1      46.541   6.162  12.650  0.00  0.00    +0.000 A 
ATOM      6  C   UNL     1      47.149   5.738  13.838  0.00  0.00    +0.000 A 
ENDROOT
BRANCH   1   7
ATOM      7  C   UNL     1      47.517   3.997  15.632  0.00  0.00    +0.000 C 
BRANCH   7  10
ATOM      8  C   UNL     1      48.582   5.542  17.201  0.00  0.00    +0.000 C 
ATOM      9  O   UNL     1      49.691   5.119  16.897  0.00  0.00    +0.000 OA
ATOM     10  N   UNL     1      47.444   5.036  16.626  0.00  0.00    +0.000 N 
ATOM     11  H   UNL     1      46.530   5.377  16.892  0.00  0.00    +0.000 HD
BRANCH   8  19
ATOM     12  C   UNL     1      48.236   8.974  17.013  0.00  0.00    +0.000 A 
ATOM     13  N   UNL     1      48.142  10.302  17.232  0.00  0.00    +0.000 NA
ATOM     14  C   UNL     1      48.069  10.725  18.497  0.00  0.00    +0.000 A 
ATOM     15  N   UNL     1      48.075   9.974  19.593  0.00  0.00    +0.000 NA
ATOM     16  C   UNL     1      48.190   8.660  19.330  0.00  0.00    +0.000 A 
ATOM     17  S   UNL     1      48.209   7.553  20.616  0.00  0.00    +0.000 S 
ATOM     18  C   UNL     1      48.376   6.244  19.546  0.00  0.00    +0.000 A 
ATOM     19  C   UNL     1      48.418   6.610  18.206  0.00  0.00    +0.000 A 
ATOM     20  C   UNL     1      48.292   8.060  18.078  0.00  0.00    +0.000 A 
BRANCH  12  22
ATOM     21  C   UNL     1      49.615   8.541  15.185  0.00  0.00    +0.000 C 
ATOM     22  O   UNL     1      48.286   8.541  15.702  0.00  0.00    +0.000 OA
ENDBRANCH  12  22
ENDBRANCH   8  19
ENDBRANCH   7  10
ENDBRANCH   1   7
BRANCH   4  23
ATOM     23  O   UNL     1      45.182   5.826  10.779  0.00  0.00    +0.000 OA
BRANCH  23  24
ATOM     24  C   UNL     1      45.663   5.359   9.510  0.00  0.00    +0.000 C 
BRANCH  24  25
ATOM     25  C   UNL     1      44.950   4.070   9.067  0.00  0.00    +0.000 C 
BRANCH  25  26
ATOM     26  C   UNL     1      45.775   3.250   8.091  0.00  0.00    +0.000 A 
ATOM     27  C   UNL     1      46.087   1.920   8.369  0.00  0.00    +0.000 A 
ATOM     28  C   UNL     1      46.844   1.202   7.447  0.00  0.00    +0.000 A 
ATOM     29  C   UNL     1      47.272   1.827   6.282  0.00  0.00    +0.000 A 
ATOM     30  C   UNL     1      46.917   3.150   6.080  0.00  0.00    +0.000 A 
ATOM     31  N   UNL     1      46.176   3.872   6.950  0.00  0.00    +0.000 NA
ENDBRANCH  25  26
BRANCH  25  32
ATOM     32  O   UNL     1      43.678   4.396   8.493  0.00  0.00    +0.000 OA
ATOM     33  H   UNL     1      43.220   3.532   8.424  0.00  0.00    +0.000 HD
ENDBRANCH  25  32
ENDBRANCH  24  25
ENDBRANCH  23  24
ENDBRANCH   4  23
TORSDOF 9
ENDMDL
MODEL 6
REMARK VINA RESULT:    -6.926      1.926      2.709
REMARK INTER + INTRA:         -11.546
REMARK INTER:                 -10.547
REMARK INTRA:                  -1.000
REMARK UNBOUND:                -1.179
REMARK  Name = 
REMARK  10 active torsions:
REMARK  status: ('A' for Active; 'I' for Inactive)
REMARK    1  A    between atoms: C_1  and  O_2
REMARK    2  A    between atoms: O_2  and  C_3
REMARK    3  A    between atoms: C_10  and  C_11
REMARK    4  A    between atoms: N_13  and  C_14
REMARK    5  A    between atoms: C_14  and  C_15
REMARK    6  A    between atoms: C_18  and  O_19
REMARK    7  A    between atoms: O_19  and  C_20
REMARK    8  A    between atoms: C_20  and  C_21
REMARK    9  A    between atoms: C_21  and  O_22
REMARK   10  A    between atoms: C_21  and  C_23
REMARK                            x       y       z     vdW  Elec       q    Type
REMARK                         _______ _______ _______ _____ _____    ______ ____
ROOT
ATOM      1  C   UNL     1      47.083   4.952  14.391  0.00  0.00    +0.000 A 
ATOM      2  C   UNL     1      46.299   3.941  13.820  0.00  0.00    +0.000 A 
ATOM      3  C   UNL     1      45.634   4.149  12.608  0.00  0.00    +0.000 A 
ATOM      4  C   UNL     1      45.748   5.368  11.941  0.00  0.00    +0.000 A 
ATOM      5  C   UNL     1      46.578   6.357  12.475  0.00  0.00    +0.000 A 
ATOM      6  C   UNL     1      47.253   6.147  13.684  0.00  0.00    +0.000 A 
ENDROOT
BRANCH   1   7
ATOM      7  C   UNL     1      47.712   4.762  15.746  0.00  0.00    +0.000 C 
BRANCH   7  10
ATOM      8  C   UNL     1      49.210   6.491  16.610  0.00  0.00    +0.000 C 
ATOM      9  O   UNL     1      50.189   5.875  16.206  0.00  0.00    +0.000 OA
ATOM     10  N   UNL     1      47.939   6.007  16.431  0.00  0.00    +0.000 N 
ATOM     11  H   UNL     1      47.136   6.511  16.782  0.00  0.00    +0.000 HD
BRANCH   8  19
ATOM     12  C   UNL     1      48.086   7.693  19.648  0.00  0.00    +0.000 A 
ATOM     13  N   UNL     1      47.741   8.422  20.729  0.00  0.00    +0.000 NA
ATOM     14  C   UNL     1      48.168   9.686  20.796  0.00  0.00    +0.000 A 
ATOM     15  N   UNL     1      48.915  10.326  19.902  0.00  0.00    +0.000 NA
ATOM     16  C   UNL     1      49.218   9.570  18.832  0.00  0.00    +0.000 A 
ATOM     17  S   UNL     1      50.170  10.228  17.591  0.00  0.00    +0.000 S 
ATOM     18  C   UNL     1      50.091   8.783  16.701  0.00  0.00    +0.000 A 
ATOM     19  C   UNL     1      49.353   7.779  17.317  0.00  0.00    +0.000 A 
ATOM     20  C   UNL     1      48.841   8.250  18.602  0.00  0.00    +0.000 A 
BRANCH  12  22
ATOM     21  C   UNL     1      47.271   5.889  20.878  0.00  0.00    +0.000 C 
ATOM     22  O   UNL     1      47.663   6.379  19.597  0.00  0.00    +0.000 OA
ENDBRANCH  12  22
ENDBRANCH   8  19
ENDBRANCH   7  10
ENDBRANCH   1   7
BRANCH   4  23
ATOM     23  O   UNL     1      45.103   5.710  10.782  0.00  0.00    +0.000 OA
BRANCH  23  24
ATOM     24  C   UNL     1      45.660   5.195   9.563  0.00  0.00    +0.000 C 
BRANCH  24  25
ATOM     25  C   UNL     1      44.899   3.953   9.068  0.00  0.00    +0.000 C 
BRANCH  25  26
ATOM     26  C   UNL     1      45.740   3.076   8.158  0.00  0.00    +0.000 A 
ATOM     27  C   UNL     1      46.297   3.594   6.990  0.00  0.00    +0.000 A 
ATOM     28  C   UNL     1      47.065   2.757   6.184  0.00  0.00    +0.000 A 
ATOM     29  C   UNL     1      47.250   1.432   6.559  0.00  0.00    +0.000 A 
ATOM     30  C   UNL     1      46.665   0.996   7.735  0.00  0.00    +0.000 A 
ATOM     31  N   UNL     1      45.923   1.785   8.545  0.00  0.00    +0.000 NA
ENDBRANCH  25  26
BRANCH  25  32
ATOM     32  O   UNL     1      43.698   4.360   8.397  0.00  0.00    +0.000 OA
ATOM     33  H   UNL     1      43.621   5.314   8.606  0.00  0.00    +0.000 HD
ENDBRANCH  25  32
ENDBRANCH  24  25
ENDBRANCH  23  24
ENDBRANCH   4  23
TORSDOF 9
ENDMDL
MODEL 7
REMARK VINA RESULT:    -6.204      2.433      2.721
REMARK INTER + INTRA:         -10.466
REMARK INTER:                  -9.525
REMARK INTRA:                  -0.940
REMARK UNBOUND:                -1.179
REMARK  Name = 
REMARK  10 active torsions:
REMARK  status: ('A' for Active; 'I' for Inactive)
REMARK    1  A    between atoms: C_1  and  O_2
REMARK    2  A    between atoms: O_2  and  C_3
REMARK    3  A    between atoms: C_10  and  C_11
REMARK    4  A    between atoms: N_13  and  C_14
REMARK    5  A    between atoms: C_14  and  C_15
REMARK    6  A    between atoms: C_18  and  O_19
REMARK    7  A    between atoms: O_19  and  C_20
REMARK    8  A    between atoms: C_20  and  C_21
REMARK    9  A    between atoms: C_21  and  O_22
REMARK   10  A    between atoms: C_21  and  C_23
REMARK                            x       y       z     vdW  Elec       q    Type
REMARK                         _______ _______ _______ _____ _____    ______ ____
ROOT
ATOM      1  C   UNL     1      46.923   7.882  13.369  0.00  0.00    +0.000 A 
ATOM      2  C   UNL     1      47.237   6.517  13.313  0.00  0.00    +0.000 A 
ATOM      3  C   UNL     1      46.715   5.704  12.302  0.00  0.00    +0.000 A 
ATOM      4  C   UNL     1      45.879   6.243  11.325  0.00  0.00    +0.000 A 
ATOM      5  C   UNL     1      45.614   7.614  11.341  0.00  0.00    +0.000 A 
ATOM      6  C   UNL     1      46.144   8.433  12.346  0.00  0.00    +0.000 A 
ENDROOT
BRANCH   1   7
ATOM      7  C   UNL     1      47.401   8.731  14.517  0.00  0.00    +0.000 C 
BRANCH   7  10
ATOM      8  C   UNL     1      49.209   8.498  16.148  0.00  0.00    +0.000 C 
ATOM      9  O   UNL     1      48.432   8.716  17.071  0.00  0.00    +0.000 OA
ATOM     10  N   UNL     1      48.783   8.495  14.844  0.00  0.00    +0.000 N 
ATOM     11  H   UNL     1      49.430   8.331  14.085  0.00  0.00    +0.000 HD
BRANCH   8  19
ATOM     12  C   UNL     1      51.026   5.673  16.958  0.00  0.00    +0.000 A 
ATOM     13  N   UNL     1      51.953   4.764  17.322  0.00  0.00    +0.000 NA
ATOM     14  C   UNL     1      53.217   5.175  17.452  0.00  0.00    +0.000 A 
ATOM     15  N   UNL     1      53.683   6.405  17.257  0.00  0.00    +0.000 NA
ATOM     16  C   UNL     1      52.722   7.283  16.915  0.00  0.00    +0.000 A 
ATOM     17  S   UNL     1      53.140   8.901  16.623  0.00  0.00    +0.000 S 
ATOM     18  C   UNL     1      51.524   9.308  16.296  0.00  0.00    +0.000 A 
ATOM     19  C   UNL     1      50.640   8.239  16.395  0.00  0.00    +0.000 A 
ATOM     20  C   UNL     1      51.365   7.022  16.754  0.00  0.00    +0.000 A 
BRANCH  12  22
ATOM     21  C   UNL     1      49.066   5.044  18.050  0.00  0.00    +0.000 C 
ATOM     22  O   UNL     1      49.724   5.237  16.800  0.00  0.00    +0.000 OA
ENDBRANCH  12  22
ENDBRANCH   8  19
ENDBRANCH   7  10
ENDBRANCH   1   7
BRANCH   4  23
ATOM     23  O   UNL     1      45.264   5.542  10.322  0.00  0.00    +0.000 OA
BRANCH  23  24
ATOM     24  C   UNL     1      45.064   4.138  10.551  0.00  0.00    +0.000 C 
BRANCH  24  25
ATOM     25  C   UNL     1      44.463   3.438   9.320  0.00  0.00    +0.000 C 
BRANCH  25  26
ATOM     26  C   UNL     1      45.522   2.825   8.420  0.00  0.00    +0.000 A 
ATOM     27  C   UNL     1      46.193   3.605   7.480  0.00  0.00    +0.000 A 
ATOM     28  C   UNL     1      47.159   3.005   6.676  0.00  0.00    +0.000 A 
ATOM     29  C   UNL     1      47.424   1.649   6.827  0.00  0.00    +0.000 A 
ATOM     30  C   UNL     1      46.716   0.946   7.786  0.00  0.00    +0.000 A 
ATOM     31  N   UNL     1      45.780   1.500   8.588  0.00  0.00    +0.000 NA
ENDBRANCH  25  26
BRANCH  25  32
ATOM     32  O   UNL     1      43.660   4.368   8.581  0.00  0.00    +0.000 OA
ATOM     33  H   UNL     1      42.761   3.979   8.608  0.00  0.00    +0.000 HD
ENDBRANCH  25  32
ENDBRANCH  24  25
ENDBRANCH  23  24
ENDBRANCH   4  23
TORSDOF 9
ENDMDL
MODEL 8
REMARK VINA RESULT:    -5.538      5.386      7.545
REMARK INTER + INTRA:          -9.468
REMARK INTER:                  -8.083
REMARK INTRA:                  -1.385
REMARK UNBOUND:                -1.179
REMARK  Name = 
REMARK  10 active torsions:
REMARK  status: ('A' for Active; 'I' for Inactive)
REMARK    1  A    between atoms: C_1  and  O_2
REMARK    2  A    between atoms: O_2  and  C_3
REMARK    3  A    between atoms: C_10  and  C_11
REMARK    4  A    between atoms: N_13  and  C_14
REMARK    5  A    between atoms: C_14  and  C_15
REMARK    6  A    between atoms: C_18  and  O_19
REMARK    7  A    between atoms: O_19  and  C_20
REMARK    8  A    between atoms: C_20  and  C_21
REMARK    9  A    between atoms: C_21  and  O_22
REMARK   10  A    between atoms: C_21  and  C_23
REMARK                            x       y       z     vdW  Elec       q    Type
REMARK                         _______ _______ _______ _____ _____    ______ ____
ROOT
ATOM      1  C   UNL     1      50.430   8.199  12.994  0.00  0.00    +0.000 A 
ATOM      2  C   UNL     1      51.647   8.662  13.512  0.00  0.00    +0.000 A 
ATOM      3  C   UNL     1      52.814   8.620  12.743  0.00  0.00    +0.000 A 
ATOM      4  C   UNL     1      52.783   8.125  11.440  0.00  0.00    +0.000 A 
ATOM      5  C   UNL     1      51.560   7.721  10.898  0.00  0.00    +0.000 A 
ATOM      6  C   UNL     1      50.389   7.771  11.663  0.00  0.00    +0.000 A 
ENDROOT
BRANCH   1   7
ATOM      7  C   UNL     1      49.199   8.148  13.859  0.00  0.00    +0.000 C 
BRANCH   7  10
ATOM      8  C   UNL     1      46.862   7.805  13.225  0.00  0.00    +0.000 C 
ATOM      9  O   UNL     1      46.559   8.908  13.666  0.00  0.00    +0.000 OA
ATOM     10  N   UNL     1      48.152   7.344  13.287  0.00  0.00    +0.000 N 
ATOM     11  H   UNL     1      48.393   6.427  12.936  0.00  0.00    +0.000 HD
BRANCH   8  19
ATOM     12  C   UNL     1      46.366   4.386  13.218  0.00  0.00    +0.000 A 
ATOM     13  N   UNL     1      45.973   3.114  13.005  0.00  0.00    +0.000 NA
ATOM     14  C   UNL     1      44.899   2.908  12.238  0.00  0.00    +0.000 A 
ATOM     15  N   UNL     1      44.149   3.833  11.647  0.00  0.00    +0.000 NA
ATOM     16  C   UNL     1      44.587   5.085  11.869  0.00  0.00    +0.000 A 
ATOM     17  S   UNL     1      43.744   6.394  11.192  0.00  0.00    +0.000 S 
ATOM     18  C   UNL     1      44.837   7.506  11.867  0.00  0.00    +0.000 A 
ATOM     19  C   UNL     1      45.852   6.920  12.614  0.00  0.00    +0.000 A 
ATOM     20  C   UNL     1      45.691   5.467  12.625  0.00  0.00    +0.000 A 
BRANCH  12  22
ATOM     21  C   UNL     1      47.147   4.424  15.413  0.00  0.00    +0.000 C 
ATOM     22  O   UNL     1      47.462   4.594  14.032  0.00  0.00    +0.000 OA
ENDBRANCH  12  22
ENDBRANCH   8  19
ENDBRANCH   7  10
ENDBRANCH   1   7
BRANCH   4  23
ATOM     23  O   UNL     1      53.864   7.982  10.612  0.00  0.00    +0.000 OA
BRANCH  23  24
ATOM     24  C   UNL     1      54.889   7.075  11.046  0.00  0.00    +0.000 C 
BRANCH  24  25
ATOM     25  C   UNL     1      54.863   5.759  10.249  0.00  0.00    +0.000 C 
BRANCH  25  26
ATOM     26  C   UNL     1      54.606   5.977   8.768  0.00  0.00    +0.000 A 
ATOM     27  C   UNL     1      53.439   5.500   8.174  0.00  0.00    +0.000 A 
ATOM     28  C   UNL     1      53.239   5.723   6.814  0.00  0.00    +0.000 A 
ATOM     29  C   UNL     1      54.206   6.407   6.086  0.00  0.00    +0.000 A 
ATOM     30  C   UNL     1      55.336   6.850   6.753  0.00  0.00    +0.000 A 
ATOM     31  N   UNL     1      55.555   6.659   8.073  0.00  0.00    +0.000 NA
ENDBRANCH  25  26
BRANCH  25  32
ATOM     32  O   UNL     1      53.875   4.880  10.802  0.00  0.00    +0.000 OA
ATOM     33  H   UNL     1      53.261   4.713  10.057  0.00  0.00    +0.000 HD
ENDBRANCH  25  32
ENDBRANCH  24  25
ENDBRANCH  23  24
ENDBRANCH   4  23
TORSDOF 9
ENDMDL
MODEL 9
REMARK VINA RESULT:    -5.332      5.821      7.497
REMARK INTER + INTRA:          -9.161
REMARK INTER:                  -8.417
REMARK INTRA:                  -0.743
REMARK UNBOUND:                -1.179
REMARK  Name = 
REMARK  10 active torsions:
REMARK  status: ('A' for Active; 'I' for Inactive)
REMARK    1  A    between atoms: C_1  and  O_2
REMARK    2  A    between atoms: O_2  and  C_3
REMARK    3  A    between atoms: C_10  and  C_11
REMARK    4  A    between atoms: N_13  and  C_14
REMARK    5  A    between atoms: C_14  and  C_15
REMARK    6  A    between atoms: C_18  and  O_19
REMARK    7  A    between atoms: O_19  and  C_20
REMARK    8  A    between atoms: C_20  and  C_21
REMARK    9  A    between atoms: C_21  and  O_22
REMARK   10  A    between atoms: C_21  and  C_23
REMARK                            x       y       z     vdW  Elec       q    Type
REMARK                         _______ _______ _______ _____ _____    ______ ____
ROOT
ATOM      1  C   UNL     1      51.748   8.202  11.975  0.00  0.00    +0.000 A 
ATOM      2  C   UNL     1      53.140   8.243  12.129  0.00  0.00    +0.000 A 
ATOM      3  C   UNL     1      53.984   7.705  11.152  0.00  0.00    +0.000 A 
ATOM      4  C   UNL     1      53.451   7.128  10.000  0.00  0.00    +0.000 A 
ATOM      5  C   UNL     1      52.067   7.141   9.813  0.00  0.00    +0.000 A 
ATOM      6  C   UNL     1      51.220   7.688  10.786  0.00  0.00    +0.000 A 
ENDROOT
BRANCH   1   7
ATOM      7  C   UNL     1      50.841   8.685  13.076  0.00  0.00    +0.000 C 
BRANCH   7  10
ATOM      8  C   UNL     1      48.727   7.481  13.324  0.00  0.00    +0.000 C 
ATOM      9  O   UNL     1      49.249   6.681  14.093  0.00  0.00    +0.000 OA
ATOM     10  N   UNL     1      49.447   8.505  12.765  0.00  0.00    +0.000 N 
ATOM     11  H   UNL     1      49.016   9.152  12.118  0.00  0.00    +0.000 HD
BRANCH   8  19
ATOM     12  C   UNL     1      46.347   5.000  13.670  0.00  0.00    +0.000 A 
ATOM     13  N   UNL     1      45.258   4.205  13.625  0.00  0.00    +0.000 NA
ATOM     14  C   UNL     1      44.149   4.691  13.061  0.00  0.00    +0.000 A 
ATOM     15  N   UNL     1      43.985   5.897  12.527  0.00  0.00    +0.000 NA
ATOM     16  C   UNL     1      45.100   6.649  12.575  0.00  0.00    +0.000 A 
ATOM     17  S   UNL     1      45.069   8.223  11.941  0.00  0.00    +0.000 S 
ATOM     18  C   UNL     1      46.703   8.464  12.339  0.00  0.00    +0.000 A 
ATOM     19  C   UNL     1      47.302   7.373  12.958  0.00  0.00    +0.000 A 
ATOM     20  C   UNL     1      46.333   6.289  13.110  0.00  0.00    +0.000 A 
BRANCH  12  22
ATOM     21  C   UNL     1      47.284   4.249  15.667  0.00  0.00    +0.000 C 
ATOM     22  O   UNL     1      47.483   4.503  14.277  0.00  0.00    +0.000 OA
ENDBRANCH  12  22
ENDBRANCH   8  19
ENDBRANCH   7  10
ENDBRANCH   1   7
BRANCH   4  23
ATOM     23  O   UNL     1      54.168   6.522   9.003  0.00  0.00    +0.000 OA
BRANCH  23  24
ATOM     24  C   UNL     1      53.410   5.909   7.950  0.00  0.00    +0.000 C 
BRANCH  24  25
ATOM     25  C   UNL     1      54.099   6.062   6.583  0.00  0.00    +0.000 C 
BRANCH  25  26
ATOM     26  C   UNL     1      53.630   7.292   5.826  0.00  0.00    +0.000 A 
ATOM     27  C   UNL     1      52.783   8.218   6.432  0.00  0.00    +0.000 A 
ATOM     28  C   UNL     1      52.377   9.333   5.705  0.00  0.00    +0.000 A 
ATOM     29  C   UNL     1      52.820   9.492   4.397  0.00  0.00    +0.000 A 
ATOM     30  C   UNL     1      53.662   8.529   3.870  0.00  0.00    +0.000 A 
ATOM     31  N   UNL     1      54.082   7.440   4.552  0.00  0.00    +0.000 NA
ENDBRANCH  25  26
BRANCH  25  32
ATOM     32  O   UNL     1      53.884   4.882   5.799  0.00  0.00    +0.000 OA
ATOM     33  H   UNL     1      54.111   5.158   4.887  0.00  0.00    +0.000 HD
ENDBRANCH  25  32
ENDBRANCH  24  25
ENDBRANCH  23  24
ENDBRANCH   4  23
TORSDOF 9
ENDMDL
