MODEL 1
REMARK VINA RESULT:    -7.241      0.000      0.000
REMARK INTER + INTRA:         -12.339
REMARK INTER:                 -11.051
REMARK INTRA:                  -1.288
REMARK UNBOUND:                -1.288
REMARK  Name = 
REMARK  13 active torsions:
REMARK  status: ('A' for Active; 'I' for Inactive)
REMARK    1  A    between atoms: C_1  and  N_2
REMARK    2  A    between atoms: N_2  and  C_3
REMARK    3  A    between atoms: N_2  and  C_4
REMARK    4  A    between atoms: C_4  and  C_5
REMARK    5  A    between atoms: C_5  and  O_6
REMARK    6  A    between atoms: O_6  and  C_7
REMARK    7  A    between atoms: C_10  and  C_11
REMARK    8  A    between atoms: C_11  and  C_12
REMARK    9  A    between atoms: C_11  and  C_13
REMARK   10  A    between atoms: C_11  and  C_14
REMARK   11  A    between atoms: C_14  and  O_15
REMARK   12  A    between atoms: O_15  and  C_16
REMARK   13  A    between atoms: C_20  and  C_21
REMARK                            x       y       z     vdW  Elec       q    Type
REMARK                         _______ _______ _______ _____ _____    ______ ____
ROOT
ATOM      1  C   UNL     1      45.147   6.147  11.433  0.00  0.00    +0.000 C 
ATOM      2  C   UNL     1      43.617   5.945  11.481  0.00  0.00    +0.000 C 
ATOM      3  C   UNL     1      45.473   7.629  11.733  0.00  0.00    +0.000 C 
ENDROOT
BRANCH   1   7
ATOM      4  C   UNL     1      47.147   3.662  14.438  0.00  0.00    +0.000 A 
ATOM      5  C   UNL     1      46.388   3.079  13.428  0.00  0.00    +0.000 A 
ATOM      6  C   UNL     1      45.746   3.869  12.473  0.00  0.00    +0.000 A 
ATOM      7  C   UNL     1      45.828   5.267  12.500  0.00  0.00    +0.000 A 
ATOM      8  C   UNL     1      46.584   5.843  13.539  0.00  0.00    +0.000 A 
ATOM      9  C   UNL     1      47.238   5.050  14.492  0.00  0.00    +0.000 A 
BRANCH   4  10
ATOM     10  O   UNL     1      47.838   2.977  15.404  0.00  0.00    +0.000 OA
BRANCH  10  11
ATOM     11  C   UNL     1      47.512   3.347  16.750  0.00  0.00    +0.000 C 
BRANCH  11  12
ATOM     12  C   UNL     1      48.729   3.138  17.657  0.00  0.00    +0.000 C 
BRANCH  12  14
ATOM     13  C   UNL     1      50.343   4.899  17.386  0.00  0.00    +0.000 C 
ATOM     14  N   UNL     1      50.012   3.517  17.029  0.00  0.00    +0.000 NA
ATOM     15  C   UNL     1      51.110   2.631  17.418  0.00  0.00    +0.000 C 
ENDBRANCH  12  14
ENDBRANCH  11  12
ENDBRANCH  10  11
ENDBRANCH   4  10
ENDBRANCH   1   7
BRANCH   1  16
ATOM     16  C   UNL     1      45.629   5.871   9.976  0.00  0.00    +0.000 C 
BRANCH  16  17
ATOM     17  O   UNL     1      44.667   5.080   9.263  0.00  0.00    +0.000 OA
BRANCH  17  18
ATOM     18  C   UNL     1      45.049   3.819   8.894  0.00  0.00    +0.000 A 
ATOM     19  C   UNL     1      44.538   2.635   9.423  0.00  0.00    +0.000 A 
ATOM     20  C   UNL     1      45.028   1.407   8.984  0.00  0.00    +0.000 A 
ATOM     21  C   UNL     1      46.022   1.359   8.006  0.00  0.00    +0.000 A 
ATOM     22  C   UNL     1      46.532   2.541   7.451  0.00  0.00    +0.000 A 
ATOM     23  C   UNL     1      46.047   3.771   7.912  0.00  0.00    +0.000 A 
BRANCH  22  24
ATOM     24  C   UNL     1      47.562   2.412   6.379  0.00  0.00    +0.000 C 
ATOM     25  N   UNL     1      47.463   3.202   5.270  0.00  0.00    +0.000 N 
ATOM     26  O   UNL     1      48.484   1.607   6.472  0.00  0.00    +0.000 OA
ATOM     27  H   UNL     1      46.740   3.884   5.100  0.00  0.00    +0.000 HD
ATOM     28  H   UNL     1      48.170   3.075   4.558  0.00  0.00    +0.000 HD
ENDBRANCH  22  24
ENDBRANCH  17  18
ENDBRANCH  16  17
ENDBRANCH   1  16
TORSDOF 9
ENDMDL
MODEL 2
REMARK VINA RESULT:    -7.176      2.599      3.553
REMARK INTER + INTRA:         -12.240
REMARK INTER:                 -10.999
REMARK INTRA:                  -1.241
REMARK UNBOUND:                -1.288
REMARK  Name = 
REMARK  13 active torsions:
REMARK  status: ('A' for Active; 'I' for Inactive)
REMARK    1  A    between atoms: C_1  and  N_2
REMARK    2  A    between atoms: N_2  and  C_3
REMARK    3  A    between atoms: N_2  and  C_4
REMARK    4  A    between atoms: C_4  and  C_5
REMARK    5  A    between atoms: C_5  and  O_6
REMARK    6  A    between atoms: O_6  and  C_7
REMARK    7  A    between atoms: C_10  and  C_11
REMARK    8  A    between atoms: C_11  and  C_12
REMARK    9  A    between atoms: C_11  and  C_13
REMARK   10  A    between atoms: C_11  and  C_14
REMARK   11  A    between atoms: C_14  and  O_15
REMARK   12  A    between atoms: O_15  and  C_16
REMARK   13  A    between atoms: C_20  and  C_21
REMARK                            x       y       z     vdW  Elec       q    Type
REMARK                         _______ _______ _______ _____ _____    ______ ____
ROOT
ATOM      1  C   UNL     1      43.809   4.364  12.151  0.00  0.00    +0.000 C 
ATOM      2  C   UNL     1      43.746   2.885  12.594  0.00  0.00    +0.000 C 
ATOM      3  C   UNL     1      42.776   5.180  12.963  0.00  0.00    +0.000 C 
ENDROOT
BRANCH   1   7
ATOM      4  C   UNL     1      47.780   6.016  12.991  0.00  0.00    +0.000 A 
ATOM      5  C   UNL     1      47.004   6.529  11.956  0.00  0.00    +0.000 A 
ATOM      6  C   UNL     1      45.741   6.001  11.684  0.00  0.00    +0.000 A 
ATOM      7  C   UNL     1      45.214   4.935  12.425  0.00  0.00    +0.000 A 
ATOM      8  C   UNL     1      46.020   4.414  13.456  0.00  0.00    +0.000 A 
ATOM      9  C   UNL     1      47.283   4.951  13.737  0.00  0.00    +0.000 A 
BRANCH   4  10
ATOM     10  O   UNL     1      49.017   6.481  13.357  0.00  0.00    +0.000 OA
BRANCH  10  11
ATOM     11  C   UNL     1      49.421   7.690  12.704  0.00  0.00    +0.000 C 
BRANCH  11  12
ATOM     12  C   UNL     1      50.723   8.208  13.324  0.00  0.00    +0.000 C 
BRANCH  12  14
ATOM     13  C   UNL     1      51.485   7.483  15.485  0.00  0.00    +0.000 C 
ATOM     14  N   UNL     1      50.635   8.444  14.781  0.00  0.00    +0.000 NA
ATOM     15  C   UNL     1      51.019   9.807  15.151  0.00  0.00    +0.000 C 
ENDBRANCH  12  14
ENDBRANCH  11  12
ENDBRANCH  10  11
ENDBRANCH   4  10
ENDBRANCH   1   7
BRANCH   1  16
ATOM     16  C   UNL     1      43.367   4.444  10.658  0.00  0.00    +0.000 C 
BRANCH  16  17
ATOM     17  O   UNL     1      43.777   3.270   9.942  0.00  0.00    +0.000 OA
BRANCH  17  18
ATOM     18  C   UNL     1      44.825   3.406   9.073  0.00  0.00    +0.000 A 
ATOM     19  C   UNL     1      45.344   4.619   8.621  0.00  0.00    +0.000 A 
ATOM     20  C   UNL     1      46.399   4.629   7.711  0.00  0.00    +0.000 A 
ATOM     21  C   UNL     1      46.948   3.427   7.262  0.00  0.00    +0.000 A 
ATOM     22  C   UNL     1      46.449   2.201   7.722  0.00  0.00    +0.000 A 
ATOM     23  C   UNL     1      45.376   2.200   8.621  0.00  0.00    +0.000 A 
BRANCH  22  24
ATOM     24  C   UNL     1      47.112   0.958   7.231  0.00  0.00    +0.000 C 
ATOM     25  N   UNL     1      46.738  -0.244   7.760  0.00  0.00    +0.000 N 
ATOM     26  O   UNL     1      47.990   0.998   6.374  0.00  0.00    +0.000 OA
ATOM     27  H   UNL     1      46.035  -0.376   8.471  0.00  0.00    +0.000 HD
ATOM     28  H   UNL     1      47.221  -1.062   7.414  0.00  0.00    +0.000 HD
ENDBRANCH  22  24
ENDBRANCH  17  18
ENDBRANCH  16  17
ENDBRANCH   1  16
TORSDOF 9
ENDMDL
MODEL 3
REMARK VINA RESULT:    -7.062      1.624      2.384
REMARK INTER + INTRA:         -12.066
REMARK INTER:                 -10.838
REMARK INTRA:                  -1.228
REMARK UNBOUND:                -1.288
REMARK  Name = 
REMARK  13 active torsions:
REMARK  status: ('A' for Active; 'I' for Inactive)
REMARK    1  A    between atoms: C_1  and  N_2
REMARK    2  A    between atoms: N_2  and  C_3
REMARK    3  A    between atoms: N_2  and  C_4
REMARK    4  A    between atoms: C_4  and  C_5
REMARK    5  A    between atoms: C_5  and  O_6
REMARK    6  A    between atoms: O_6  and  C_7
REMARK    7  A    between atoms: C_10  and  C_11
REMARK    8  A    between atoms: C_11  and  C_12
REMARK    9  A    between atoms: C_11  and  C_13
REMARK   10  A    between atoms: C_11  and  C_14
REMARK   11  A    between atoms: C_14  and  O_15
REMARK   12  A    between atoms: O_15  and  C_16
REMARK   13  A    between atoms: C_20  and  C_21
REMARK                            x       y       z     vdW  Elec       q    Type
REMARK                         _______ _______ _______ _____ _____    ______ ____
ROOT
ATOM      1  C   UNL     1      43.686   5.734  11.670  0.00  0.00    +0.000 C 
ATOM      2  C   UNL     1      42.835   5.115  12.801  0.00  0.00    +0.000 C 
ATOM      3  C   UNL     1      43.113   7.125  11.307  0.00  0.00    +0.000 C 
ENDROOT
BRANCH   1   7
ATOM      4  C   UNL     1      47.804   6.236  13.081  0.00  0.00    +0.000 A 
ATOM      5  C   UNL     1      47.190   7.227  12.322  0.00  0.00    +0.000 A 
ATOM      6  C   UNL     1      45.880   7.066  11.867  0.00  0.00    +0.000 A 
ATOM      7  C   UNL     1      45.142   5.909  12.143  0.00  0.00    +0.000 A 
ATOM      8  C   UNL     1      45.784   4.906  12.896  0.00  0.00    +0.000 A 
ATOM      9  C   UNL     1      47.095   5.071  13.363  0.00  0.00    +0.000 A 
BRANCH   4  10
ATOM     10  O   UNL     1      49.072   6.307  13.599  0.00  0.00    +0.000 OA
BRANCH  10  11
ATOM     11  C   UNL     1      49.305   7.425  14.463  0.00  0.00    +0.000 C 
BRANCH  11  12
ATOM     12  C   UNL     1      49.055   7.019  15.920  0.00  0.00    +0.000 C 
BRANCH  12  14
ATOM     13  C   UNL     1      50.667   5.719  17.141  0.00  0.00    +0.000 C 
ATOM     14  N   UNL     1      49.513   5.651  16.243  0.00  0.00    +0.000 NA
ATOM     15  C   UNL     1      48.459   4.838  16.854  0.00  0.00    +0.000 C 
ENDBRANCH  12  14
ENDBRANCH  11  12
ENDBRANCH  10  11
ENDBRANCH   4  10
ENDBRANCH   1   7
BRANCH   1  16
ATOM     16  C   UNL     1      43.529   4.843  10.400  0.00  0.00    +0.000 C 
BRANCH  16  17
ATOM     17  O   UNL     1      44.715   4.893   9.594  0.00  0.00    +0.000 OA
BRANCH  17  18
ATOM     18  C   UNL     1      45.149   3.714   9.052  0.00  0.00    +0.000 A 
ATOM     19  C   UNL     1      44.802   2.443   9.507  0.00  0.00    +0.000 A 
ATOM     20  C   UNL     1      45.332   1.312   8.887  0.00  0.00    +0.000 A 
ATOM     21  C   UNL     1      46.198   1.450   7.803  0.00  0.00    +0.000 A 
ATOM     22  C   UNL     1      46.541   2.722   7.322  0.00  0.00    +0.000 A 
ATOM     23  C   UNL     1      46.019   3.852   7.963  0.00  0.00    +0.000 A 
BRANCH  22  24
ATOM     24  C   UNL     1      47.438   2.791   6.133  0.00  0.00    +0.000 C 
ATOM     25  N   UNL     1      48.778   2.587   6.302  0.00  0.00    +0.000 N 
ATOM     26  O   UNL     1      46.998   3.038   5.013  0.00  0.00    +0.000 OA
ATOM     27  H   UNL     1      49.232   2.387   7.180  0.00  0.00    +0.000 HD
ATOM     28  H   UNL     1      49.356   2.657   5.475  0.00  0.00    +0.000 HD
ENDBRANCH  22  24
ENDBRANCH  17  18
ENDBRANCH  16  17
ENDBRANCH   1  16
TORSDOF 9
ENDMDL
MODEL 4
REMARK VINA RESULT:    -6.879      3.434      4.498
REMARK INTER + INTRA:         -11.787
REMARK INTER:                 -10.545
REMARK INTRA:                  -1.242
REMARK UNBOUND:                -1.288
REMARK  Name = 
REMARK  13 active torsions:
REMARK  status: ('A' for Active; 'I' for Inactive)
REMARK    1  A    between atoms: C_1  and  N_2
REMARK    2  A    between atoms: N_2  and  C_3
REMARK    3  A    between atoms: N_2  and  C_4
REMARK    4  A    between atoms: C_4  and  C_5
REMARK    5  A    between atoms: C_5  and  O_6
REMARK    6  A    between atoms: O_6  and  C_7
REMARK    7  A    between atoms: C_10  and  C_11
REMARK    8  A    between atoms: C_11  and  C_12
REMARK    9  A    between atoms: C_11  and  C_13
REMARK   10  A    between atoms: C_11  and  C_14
REMARK   11  A    between atoms: C_14  and  O_15
REMARK   12  A    between atoms: O_15  and  C_16
REMARK   13  A    between atoms: C_20  and  C_21
REMARK                            x       y       z     vdW  Elec       q    Type
REMARK                         _______ _______ _______ _____ _____    ______ ____
ROOT
ATOM      1  C   UNL     1      44.082   4.475  12.245  0.00  0.00    +0.000 C 
ATOM      2  C   UNL     1      44.689   3.112  12.644  0.00  0.00    +0.000 C 
ATOM      3  C   UNL     1      43.009   4.875  13.285  0.00  0.00    +0.000 C 
ENDROOT
BRANCH   1   7
ATOM      4  C   UNL     1      47.204   7.547  12.125  0.00  0.00    +0.000 A 
ATOM      5  C   UNL     1      47.484   6.271  12.603  0.00  0.00    +0.000 A 
ATOM      6  C   UNL     1      46.490   5.293  12.647  0.00  0.00    +0.000 A 
ATOM      7  C   UNL     1      45.180   5.557  12.228  0.00  0.00    +0.000 A 
ATOM      8  C   UNL     1      44.906   6.858  11.765  0.00  0.00    +0.000 A 
ATOM      9  C   UNL     1      45.907   7.838  11.710  0.00  0.00    +0.000 A 
BRANCH   4  10
ATOM     10  O   UNL     1      48.113   8.568  12.014  0.00  0.00    +0.000 OA
BRANCH  10  11
ATOM     11  C   UNL     1      49.471   8.193  12.272  0.00  0.00    +0.000 C 
BRANCH  11  12
ATOM     12  C   UNL     1      50.407   9.361  11.944  0.00  0.00    +0.000 C 
BRANCH  12  14
ATOM     13  C   UNL     1      52.686   9.639  11.232  0.00  0.00    +0.000 C 
ATOM     14  N   UNL     1      51.389   9.056  10.882  0.00  0.00    +0.000 NA
ATOM     15  C   UNL     1      51.539   7.618  10.654  0.00  0.00    +0.000 C 
ENDBRANCH  12  14
ENDBRANCH  11  12
ENDBRANCH  10  11
ENDBRANCH   4  10
ENDBRANCH   1   7
BRANCH   1  16
ATOM     16  C   UNL     1      43.340   4.297  10.885  0.00  0.00    +0.000 C 
BRANCH  16  17
ATOM     17  O   UNL     1      43.814   3.132  10.195  0.00  0.00    +0.000 OA
BRANCH  17  18
ATOM     18  C   UNL     1      44.799   3.318   9.264  0.00  0.00    +0.000 A 
ATOM     19  C   UNL     1      45.219   4.553   8.772  0.00  0.00    +0.000 A 
ATOM     20  C   UNL     1      46.217   4.613   7.801  0.00  0.00    +0.000 A 
ATOM     21  C   UNL     1      46.806   3.440   7.330  0.00  0.00    +0.000 A 
ATOM     22  C   UNL     1      46.408   2.192   7.829  0.00  0.00    +0.000 A 
ATOM     23  C   UNL     1      45.391   2.140   8.790  0.00  0.00    +0.000 A 
BRANCH  22  24
ATOM     24  C   UNL     1      47.112   0.984   7.310  0.00  0.00    +0.000 C 
ATOM     25  N   UNL     1      46.684  -0.251   7.704  0.00  0.00    +0.000 N 
ATOM     26  O   UNL     1      48.070   1.081   6.548  0.00  0.00    +0.000 OA
ATOM     27  H   UNL     1      45.914  -0.430   8.330  0.00  0.00    +0.000 HD
ATOM     28  H   UNL     1      47.196  -1.045   7.344  0.00  0.00    +0.000 HD
ENDBRANCH  22  24
ENDBRANCH  17  18
ENDBRANCH  16  17
ENDBRANCH   1  16
TORSDOF 9
ENDMDL
MODEL 5
REMARK VINA RESULT:    -6.442      2.619      8.059
REMARK INTER + INTRA:         -11.120
REMARK INTER:                  -9.805
REMARK INTRA:                  -1.316
REMARK UNBOUND:                -1.288
REMARK  Name = 
REMARK  13 active torsions:
REMARK  status: ('A' for Active; 'I' for Inactive)
REMARK    1  A    between atoms: C_1  and  N_2
REMARK    2  A    between atoms: N_2  and  C_3
REMARK    3  A    between atoms: N_2  and  C_4
REMARK    4  A    between atoms: C_4  and  C_5
REMARK    5  A    between atoms: C_5  and  O_6
REMARK    6  A    between atoms: O_6  and  C_7
REMARK    7  A    between atoms: C_10  and  C_11
REMARK    8  A    between atoms: C_11  and  C_12
REMARK    9  A    between atoms: C_11  and  C_13
REMARK   10  A    between atoms: C_11  and  C_14
REMARK   11  A    between atoms: C_14  and  O_15
REMARK   12  A    between atoms: O_15  and  C_16
REMARK   13  A    between atoms: C_20  and  C_21
REMARK                            x       y       z     vdW  Elec       q    Type
REMARK                         _______ _______ _______ _____ _____    ______ ____
ROOT
ATOM      1  C   UNL     1      48.024   7.686  13.166  0.00  0.00    +0.000 C 
ATOM      2  C   UNL     1      48.485   7.981  11.722  0.00  0.00    +0.000 C 
ATOM      3  C   UNL     1      47.512   8.995  13.812  0.00  0.00    +0.000 C 
ENDROOT
BRANCH   1   7
ATOM      4  C   UNL     1      44.782   4.740  13.067  0.00  0.00    +0.000 A 
ATOM      5  C   UNL     1      44.529   6.080  12.794  0.00  0.00    +0.000 A 
ATOM      6  C   UNL     1      45.559   7.021  12.830  0.00  0.00    +0.000 A 
ATOM      7  C   UNL     1      46.874   6.660  13.152  0.00  0.00    +0.000 A 
ATOM      8  C   UNL     1      47.111   5.303  13.446  0.00  0.00    +0.000 A 
ATOM      9  C   UNL     1      46.079   4.356  13.399  0.00  0.00    +0.000 A 
BRANCH   4  10
ATOM     10  O   UNL     1      43.850   3.735  13.032  0.00  0.00    +0.000 OA
BRANCH  10  11
ATOM     11  C   UNL     1      43.249   3.519  11.749  0.00  0.00    +0.000 C 
BRANCH  11  12
ATOM     12  C   UNL     1      44.084   2.519  10.943  0.00  0.00    +0.000 C 
BRANCH  12  14
ATOM     13  C   UNL     1      44.740   4.282   9.446  0.00  0.00    +0.000 C 
ATOM     14  N   UNL     1      44.264   2.899   9.526  0.00  0.00    +0.000 NA
ATOM     15  C   UNL     1      45.196   2.015   8.823  0.00  0.00    +0.000 C 
ENDBRANCH  12  14
ENDBRANCH  11  12
ENDBRANCH  10  11
ENDBRANCH   4  10
ENDBRANCH   1   7
BRANCH   1  16
ATOM     16  C   UNL     1      49.268   7.239  13.992  0.00  0.00    +0.000 C 
BRANCH  16  17
ATOM     17  O   UNL     1      49.022   7.379  15.399  0.00  0.00    +0.000 OA
BRANCH  17  18
ATOM     18  C   UNL     1      49.479   6.378  16.212  0.00  0.00    +0.000 A 
ATOM     19  C   UNL     1      50.804   6.201  16.606  0.00  0.00    +0.000 A 
ATOM     20  C   UNL     1      51.152   5.124  17.418  0.00  0.00    +0.000 A 
ATOM     21  C   UNL     1      50.173   4.229  17.851  0.00  0.00    +0.000 A 
ATOM     22  C   UNL     1      48.833   4.405  17.480  0.00  0.00    +0.000 A 
ATOM     23  C   UNL     1      48.496   5.479  16.647  0.00  0.00    +0.000 A 
BRANCH  22  24
ATOM     24  C   UNL     1      47.835   3.435  18.015  0.00  0.00    +0.000 C 
ATOM     25  N   UNL     1      48.064   2.852  19.228  0.00  0.00    +0.000 N 
ATOM     26  O   UNL     1      46.823   3.144  17.383  0.00  0.00    +0.000 OA
ATOM     27  H   UNL     1      48.867   3.020  19.814  0.00  0.00    +0.000 HD
ATOM     28  H   UNL     1      47.373   2.188  19.550  0.00  0.00    +0.000 HD
ENDBRANCH  22  24
ENDBRANCH  17  18
ENDBRANCH  16  17
ENDBRANCH   1  16
TORSDOF 9
ENDMDL
MODEL 6
REMARK VINA RESULT:    -6.122      1.948      2.541
REMARK INTER + INTRA:         -10.631
REMARK INTER:                  -9.658
REMARK INTRA:                  -0.973
REMARK UNBOUND:                -1.288
REMARK  Name = 
REMARK  13 active torsions:
REMARK  status: ('A' for Active; 'I' for Inactive)
REMARK    1  A    between atoms: C_1  and  N_2
REMARK    2  A    between atoms: N_2  and  C_3
REMARK    3  A    between atoms: N_2  and  C_4
REMARK    4  A    between atoms: C_4  and  C_5
REMARK    5  A    between atoms: C_5  and  O_6
REMARK    6  A    between atoms: O_6  and  C_7
REMARK    7  A    between atoms: C_10  and  C_11
REMARK    8  A    between atoms: C_11  and  C_12
REMARK    9  A    between atoms: C_11  and  C_13
REMARK   10  A    between atoms: C_11  and  C_14
REMARK   11  A    between atoms: C_14  and  O_15
REMARK   12  A    between atoms: O_15  and  C_16
REMARK   13  A    between atoms: C_20  and  C_21
REMARK                            x       y       z     vdW  Elec       q    Type
REMARK                         _______ _______ _______ _____ _____    ______ ____
ROOT
ATOM      1  C   UNL     1      45.360   6.510  11.757  0.00  0.00    +0.000 C 
ATOM      2  C   UNL     1      44.325   5.526  12.347  0.00  0.00    +0.000 C 
ATOM      3  C   UNL     1      44.643   7.822  11.360  0.00  0.00    +0.000 C 
ENDROOT
BRANCH   1   7
ATOM      4  C   UNL     1      48.462   7.462  14.702  0.00  0.00    +0.000 A 
ATOM      5  C   UNL     1      48.175   6.140  14.379  0.00  0.00    +0.000 A 
ATOM      6  C   UNL     1      47.183   5.835  13.445  0.00  0.00    +0.000 A 
ATOM      7  C   UNL     1      46.436   6.835  12.811  0.00  0.00    +0.000 A 
ATOM      8  C   UNL     1      46.725   8.168  13.163  0.00  0.00    +0.000 A 
ATOM      9  C   UNL     1      47.727   8.477  14.093  0.00  0.00    +0.000 A 
BRANCH   4  10
ATOM     10  O   UNL     1      49.432   7.869  15.582  0.00  0.00    +0.000 OA
BRANCH  10  11
ATOM     11  C   UNL     1      49.608   7.014  16.717  0.00  0.00    +0.000 C 
BRANCH  11  12
ATOM     12  C   UNL     1      48.566   7.348  17.790  0.00  0.00    +0.000 C 
BRANCH  12  14
ATOM     13  C   UNL     1      48.520   4.945  17.827  0.00  0.00    +0.000 C 
ATOM     14  N   UNL     1      47.913   6.159  18.377  0.00  0.00    +0.000 NA
ATOM     15  C   UNL     1      48.000   6.137  19.838  0.00  0.00    +0.000 C 
ENDBRANCH  12  14
ENDBRANCH  11  12
ENDBRANCH  10  11
ENDBRANCH   4  10
ENDBRANCH   1   7
BRANCH   1  16
ATOM     16  C   UNL     1      45.922   5.893  10.440  0.00  0.00    +0.000 C 
BRANCH  16  17
ATOM     17  O   UNL     1      44.874   5.274   9.680  0.00  0.00    +0.000 OA
BRANCH  17  18
ATOM     18  C   UNL     1      45.109   4.011   9.211  0.00  0.00    +0.000 A 
ATOM     19  C   UNL     1      44.474   2.854   9.660  0.00  0.00    +0.000 A 
ATOM     20  C   UNL     1      44.819   1.615   9.121  0.00  0.00    +0.000 A 
ATOM     21  C   UNL     1      45.791   1.533   8.123  0.00  0.00    +0.000 A 
ATOM     22  C   UNL     1      46.424   2.690   7.649  0.00  0.00    +0.000 A 
ATOM     23  C   UNL     1      46.085   3.927   8.209  0.00  0.00    +0.000 A 
BRANCH  22  24
ATOM     24  C   UNL     1      47.421   2.530   6.551  0.00  0.00    +0.000 C 
ATOM     25  N   UNL     1      47.289   3.287   5.422  0.00  0.00    +0.000 N 
ATOM     26  O   UNL     1      48.347   1.727   6.639  0.00  0.00    +0.000 OA
ATOM     27  H   UNL     1      46.561   3.964   5.255  0.00  0.00    +0.000 HD
ATOM     28  H   UNL     1      47.975   3.139   4.694  0.00  0.00    +0.000 HD
ENDBRANCH  22  24
ENDBRANCH  17  18
ENDBRANCH  16  17
ENDBRANCH   1  16
TORSDOF 9
ENDMDL
MODEL 7
REMARK VINA RESULT:    -5.798      2.806      8.315
REMARK INTER + INTRA:         -10.137
REMARK INTER:                  -8.928
REMARK INTRA:                  -1.209
REMARK UNBOUND:                -1.288
REMARK  Name = 
REMARK  13 active torsions:
REMARK  status: ('A' for Active; 'I' for Inactive)
REMARK    1  A    between atoms: C_1  and  N_2
REMARK    2  A    between atoms: N_2  and  C_3
REMARK    3  A    between atoms: N_2  and  C_4
REMARK    4  A    between atoms: C_4  and  C_5
REMARK    5  A    between atoms: C_5  and  O_6
REMARK    6  A    between atoms: O_6  and  C_7
REMARK    7  A    between atoms: C_10  and  C_11
REMARK    8  A    between atoms: C_11  and  C_12
REMARK    9  A    between atoms: C_11  and  C_13
REMARK   10  A    between atoms: C_11  and  C_14
REMARK   11  A    between atoms: C_14  and  O_15
REMARK   12  A    between atoms: O_15  and  C_16
REMARK   13  A    between atoms: C_20  and  C_21
REMARK                            x       y       z     vdW  Elec       q    Type
REMARK                         _______ _______ _______ _____ _____    ______ ____
ROOT
ATOM      1  C   UNL     1      49.675   7.951  14.538  0.00  0.00    +0.000 C 
ATOM      2  C   UNL     1      50.881   8.408  13.687  0.00  0.00    +0.000 C 
ATOM      3  C   UNL     1      49.083   9.174  15.277  0.00  0.00    +0.000 C 
ENDROOT
BRANCH   1   7
ATOM      4  C   UNL     1      46.534   6.296  11.969  0.00  0.00    +0.000 A 
ATOM      5  C   UNL     1      46.935   5.625  13.119  0.00  0.00    +0.000 A 
ATOM      6  C   UNL     1      47.939   6.147  13.936  0.00  0.00    +0.000 A 
ATOM      7  C   UNL     1      48.586   7.350  13.627  0.00  0.00    +0.000 A 
ATOM      8  C   UNL     1      48.183   8.009  12.449  0.00  0.00    +0.000 A 
ATOM      9  C   UNL     1      47.168   7.491  11.634  0.00  0.00    +0.000 A 
BRANCH   4  10
ATOM     10  O   UNL     1      45.542   5.884  11.117  0.00  0.00    +0.000 OA
BRANCH  10  11
ATOM     11  C   UNL     1      44.320   5.501  11.760  0.00  0.00    +0.000 C 
BRANCH  11  12
ATOM     12  C   UNL     1      43.387   4.829  10.748  0.00  0.00    +0.000 C 
BRANCH  12  14
ATOM     13  C   UNL     1      44.359   2.811   9.875  0.00  0.00    +0.000 C 
ATOM     14  N   UNL     1      43.387   3.353  10.827  0.00  0.00    +0.000 NA
ATOM     15  C   UNL     1      43.689   2.865  12.174  0.00  0.00    +0.000 C 
ENDBRANCH  12  14
ENDBRANCH  11  12
ENDBRANCH  10  11
ENDBRANCH   4  10
ENDBRANCH   1   7
BRANCH   1  16
ATOM     16  C   UNL     1      50.198   6.976  15.637  0.00  0.00    +0.000 C 
BRANCH  16  17
ATOM     17  O   UNL     1      49.437   7.117  16.845  0.00  0.00    +0.000 OA
BRANCH  17  18
ATOM     18  C   UNL     1      49.130   5.969  17.524  0.00  0.00    +0.000 A 
ATOM     19  C   UNL     1      48.329   5.896  18.662  0.00  0.00    +0.000 A 
ATOM     20  C   UNL     1      48.110   4.668  19.283  0.00  0.00    +0.000 A 
ATOM     21  C   UNL     1      48.679   3.507  18.758  0.00  0.00    +0.000 A 
ATOM     22  C   UNL     1      49.471   3.562  17.602  0.00  0.00    +0.000 A 
ATOM     23  C   UNL     1      49.702   4.804  16.997  0.00  0.00    +0.000 A 
BRANCH  22  24
ATOM     24  C   UNL     1      50.011   2.276  17.074  0.00  0.00    +0.000 C 
ATOM     25  N   UNL     1      51.015   1.651  17.756  0.00  0.00    +0.000 N 
ATOM     26  O   UNL     1      49.580   1.779  16.037  0.00  0.00    +0.000 OA
ATOM     27  H   UNL     1      51.438   1.985  18.608  0.00  0.00    +0.000 HD
ATOM     28  H   UNL     1      51.366   0.790  17.359  0.00  0.00    +0.000 HD
ENDBRANCH  22  24
ENDBRANCH  17  18
ENDBRANCH  16  17
ENDBRANCH   1  16
TORSDOF 9
ENDMDL
MODEL 8
REMARK VINA RESULT:    -5.729      3.129      8.319
REMARK INTER + INTRA:         -10.032
REMARK INTER:                  -8.603
REMARK INTRA:                  -1.429
REMARK UNBOUND:                -1.288
REMARK  Name = 
REMARK  13 active torsions:
REMARK  status: ('A' for Active; 'I' for Inactive)
REMARK    1  A    between atoms: C_1  and  N_2
REMARK    2  A    between atoms: N_2  and  C_3
REMARK    3  A    between atoms: N_2  and  C_4
REMARK    4  A    between atoms: C_4  and  C_5
REMARK    5  A    between atoms: C_5  and  O_6
REMARK    6  A    between atoms: O_6  and  C_7
REMARK    7  A    between atoms: C_10  and  C_11
REMARK    8  A    between atoms: C_11  and  C_12
REMARK    9  A    between atoms: C_11  and  C_13
REMARK   10  A    between atoms: C_11  and  C_14
REMARK   11  A    between atoms: C_14  and  O_15
REMARK   12  A    between atoms: O_15  and  C_16
REMARK   13  A    between atoms: C_20  and  C_21
REMARK                            x       y       z     vdW  Elec       q    Type
REMARK                         _______ _______ _______ _____ _____    ______ ____
ROOT
ATOM      1  C   UNL     1      49.788   8.276  14.192  0.00  0.00    +0.000 C 
ATOM      2  C   UNL     1      50.895   8.408  13.123  0.00  0.00    +0.000 C 
ATOM      3  C   UNL     1      49.615   9.633  14.913  0.00  0.00    +0.000 C 
ENDROOT
BRANCH   1   7
ATOM      4  C   UNL     1      46.023   7.201  12.224  0.00  0.00    +0.000 A 
ATOM      5  C   UNL     1      46.227   8.490  12.705  0.00  0.00    +0.000 A 
ATOM      6  C   UNL     1      47.423   8.833  13.337  0.00  0.00    +0.000 A 
ATOM      7  C   UNL     1      48.451   7.900  13.522  0.00  0.00    +0.000 A 
ATOM      8  C   UNL     1      48.222   6.594  13.047  0.00  0.00    +0.000 A 
ATOM      9  C   UNL     1      47.026   6.252  12.402  0.00  0.00    +0.000 A 
BRANCH   4  10
ATOM     10  O   UNL     1      44.899   6.771  11.566  0.00  0.00    +0.000 OA
BRANCH  10  11
ATOM     11  C   UNL     1      45.106   5.655  10.692  0.00  0.00    +0.000 C 
BRANCH  11  12
ATOM     12  C   UNL     1      43.936   4.673  10.814  0.00  0.00    +0.000 C 
BRANCH  12  14
ATOM     13  C   UNL     1      43.370   2.560  11.811  0.00  0.00    +0.000 C 
ATOM     14  N   UNL     1      44.355   3.266  10.990  0.00  0.00    +0.000 NA
ATOM     15  C   UNL     1      44.525   2.569   9.714  0.00  0.00    +0.000 C 
ENDBRANCH  12  14
ENDBRANCH  11  12
ENDBRANCH  10  11
ENDBRANCH   4  10
ENDBRANCH   1   7
BRANCH   1  16
ATOM     16  C   UNL     1      50.271   7.257  15.268  0.00  0.00    +0.000 C 
BRANCH  16  17
ATOM     17  O   UNL     1      49.973   7.732  16.589  0.00  0.00    +0.000 OA
BRANCH  17  18
ATOM     18  C   UNL     1      49.019   7.050  17.295  0.00  0.00    +0.000 A 
ATOM     19  C   UNL     1      48.465   7.461  18.506  0.00  0.00    +0.000 A 
ATOM     20  C   UNL     1      47.518   6.664  19.145  0.00  0.00    +0.000 A 
ATOM     21  C   UNL     1      47.112   5.461  18.568  0.00  0.00    +0.000 A 
ATOM     22  C   UNL     1      47.646   5.043  17.341  0.00  0.00    +0.000 A 
ATOM     23  C   UNL     1      48.611   5.841  16.715  0.00  0.00    +0.000 A 
BRANCH  22  24
ATOM     24  C   UNL     1      47.133   3.768  16.763  0.00  0.00    +0.000 C 
ATOM     25  N   UNL     1      47.170   3.593  15.409  0.00  0.00    +0.000 N 
ATOM     26  O   UNL     1      46.672   2.882  17.477  0.00  0.00    +0.000 OA
ATOM     27  H   UNL     1      47.521   4.264  14.743  0.00  0.00    +0.000 HD
ATOM     28  H   UNL     1      46.799   2.722  15.054  0.00  0.00    +0.000 HD
ENDBRANCH  22  24
ENDBRANCH  17  18
ENDBRANCH  16  17
ENDBRANCH   1  16
TORSDOF 9
ENDMDL
MODEL 9
REMARK VINA RESULT:    -4.978      3.782      8.417
REMARK INTER + INTRA:          -8.886
REMARK INTER:                  -7.617
REMARK INTRA:                  -1.269
REMARK UNBOUND:                -1.288
REMARK  Name = 
REMARK  13 active torsions:
REMARK  status: ('A' for Active; 'I' for Inactive)
REMARK    1  A    between atoms: C_1  and  N_2
REMARK    2  A    between atoms: N_2  and  C_3
REMARK    3  A    between atoms: N_2  and  C_4
REMARK    4  A    between atoms: C_4  and  C_5
REMARK    5  A    between atoms: C_5  and  O_6
REMARK    6  A    between atoms: O_6  and  C_7
REMARK    7  A    between atoms: C_10  and  C_11
REMARK    8  A    between atoms: C_11  and  C_12
REMARK    9  A    between atoms: C_11  and  C_13
REMARK   10  A    between atoms: C_11  and  C_14
REMARK   11  A    between atoms: C_14  and  O_15
REMARK   12  A    between atoms: O_15  and  C_16
REMARK   13  A    between atoms: C_20  and  C_21
REMARK                            x       y       z     vdW  Elec       q    Type
REMARK                         _______ _______ _______ _____ _____    ______ ____
ROOT
ATOM      1  C   UNL     1      49.806   9.044  12.176  0.00  0.00    +0.000 C 
ATOM      2  C   UNL     1      50.790   8.120  11.426  0.00  0.00    +0.000 C 
ATOM      3  C   UNL     1      49.838  10.450  11.530  0.00  0.00    +0.000 C 
ENDROOT
BRANCH   1   7
ATOM      4  C   UNL     1      45.721   7.477  11.944  0.00  0.00    +0.000 A 
ATOM      5  C   UNL     1      46.811   6.613  11.964  0.00  0.00    +0.000 A 
ATOM      6  C   UNL     1      48.113   7.110  12.033  0.00  0.00    +0.000 A 
ATOM      7  C   UNL     1      48.374   8.485  12.071  0.00  0.00    +0.000 A 
ATOM      8  C   UNL     1      47.261   9.349  12.030  0.00  0.00    +0.000 A 
ATOM      9  C   UNL     1      45.953   8.850  11.972  0.00  0.00    +0.000 A 
BRANCH   4  10
ATOM     10  O   UNL     1      44.406   7.091  11.906  0.00  0.00    +0.000 OA
BRANCH  10  11
ATOM     11  C   UNL     1      44.172   5.721  12.252  0.00  0.00    +0.000 C 
BRANCH  11  12
ATOM     12  C   UNL     1      43.767   4.929  11.005  0.00  0.00    +0.000 C 
BRANCH  12  14
ATOM     13  C   UNL     1      43.280   2.670  11.668  0.00  0.00    +0.000 C 
ATOM     14  N   UNL     1      44.256   3.534  11.000  0.00  0.00    +0.000 NA
ATOM     15  C   UNL     1      44.514   3.036   9.648  0.00  0.00    +0.000 C 
ENDBRANCH  12  14
ENDBRANCH  11  12
ENDBRANCH  10  11
ENDBRANCH   4  10
ENDBRANCH   1   7
BRANCH   1  16
ATOM     16  C   UNL     1      50.319   9.215  13.639  0.00  0.00    +0.000 C 
BRANCH  16  17
ATOM     17  O   UNL     1      49.345   9.895  14.444  0.00  0.00    +0.000 OA
BRANCH  17  18
ATOM     18  C   UNL     1      48.984   9.298  15.621  0.00  0.00    +0.000 A 
ATOM     19  C   UNL     1      48.592   9.969  16.778  0.00  0.00    +0.000 A 
ATOM     20  C   UNL     1      48.273   9.248  17.927  0.00  0.00    +0.000 A 
ATOM     21  C   UNL     1      48.331   7.854  17.918  0.00  0.00    +0.000 A 
ATOM     22  C   UNL     1      48.704   7.165  16.756  0.00  0.00    +0.000 A 
ATOM     23  C   UNL     1      49.042   7.898  15.612  0.00  0.00    +0.000 A 
BRANCH  22  24
ATOM     24  C   UNL     1      48.703   5.674  16.807  0.00  0.00    +0.000 C 
ATOM     25  N   UNL     1      47.517   5.020  16.983  0.00  0.00    +0.000 N 
ATOM     26  O   UNL     1      49.743   5.030  16.705  0.00  0.00    +0.000 OA
ATOM     27  H   UNL     1      46.616   5.461  17.084  0.00  0.00    +0.000 HD
ATOM     28  H   UNL     1      47.558   4.011  17.028  0.00  0.00    +0.000 HD
ENDBRANCH  22  24
ENDBRANCH  17  18
ENDBRANCH  16  17
ENDBRANCH   1  16
TORSDOF 9
ENDMDL
