MODEL 1
REMARK VINA RESULT:    -7.618      0.000      0.000
REMARK INTER + INTRA:          -9.703
REMARK INTER:                  -9.400
REMARK INTRA:                  -0.303
REMARK UNBOUND:                -0.303
REMARK  Name = 
REMARK  4 active torsions:
REMARK  status: ('A' for Active; 'I' for Inactive)
REMARK    1  A    between atoms: C_2  and  C_4
REMARK    2  A    between atoms: C_7  and  N_8
REMARK    3  A    between atoms: N_8  and  C_9
REMARK    4  A    between atoms: C_9  and  C_10
REMARK                            x       y       z     vdW  Elec       q    Type
REMARK                         _______ _______ _______ _____ _____    ______ ____
ROOT
ATOM      1  C   UNL     1      46.510   2.525   7.699  0.00  0.00    +0.000 A 
ATOM      2  C   UNL     1      46.484   3.903   7.553  0.00  0.00    +0.000 A 
ATOM      3  N   UNL     1      45.611   4.699   8.229  0.00  0.00    +0.000 NA
ATOM      4  C   UNL     1      44.759   4.073   9.066  0.00  0.00    +0.000 A 
ATOM      5  C   UNL     1      44.831   2.682   9.237  0.00  0.00    +0.000 A 
ATOM      6  N   UNL     1      45.683   1.867   8.557  0.00  0.00    +0.000 NA
ENDROOT
BRANCH   1   8
ATOM      7  N   UNL     1      48.558   2.349   6.401  0.00  0.00    +0.000 N 
ATOM      8  C   UNL     1      47.443   1.711   6.873  0.00  0.00    +0.000 C 
ATOM      9  O   UNL     1      47.238   0.525   6.640  0.00  0.00    +0.000 OA
ATOM     10  H   UNL     1      49.241   1.817   5.882  0.00  0.00    +0.000 HD
ATOM     11  H   UNL     1      48.760   3.303   6.681  0.00  0.00    +0.000 HD
ENDBRANCH   1   8
BRANCH   4  12
ATOM     12  N   UNL     1      43.782   4.795   9.760  0.00  0.00    +0.000 N 
ATOM     13  H   UNL     1      43.001   5.010   9.148  0.00  0.00    +0.000 HD
BRANCH  12  14
ATOM     14  C   UNL     1      43.383   4.221  11.045  0.00  0.00    +0.000 C 
BRANCH  14  15
ATOM     15  C   UNL     1      44.166   4.921  12.178  0.00  0.00    +0.000 C 
ATOM     16  C   UNL     1      44.715   6.282  11.701  0.00  0.00    +0.000 C 
ATOM     17  C   UNL     1      45.574   6.968  12.757  0.00  0.00    +0.000 C 
ATOM     18  C   UNL     1      46.709   6.066  13.224  0.00  0.00    +0.000 C 
ATOM     19  C   UNL     1      46.176   4.730  13.731  0.00  0.00    +0.000 C 
ATOM     20  C   UNL     1      45.316   4.029  12.679  0.00  0.00    +0.000 C 
ENDBRANCH  14  15
ENDBRANCH  12  14
ENDBRANCH   4  12
TORSDOF 4
ENDMDL
MODEL 2
REMARK VINA RESULT:    -7.529      3.130      5.978
REMARK INTER + INTRA:          -9.593
REMARK INTER:                  -9.226
REMARK INTRA:                  -0.367
REMARK UNBOUND:                -0.303
REMARK  Name = 
REMARK  4 active torsions:
REMARK  status: ('A' for Active; 'I' for Inactive)
REMARK    1  A    between atoms: C_2  and  C_4
REMARK    2  A    between atoms: C_7  and  N_8
REMARK    3  A    between atoms: N_8  and  C_9
REMARK    4  A    between atoms: C_9  and  C_10
REMARK                            x       y       z     vdW  Elec       q    Type
REMARK                         _______ _______ _______ _____ _____    ______ ____
ROOT
ATOM      1  C   UNL     1      46.431   4.898  13.128  0.00  0.00    +0.000 A 
ATOM      2  C   UNL     1      46.158   5.735  12.058  0.00  0.00    +0.000 A 
ATOM      3  N   UNL     1      45.364   5.362  11.017  0.00  0.00    +0.000 NA
ATOM      4  C   UNL     1      44.841   4.121  11.080  0.00  0.00    +0.000 A 
ATOM      5  C   UNL     1      45.090   3.306  12.194  0.00  0.00    +0.000 A 
ATOM      6  N   UNL     1      45.896   3.651  13.235  0.00  0.00    +0.000 NA
ENDROOT
BRANCH   1   8
ATOM      7  N   UNL     1      47.083   4.939  15.470  0.00  0.00    +0.000 N 
ATOM      8  C   UNL     1      47.368   5.345  14.195  0.00  0.00    +0.000 C 
ATOM      9  O   UNL     1      48.358   6.026  13.947  0.00  0.00    +0.000 OA
ATOM     10  H   UNL     1      47.724   5.177  16.213  0.00  0.00    +0.000 HD
ATOM     11  H   UNL     1      46.316   4.299  15.644  0.00  0.00    +0.000 HD
ENDBRANCH   1   8
BRANCH   4  12
ATOM     12  N   UNL     1      44.061   3.622  10.031  0.00  0.00    +0.000 N 
ATOM     13  H   UNL     1      43.946   4.328   9.310  0.00  0.00    +0.000 HD
BRANCH  12  14
ATOM     14  C   UNL     1      44.475   2.317   9.517  0.00  0.00    +0.000 C 
BRANCH  14  15
ATOM     15  C   UNL     1      45.749   2.490   8.660  0.00  0.00    +0.000 C 
ATOM     16  C   UNL     1      45.503   3.498   7.517  0.00  0.00    +0.000 C 
ATOM     17  C   UNL     1      46.703   3.631   6.588  0.00  0.00    +0.000 C 
ATOM     18  C   UNL     1      47.128   2.280   6.029  0.00  0.00    +0.000 C 
ATOM     19  C   UNL     1      47.409   1.286   7.150  0.00  0.00    +0.000 C 
ATOM     20  C   UNL     1      46.210   1.138   8.087  0.00  0.00    +0.000 C 
ENDBRANCH  14  15
ENDBRANCH  12  14
ENDBRANCH   4  12
TORSDOF 4
ENDMDL
MODEL 3
REMARK VINA RESULT:    -7.520      3.256      6.075
REMARK INTER + INTRA:          -9.582
REMARK INTER:                  -9.199
REMARK INTRA:                  -0.383
REMARK UNBOUND:                -0.303
REMARK  Name = 
REMARK  4 active torsions:
REMARK  status: ('A' for Active; 'I' for Inactive)
REMARK    1  A    between atoms: C_2  and  C_4
REMARK    2  A    between atoms: C_7  and  N_8
REMARK    3  A    between atoms: N_8  and  C_9
REMARK    4  A    between atoms: C_9  and  C_10
REMARK                            x       y       z     vdW  Elec       q    Type
REMARK                         _______ _______ _______ _____ _____    ______ ____
ROOT
ATOM      1  C   UNL     1      46.437   4.749  13.619  0.00  0.00    +0.000 A 
ATOM      2  C   UNL     1      46.711   5.870  12.853  0.00  0.00    +0.000 A 
ATOM      3  N   UNL     1      46.239   6.030  11.586  0.00  0.00    +0.000 NA
ATOM      4  C   UNL     1      45.473   5.030  11.105  0.00  0.00    +0.000 A 
ATOM      5  C   UNL     1      45.166   3.925  11.912  0.00  0.00    +0.000 A 
ATOM      6  N   UNL     1      45.644   3.737  13.172  0.00  0.00    +0.000 NA
ENDROOT
BRANCH   1   8
ATOM      7  N   UNL     1      47.728   5.694  15.449  0.00  0.00    +0.000 N 
ATOM      8  C   UNL     1      47.048   4.608  14.969  0.00  0.00    +0.000 C 
ATOM      9  O   UNL     1      46.935   3.581  15.629  0.00  0.00    +0.000 OA
ATOM     10  H   UNL     1      48.110   5.656  16.382  0.00  0.00    +0.000 HD
ATOM     11  H   UNL     1      47.731   6.567  14.932  0.00  0.00    +0.000 HD
ENDBRANCH   1   8
BRANCH   4  12
ATOM     12  N   UNL     1      44.989   5.071   9.793  0.00  0.00    +0.000 N 
ATOM     13  H   UNL     1      45.738   5.305   9.148  0.00  0.00    +0.000 HD
BRANCH  12  14
ATOM     14  C   UNL     1      44.203   3.907   9.385  0.00  0.00    +0.000 C 
BRANCH  14  15
ATOM     15  C   UNL     1      44.963   3.145   8.276  0.00  0.00    +0.000 C 
ATOM     16  C   UNL     1      45.599   1.857   8.840  0.00  0.00    +0.000 C 
ATOM     17  C   UNL     1      46.438   1.119   7.803  0.00  0.00    +0.000 C 
ATOM     18  C   UNL     1      47.504   2.025   7.201  0.00  0.00    +0.000 C 
ATOM     19  C   UNL     1      46.883   3.285   6.608  0.00  0.00    +0.000 C 
ATOM     20  C   UNL     1      46.042   4.039   7.640  0.00  0.00    +0.000 C 
ENDBRANCH  14  15
ENDBRANCH  12  14
ENDBRANCH   4  12
TORSDOF 4
ENDMDL
MODEL 4
REMARK VINA RESULT:    -5.880      4.202      6.676
REMARK INTER + INTRA:          -7.559
REMARK INTER:                  -7.215
REMARK INTRA:                  -0.343
REMARK UNBOUND:                -0.303
REMARK  Name = 
REMARK  4 active torsions:
REMARK  status: ('A' for Active; 'I' for Inactive)
REMARK    1  A    between atoms: C_2  and  C_4
REMARK    2  A    between atoms: C_7  and  N_8
REMARK    3  A    between atoms: N_8  and  C_9
REMARK    4  A    between atoms: C_9  and  C_10
REMARK                            x       y       z     vdW  Elec       q    Type
REMARK                         _______ _______ _______ _____ _____    ______ ____
ROOT
ATOM      1  C   UNL     1      48.240   6.522  14.406  0.00  0.00    +0.000 A 
ATOM      2  C   UNL     1      48.206   7.551  13.479  0.00  0.00    +0.000 A 
ATOM      3  N   UNL     1      47.490   7.478  12.324  0.00  0.00    +0.000 NA
ATOM      4  C   UNL     1      46.798   6.338  12.122  0.00  0.00    +0.000 A 
ATOM      5  C   UNL     1      46.806   5.327  13.094  0.00  0.00    +0.000 A 
ATOM      6  N   UNL     1      47.529   5.372  14.245  0.00  0.00    +0.000 NA
ENDROOT
BRANCH   1   8
ATOM      7  N   UNL     1      48.464   6.843  16.806  0.00  0.00    +0.000 N 
ATOM      8  C   UNL     1      49.103   6.642  15.613  0.00  0.00    +0.000 C 
ATOM      9  O   UNL     1      50.324   6.548  15.550  0.00  0.00    +0.000 OA
ATOM     10  H   UNL     1      49.011   6.876  17.653  0.00  0.00    +0.000 HD
ATOM     11  H   UNL     1      47.451   6.823  16.854  0.00  0.00    +0.000 HD
ENDBRANCH   1   8
BRANCH   4  12
ATOM     12  N   UNL     1      46.080   6.141  10.938  0.00  0.00    +0.000 N 
ATOM     13  H   UNL     1      46.696   5.806  10.204  0.00  0.00    +0.000 HD
BRANCH  12  14
ATOM     14  C   UNL     1      44.854   5.356  11.080  0.00  0.00    +0.000 C 
BRANCH  14  15
ATOM     15  C   UNL     1      44.716   4.405   9.870  0.00  0.00    +0.000 C 
ATOM     16  C   UNL     1      44.809   2.933  10.322  0.00  0.00    +0.000 C 
ATOM     17  C   UNL     1      44.772   1.959   9.149  0.00  0.00    +0.000 C 
ATOM     18  C   UNL     1      45.856   2.277   8.127  0.00  0.00    +0.000 C 
ATOM     19  C   UNL     1      45.751   3.720   7.646  0.00  0.00    +0.000 C 
ATOM     20  C   UNL     1      45.793   4.708   8.813  0.00  0.00    +0.000 C 
ENDBRANCH  14  15
ENDBRANCH  12  14
ENDBRANCH   4  12
TORSDOF 4
ENDMDL
MODEL 5
REMARK VINA RESULT:    -5.690      3.419      4.935
REMARK INTER + INTRA:          -7.324
REMARK INTER:                  -7.085
REMARK INTRA:                  -0.239
REMARK UNBOUND:                -0.303
REMARK  Name = 
REMARK  4 active torsions:
REMARK  status: ('A' for Active; 'I' for Inactive)
REMARK    1  A    between atoms: C_2  and  C_4
REMARK    2  A    between atoms: C_7  and  N_8
REMARK    3  A    between atoms: N_8  and  C_9
REMARK    4  A    between atoms: C_9  and  C_10
REMARK                            x       y       z     vdW  Elec       q    Type
REMARK                         _______ _______ _______ _____ _____    ______ ____
ROOT
ATOM      1  C   UNL     1      45.218   4.280  10.349  0.00  0.00    +0.000 A 
ATOM      2  C   UNL     1      44.899   3.246  11.214  0.00  0.00    +0.000 A 
ATOM      3  N   UNL     1      45.091   3.325  12.560  0.00  0.00    +0.000 NA
ATOM      4  C   UNL     1      45.612   4.480  13.020  0.00  0.00    +0.000 A 
ATOM      5  C   UNL     1      45.885   5.534  12.135  0.00  0.00    +0.000 A 
ATOM      6  N   UNL     1      45.719   5.468  10.787  0.00  0.00    +0.000 NA
ENDROOT
BRANCH   1   8
ATOM      7  N   UNL     1      44.170   3.125   8.484  0.00  0.00    +0.000 N 
ATOM      8  C   UNL     1      45.050   4.095   8.882  0.00  0.00    +0.000 C 
ATOM      9  O   UNL     1      45.651   4.787   8.067  0.00  0.00    +0.000 OA
ATOM     10  H   UNL     1      43.989   3.006   7.499  0.00  0.00    +0.000 HD
ATOM     11  H   UNL     1      43.611   2.629   9.169  0.00  0.00    +0.000 HD
ENDBRANCH   1   8
BRANCH   4  12
ATOM     12  N   UNL     1      45.905   4.639  14.379  0.00  0.00    +0.000 N 
ATOM     13  H   UNL     1      45.630   3.810  14.898  0.00  0.00    +0.000 HD
BRANCH  12  14
ATOM     14  C   UNL     1      47.264   5.092  14.672  0.00  0.00    +0.000 C 
BRANCH  14  15
ATOM     15  C   UNL     1      47.602   4.766  16.144  0.00  0.00    +0.000 C 
ATOM     16  C   UNL     1      48.835   5.568  16.609  0.00  0.00    +0.000 C 
ATOM     17  C   UNL     1      49.263   5.210  18.028  0.00  0.00    +0.000 C 
ATOM     18  C   UNL     1      49.510   3.714  18.175  0.00  0.00    +0.000 C 
ATOM     19  C   UNL     1      48.284   2.911  17.751  0.00  0.00    +0.000 C 
ATOM     20  C   UNL     1      47.847   3.257  16.327  0.00  0.00    +0.000 C 
ENDBRANCH  14  15
ENDBRANCH  12  14
ENDBRANCH   4  12
TORSDOF 4
ENDMDL
MODEL 6
REMARK VINA RESULT:    -5.498      3.648      5.345
REMARK INTER + INTRA:          -7.086
REMARK INTER:                  -6.771
REMARK INTRA:                  -0.315
REMARK UNBOUND:                -0.303
REMARK  Name = 
REMARK  4 active torsions:
REMARK  status: ('A' for Active; 'I' for Inactive)
REMARK    1  A    between atoms: C_2  and  C_4
REMARK    2  A    between atoms: C_7  and  N_8
REMARK    3  A    between atoms: N_8  and  C_9
REMARK    4  A    between atoms: C_9  and  C_10
REMARK                            x       y       z     vdW  Elec       q    Type
REMARK                         _______ _______ _______ _____ _____    ______ ____
ROOT
ATOM      1  C   UNL     1      44.810   3.823  11.681  0.00  0.00    +0.000 A 
ATOM      2  C   UNL     1      44.939   5.064  11.078  0.00  0.00    +0.000 A 
ATOM      3  N   UNL     1      45.615   6.096  11.654  0.00  0.00    +0.000 NA
ATOM      4  C   UNL     1      46.166   5.848  12.860  0.00  0.00    +0.000 A 
ATOM      5  C   UNL     1      46.065   4.572  13.433  0.00  0.00    +0.000 A 
ATOM      6  N   UNL     1      45.379   3.534  12.884  0.00  0.00    +0.000 NA
ENDROOT
BRANCH   1   8
ATOM      7  N   UNL     1      44.483   2.252   9.856  0.00  0.00    +0.000 N 
ATOM      8  C   UNL     1      43.995   2.764  11.026  0.00  0.00    +0.000 C 
ATOM      9  O   UNL     1      42.947   2.355  11.516  0.00  0.00    +0.000 OA
ATOM     10  H   UNL     1      43.986   1.495   9.410  0.00  0.00    +0.000 HD
ATOM     11  H   UNL     1      45.396   2.533   9.515  0.00  0.00    +0.000 HD
ENDBRANCH   1   8
BRANCH   4  12
ATOM     12  N   UNL     1      46.829   6.861  13.562  0.00  0.00    +0.000 N 
ATOM     13  H   UNL     1      46.490   6.908  14.517  0.00  0.00    +0.000 HD
BRANCH  12  14
ATOM     14  C   UNL     1      48.287   6.837  13.455  0.00  0.00    +0.000 C 
BRANCH  14  15
ATOM     15  C   UNL     1      48.729   7.783  12.316  0.00  0.00    +0.000 C 
ATOM     16  C   UNL     1      50.264   7.935  12.300  0.00  0.00    +0.000 C 
ATOM     17  C   UNL     1      50.741   8.933  11.251  0.00  0.00    +0.000 C 
ATOM     18  C   UNL     1      50.069  10.289  11.426  0.00  0.00    +0.000 C 
ATOM     19  C   UNL     1      48.551  10.155  11.407  0.00  0.00    +0.000 C 
ATOM     20  C   UNL     1      48.058   9.161  12.459  0.00  0.00    +0.000 C 
ENDBRANCH  14  15
ENDBRANCH  12  14
ENDBRANCH   4  12
TORSDOF 4
ENDMDL
MODEL 7
REMARK VINA RESULT:    -5.488      4.344      6.147
REMARK INTER + INTRA:          -7.074
REMARK INTER:                  -6.846
REMARK INTRA:                  -0.228
REMARK UNBOUND:                -0.303
REMARK  Name = 
REMARK  4 active torsions:
REMARK  status: ('A' for Active; 'I' for Inactive)
REMARK    1  A    between atoms: C_2  and  C_4
REMARK    2  A    between atoms: C_7  and  N_8
REMARK    3  A    between atoms: N_8  and  C_9
REMARK    4  A    between atoms: C_9  and  C_10
REMARK                            x       y       z     vdW  Elec       q    Type
REMARK                         _______ _______ _______ _____ _____    ______ ____
ROOT
ATOM      1  C   UNL     1      44.950   4.270  11.927  0.00  0.00    +0.000 A 
ATOM      2  C   UNL     1      45.176   5.609  12.203  0.00  0.00    +0.000 A 
ATOM      3  N   UNL     1      46.012   6.026  13.192  0.00  0.00    +0.000 NA
ATOM      4  C   UNL     1      46.625   5.057  13.902  0.00  0.00    +0.000 A 
ATOM      5  C   UNL     1      46.421   3.707  13.577  0.00  0.00    +0.000 A 
ATOM      6  N   UNL     1      45.575   3.270  12.606  0.00  0.00    +0.000 NA
ENDROOT
BRANCH   1   8
ATOM      7  N   UNL     1      43.780   4.781   9.857  0.00  0.00    +0.000 N 
ATOM      8  C   UNL     1      43.965   3.888  10.877  0.00  0.00    +0.000 C 
ATOM      9  O   UNL     1      43.363   2.820  10.911  0.00  0.00    +0.000 OA
ATOM     10  H   UNL     1      43.161   4.534   9.100  0.00  0.00    +0.000 HD
ATOM     11  H   UNL     1      44.355   5.614   9.795  0.00  0.00    +0.000 HD
ENDBRANCH   1   8
BRANCH   4  12
ATOM     12  N   UNL     1      47.457   5.380  14.980  0.00  0.00    +0.000 N 
ATOM     13  H   UNL     1      47.268   6.325  15.300  0.00  0.00    +0.000 HD
BRANCH  12  14
ATOM     14  C   UNL     1      47.489   4.390  16.056  0.00  0.00    +0.000 C 
BRANCH  14  15
ATOM     15  C   UNL     1      48.195   5.002  17.287  0.00  0.00    +0.000 C 
ATOM     16  C   UNL     1      49.332   4.080  17.776  0.00  0.00    +0.000 C 
ATOM     17  C   UNL     1      49.997   4.597  19.047  0.00  0.00    +0.000 C 
ATOM     18  C   UNL     1      48.978   4.827  20.155  0.00  0.00    +0.000 C 
ATOM     19  C   UNL     1      47.868   5.765  19.695  0.00  0.00    +0.000 C 
ATOM     20  C   UNL     1      47.188   5.255  18.424  0.00  0.00    +0.000 C 
ENDBRANCH  14  15
ENDBRANCH  12  14
ENDBRANCH   4  12
TORSDOF 4
ENDMDL
MODEL 8
REMARK VINA RESULT:    -5.363      6.071      8.266
REMARK INTER + INTRA:          -6.921
REMARK INTER:                  -6.634
REMARK INTRA:                  -0.287
REMARK UNBOUND:                -0.303
REMARK  Name = 
REMARK  4 active torsions:
REMARK  status: ('A' for Active; 'I' for Inactive)
REMARK    1  A    between atoms: C_2  and  C_4
REMARK    2  A    between atoms: C_7  and  N_8
REMARK    3  A    between atoms: N_8  and  C_9
REMARK    4  A    between atoms: C_9  and  C_10
REMARK                            x       y       z     vdW  Elec       q    Type
REMARK                         _______ _______ _______ _____ _____    ______ ____
ROOT
ATOM      1  C   UNL     1      48.496   4.463  18.191  0.00  0.00    +0.000 A 
ATOM      2  C   UNL     1      48.820   5.308  17.142  0.00  0.00    +0.000 A 
ATOM      3  N   UNL     1      48.249   5.205  15.911  0.00  0.00    +0.000 NA
ATOM      4  C   UNL     1      47.332   4.228  15.758  0.00  0.00    +0.000 A 
ATOM      5  C   UNL     1      46.982   3.413  16.845  0.00  0.00    +0.000 A 
ATOM      6  N   UNL     1      47.554   3.486  18.077  0.00  0.00    +0.000 NA
ENDROOT
BRANCH   1   8
ATOM      7  N   UNL     1      48.670   3.924  20.556  0.00  0.00    +0.000 N 
ATOM      8  C   UNL     1      49.214   4.587  19.489  0.00  0.00    +0.000 C 
ATOM      9  O   UNL     1      50.251   5.233  19.598  0.00  0.00    +0.000 OA
ATOM     10  H   UNL     1      49.157   3.940  21.440  0.00  0.00    +0.000 HD
ATOM     11  H   UNL     1      47.867   3.318  20.427  0.00  0.00    +0.000 HD
ENDBRANCH   1   8
BRANCH   4  12
ATOM     12  N   UNL     1      46.732   4.001  14.515  0.00  0.00    +0.000 N 
ATOM     13  H   UNL     1      45.786   3.655  14.638  0.00  0.00    +0.000 HD
BRANCH  12  14
ATOM     14  C   UNL     1      46.835   5.110  13.566  0.00  0.00    +0.000 C 
BRANCH  14  15
ATOM     15  C   UNL     1      45.781   4.923  12.452  0.00  0.00    +0.000 C 
ATOM     16  C   UNL     1      44.572   5.853  12.685  0.00  0.00    +0.000 C 
ATOM     17  C   UNL     1      43.463   5.638  11.662  0.00  0.00    +0.000 C 
ATOM     18  C   UNL     1      43.019   4.181  11.619  0.00  0.00    +0.000 C 
ATOM     19  C   UNL     1      44.200   3.255  11.353  0.00  0.00    +0.000 C 
ATOM     20  C   UNL     1      45.319   3.457  12.377  0.00  0.00    +0.000 C 
ENDBRANCH  14  15
ENDBRANCH  12  14
ENDBRANCH   4  12
TORSDOF 4
ENDMDL
MODEL 9
REMARK VINA RESULT:    -5.004      4.981      6.887
REMARK INTER + INTRA:          -6.478
REMARK INTER:                  -6.199
REMARK INTRA:                  -0.278
REMARK UNBOUND:                -0.303
REMARK  Name = 
REMARK  4 active torsions:
REMARK  status: ('A' for Active; 'I' for Inactive)
REMARK    1  A    between atoms: C_2  and  C_4
REMARK    2  A    between atoms: C_7  and  N_8
REMARK    3  A    between atoms: N_8  and  C_9
REMARK    4  A    between atoms: C_9  and  C_10
REMARK                            x       y       z     vdW  Elec       q    Type
REMARK                         _______ _______ _______ _____ _____    ______ ____
ROOT
ATOM      1  C   UNL     1      45.398   6.846  12.492  0.00  0.00    +0.000 A 
ATOM      2  C   UNL     1      46.681   6.875  13.017  0.00  0.00    +0.000 A 
ATOM      3  N   UNL     1      47.191   5.861  13.769  0.00  0.00    +0.000 NA
ATOM      4  C   UNL     1      46.377   4.807  13.979  0.00  0.00    +0.000 A 
ATOM      5  C   UNL     1      45.100   4.774  13.400  0.00  0.00    +0.000 A 
ATOM      6  N   UNL     1      44.564   5.784  12.662  0.00  0.00    +0.000 NA
ENDROOT
BRANCH   1   8
ATOM      7  N   UNL     1      43.697   7.853  11.077  0.00  0.00    +0.000 N 
ATOM      8  C   UNL     1      44.881   8.023  11.741  0.00  0.00    +0.000 C 
ATOM      9  O   UNL     1      45.472   9.097  11.730  0.00  0.00    +0.000 OA
ATOM     10  H   UNL     1      43.287   8.642  10.601  0.00  0.00    +0.000 HD
ATOM     11  H   UNL     1      43.174   6.989  11.175  0.00  0.00    +0.000 HD
ENDBRANCH   1   8
BRANCH   4  12
ATOM     12  N   UNL     1      46.786   3.741  14.789  0.00  0.00    +0.000 N 
ATOM     13  H   UNL     1      47.505   3.199  14.321  0.00  0.00    +0.000 HD
BRANCH  12  14
ATOM     14  C   UNL     1      47.124   4.103  16.165  0.00  0.00    +0.000 C 
BRANCH  14  15
ATOM     15  C   UNL     1      48.650   3.971  16.365  0.00  0.00    +0.000 C 
ATOM     16  C   UNL     1      48.990   2.661  17.106  0.00  0.00    +0.000 C 
ATOM     17  C   UNL     1      50.479   2.532  17.409  0.00  0.00    +0.000 C 
ATOM     18  C   UNL     1      50.997   3.737  18.184  0.00  0.00    +0.000 C 
ATOM     19  C   UNL     1      50.698   5.036  17.444  0.00  0.00    +0.000 C 
ATOM     20  C   UNL     1      49.206   5.181  17.138  0.00  0.00    +0.000 C 
ENDBRANCH  14  15
ENDBRANCH  12  14
ENDBRANCH   4  12
TORSDOF 4
ENDMDL
