MODEL 1
REMARK VINA RESULT:    -8.895      0.000      0.000
REMARK INTER + INTRA:         -12.134
REMARK INTER:                 -10.975
REMARK INTRA:                  -1.159
REMARK UNBOUND:                -1.159
REMARK  Name = 
REMARK  4 active torsions:
REMARK  status: ('A' for Active; 'I' for Inactive)
REMARK    1  A    between atoms: C_2  and  C_4
REMARK    2  A    between atoms: N_8  and  C_9
REMARK    3  A    between atoms: C_9  and  C_10
REMARK    4  A    between atoms: C_15  and  C_16
REMARK                            x       y       z     vdW  Elec       q    Type
REMARK                         _______ _______ _______ _____ _____    ______ ____
ROOT
ATOM      1  C   UNL     1      43.795   4.910  11.403  0.00  0.00    +0.000 C 
ATOM      2  C   UNL     1      42.439   5.165  12.050  0.00  0.00    +0.000 C 
ATOM      3  C   UNL     1      42.939   6.096  10.998  0.00  0.00    +0.000 C 
ENDROOT
BRANCH   1   8
ATOM      4  C   UNL     1      46.490   2.720   7.521  0.00  0.00    +0.000 A 
ATOM      5  C   UNL     1      46.055   4.040   7.633  0.00  0.00    +0.000 A 
ATOM      6  C   UNL     1      45.209   4.393   8.687  0.00  0.00    +0.000 A 
ATOM      7  C   UNL     1      44.802   3.426   9.600  0.00  0.00    +0.000 A 
ATOM      8  N   UNL     1      43.873   3.667  10.615  0.00  0.00    +0.000 N 
ATOM      9  N   UNL     1      45.219   2.145   9.502  0.00  0.00    +0.000 NA
ATOM     10  C   UNL     1      46.043   1.818   8.472  0.00  0.00    +0.000 A 
ATOM     11  H   UNL     1      43.829   2.800  11.150  0.00  0.00    +0.000 HD
BRANCH   4  13
ATOM     12  N   UNL     1      47.434   3.013   5.299  0.00  0.00    +0.000 N 
ATOM     13  C   UNL     1      47.355   2.241   6.427  0.00  0.00    +0.000 C 
ATOM     14  O   UNL     1      48.004   1.207   6.527  0.00  0.00    +0.000 OA
ATOM     15  H   UNL     1      48.101   2.718   4.596  0.00  0.00    +0.000 HD
ATOM     16  H   UNL     1      47.119   3.972   5.270  0.00  0.00    +0.000 HD
ENDBRANCH   4  13
ENDBRANCH   1   8
BRANCH   1  17
ATOM     17  C   UNL     1      45.059   5.187  12.215  0.00  0.00    +0.000 A 
ATOM     18  C   UNL     1      45.518   4.303  13.202  0.00  0.00    +0.000 A 
ATOM     19  C   UNL     1      46.708   4.544  13.888  0.00  0.00    +0.000 A 
ATOM     20  C   UNL     1      47.466   5.674  13.588  0.00  0.00    +0.000 A 
ATOM     21  F   UNL     1      48.607   5.853  14.271  0.00  0.00    +0.000 F 
ATOM     22  C   UNL     1      47.068   6.595  12.607  0.00  0.00    +0.000 A 
ATOM     23  C   UNL     1      45.850   6.324  11.946  0.00  0.00    +0.000 A 
BRANCH  22  24
ATOM     24  C   UNL     1      47.887   7.769  12.232  0.00  0.00    +0.000 A 
ATOM     25  C   UNL     1      49.218   7.653  11.809  0.00  0.00    +0.000 A 
ATOM     26  C   UNL     1      49.945   8.778  11.418  0.00  0.00    +0.000 A 
ATOM     27  C   UNL     1      49.318  10.009  11.450  0.00  0.00    +0.000 A 
ATOM     28  N   UNL     1      48.043  10.184  11.850  0.00  0.00    +0.000 NA
ATOM     29  C   UNL     1      47.372   9.069  12.236  0.00  0.00    +0.000 A 
ENDBRANCH  22  24
ENDBRANCH   1  17
TORSDOF 4
ENDMDL
MODEL 2
REMARK VINA RESULT:    -8.758      1.970      3.408
REMARK INTER + INTRA:         -11.964
REMARK INTER:                 -11.489
REMARK INTRA:                  -0.475
REMARK UNBOUND:                -1.159
REMARK  Name = 
REMARK  4 active torsions:
REMARK  status: ('A' for Active; 'I' for Inactive)
REMARK    1  A    between atoms: C_2  and  C_4
REMARK    2  A    between atoms: N_8  and  C_9
REMARK    3  A    between atoms: C_9  and  C_10
REMARK    4  A    between atoms: C_15  and  C_16
REMARK                            x       y       z     vdW  Elec       q    Type
REMARK                         _______ _______ _______ _____ _____    ______ ____
ROOT
ATOM      1  C   UNL     1      43.915   4.913  11.503  0.00  0.00    +0.000 C 
ATOM      2  C   UNL     1      42.734   5.007  12.462  0.00  0.00    +0.000 C 
ATOM      3  C   UNL     1      42.857   5.989  11.345  0.00  0.00    +0.000 C 
ENDROOT
BRANCH   1   8
ATOM      4  C   UNL     1      46.475   2.742   7.521  0.00  0.00    +0.000 A 
ATOM      5  C   UNL     1      46.079   4.069   7.671  0.00  0.00    +0.000 A 
ATOM      6  C   UNL     1      45.262   4.420   8.749  0.00  0.00    +0.000 A 
ATOM      7  C   UNL     1      44.847   3.444   9.648  0.00  0.00    +0.000 A 
ATOM      8  N   UNL     1      43.944   3.687  10.687  0.00  0.00    +0.000 N 
ATOM      9  N   UNL     1      45.227   2.156   9.513  0.00  0.00    +0.000 NA
ATOM     10  C   UNL     1      46.023   1.830   8.461  0.00  0.00    +0.000 A 
ATOM     11  H   UNL     1      43.888   2.809  11.203  0.00  0.00    +0.000 HD
BRANCH   4  13
ATOM     12  N   UNL     1      47.191   2.921   5.204  0.00  0.00    +0.000 N 
ATOM     13  C   UNL     1      47.306   2.265   6.399  0.00  0.00    +0.000 C 
ATOM     14  O   UNL     1      48.092   1.335   6.532  0.00  0.00    +0.000 OA
ATOM     15  H   UNL     1      47.832   2.642   4.472  0.00  0.00    +0.000 HD
ATOM     16  H   UNL     1      46.750   3.826   5.116  0.00  0.00    +0.000 HD
ENDBRANCH   4  13
ENDBRANCH   1   8
BRANCH   1  17
ATOM     17  C   UNL     1      45.296   5.339  11.998  0.00  0.00    +0.000 A 
ATOM     18  C   UNL     1      46.066   6.297  11.322  0.00  0.00    +0.000 A 
ATOM     19  C   UNL     1      47.297   6.717  11.826  0.00  0.00    +0.000 A 
ATOM     20  C   UNL     1      47.773   6.190  13.024  0.00  0.00    +0.000 A 
ATOM     21  F   UNL     1      48.959   6.637  13.468  0.00  0.00    +0.000 F 
ATOM     22  C   UNL     1      47.050   5.236  13.754  0.00  0.00    +0.000 A 
ATOM     23  C   UNL     1      45.817   4.823  13.204  0.00  0.00    +0.000 A 
BRANCH  22  24
ATOM     24  C   UNL     1      47.511   4.707  15.057  0.00  0.00    +0.000 A 
ATOM     25  C   UNL     1      47.525   3.337  15.350  0.00  0.00    +0.000 A 
ATOM     26  C   UNL     1      48.011   2.871  16.572  0.00  0.00    +0.000 A 
ATOM     27  C   UNL     1      48.486   3.793  17.485  0.00  0.00    +0.000 A 
ATOM     28  N   UNL     1      48.495   5.123  17.263  0.00  0.00    +0.000 NA
ATOM     29  C   UNL     1      48.002   5.539  16.068  0.00  0.00    +0.000 A 
ENDBRANCH  22  24
ENDBRANCH   1  17
TORSDOF 4
ENDMDL
MODEL 3
REMARK VINA RESULT:    -6.953      4.429      8.197
REMARK INTER + INTRA:          -9.738
REMARK INTER:                  -8.623
REMARK INTRA:                  -1.115
REMARK UNBOUND:                -1.159
REMARK  Name = 
REMARK  4 active torsions:
REMARK  status: ('A' for Active; 'I' for Inactive)
REMARK    1  A    between atoms: C_2  and  C_4
REMARK    2  A    between atoms: N_8  and  C_9
REMARK    3  A    between atoms: C_9  and  C_10
REMARK    4  A    between atoms: C_15  and  C_16
REMARK                            x       y       z     vdW  Elec       q    Type
REMARK                         _______ _______ _______ _____ _____    ______ ____
ROOT
ATOM      1  C   UNL     1      49.132   7.931  12.745  0.00  0.00    +0.000 C 
ATOM      2  C   UNL     1      50.113   8.104  11.593  0.00  0.00    +0.000 C 
ATOM      3  C   UNL     1      49.797   9.267  12.472  0.00  0.00    +0.000 C 
ENDROOT
BRANCH   1   8
ATOM      4  C   UNL     1      48.344   6.800  17.768  0.00  0.00    +0.000 A 
ATOM      5  C   UNL     1      48.414   8.056  17.167  0.00  0.00    +0.000 A 
ATOM      6  C   UNL     1      48.789   8.149  15.824  0.00  0.00    +0.000 A 
ATOM      7  C   UNL     1      49.096   6.996  15.110  0.00  0.00    +0.000 A 
ATOM      8  N   UNL     1      49.584   7.007  13.801  0.00  0.00    +0.000 N 
ATOM      9  N   UNL     1      49.029   5.775  15.683  0.00  0.00    +0.000 NA
ATOM     10  C   UNL     1      48.662   5.700  16.989  0.00  0.00    +0.000 A 
ATOM     11  H   UNL     1      49.652   6.026  13.532  0.00  0.00    +0.000 HD
BRANCH   4  13
ATOM     12  N   UNL     1      47.167   5.552  19.492  0.00  0.00    +0.000 N 
ATOM     13  C   UNL     1      47.994   6.599  19.187  0.00  0.00    +0.000 C 
ATOM     14  O   UNL     1      48.446   7.320  20.068  0.00  0.00    +0.000 OA
ATOM     15  H   UNL     1      47.010   5.372  20.476  0.00  0.00    +0.000 HD
ATOM     16  H   UNL     1      46.973   4.802  18.844  0.00  0.00    +0.000 HD
ENDBRANCH   4  13
ENDBRANCH   1   8
BRANCH   1  17
ATOM     17  C   UNL     1      47.644   7.797  12.426  0.00  0.00    +0.000 A 
ATOM     18  C   UNL     1      46.726   8.817  12.717  0.00  0.00    +0.000 A 
ATOM     19  C   UNL     1      45.382   8.699  12.360  0.00  0.00    +0.000 A 
ATOM     20  C   UNL     1      44.938   7.559  11.695  0.00  0.00    +0.000 A 
ATOM     21  F   UNL     1      43.638   7.502  11.366  0.00  0.00    +0.000 F 
ATOM     22  C   UNL     1      45.804   6.506  11.366  0.00  0.00    +0.000 A 
ATOM     23  C   UNL     1      47.152   6.655  11.759  0.00  0.00    +0.000 A 
BRANCH  22  24
ATOM     24  C   UNL     1      45.364   5.314  10.609  0.00  0.00    +0.000 A 
ATOM     25  C   UNL     1      45.657   5.136   9.250  0.00  0.00    +0.000 A 
ATOM     26  C   UNL     1      45.267   3.977   8.579  0.00  0.00    +0.000 A 
ATOM     27  C   UNL     1      44.592   3.002   9.289  0.00  0.00    +0.000 A 
ATOM     28  N   UNL     1      44.279   3.117  10.595  0.00  0.00    +0.000 NA
ATOM     29  C   UNL     1      44.662   4.265  11.211  0.00  0.00    +0.000 A 
ENDBRANCH  22  24
ENDBRANCH   1  17
TORSDOF 4
ENDMDL
MODEL 4
REMARK VINA RESULT:    -6.950      3.792      7.449
REMARK INTER + INTRA:          -9.734
REMARK INTER:                  -9.560
REMARK INTRA:                  -0.174
REMARK UNBOUND:                -1.159
REMARK  Name = 
REMARK  4 active torsions:
REMARK  status: ('A' for Active; 'I' for Inactive)
REMARK    1  A    between atoms: C_2  and  C_4
REMARK    2  A    between atoms: N_8  and  C_9
REMARK    3  A    between atoms: C_9  and  C_10
REMARK    4  A    between atoms: C_15  and  C_16
REMARK                            x       y       z     vdW  Elec       q    Type
REMARK                         _______ _______ _______ _____ _____    ______ ____
ROOT
ATOM      1  C   UNL     1      48.455   7.730  12.771  0.00  0.00    +0.000 C 
ATOM      2  C   UNL     1      49.586   7.153  11.929  0.00  0.00    +0.000 C 
ATOM      3  C   UNL     1      49.318   8.620  11.897  0.00  0.00    +0.000 C 
ENDROOT
BRANCH   1   8
ATOM      4  C   UNL     1      47.977   4.278  16.642  0.00  0.00    +0.000 A 
ATOM      5  C   UNL     1      47.120   4.490  15.564  0.00  0.00    +0.000 A 
ATOM      6  C   UNL     1      47.348   5.575  14.713  0.00  0.00    +0.000 A 
ATOM      7  C   UNL     1      48.414   6.433  14.958  0.00  0.00    +0.000 A 
ATOM      8  N   UNL     1      48.648   7.600  14.226  0.00  0.00    +0.000 N 
ATOM      9  N   UNL     1      49.251   6.236  15.999  0.00  0.00    +0.000 NA
ATOM     10  C   UNL     1      49.018   5.176  16.816  0.00  0.00    +0.000 A 
ATOM     11  H   UNL     1      49.522   7.975  14.593  0.00  0.00    +0.000 HD
BRANCH   4  13
ATOM     12  N   UNL     1      48.857   2.893  18.437  0.00  0.00    +0.000 N 
ATOM     13  C   UNL     1      47.801   3.184  17.616  0.00  0.00    +0.000 C 
ATOM     14  O   UNL     1      46.743   2.575  17.712  0.00  0.00    +0.000 OA
ATOM     15  H   UNL     1      48.690   2.203  19.159  0.00  0.00    +0.000 HD
ATOM     16  H   UNL     1      49.643   3.515  18.560  0.00  0.00    +0.000 HD
ENDBRANCH   4  13
ENDBRANCH   1   8
BRANCH   1  17
ATOM     17  C   UNL     1      47.013   7.481  12.332  0.00  0.00    +0.000 A 
ATOM     18  C   UNL     1      45.987   8.402  12.590  0.00  0.00    +0.000 A 
ATOM     19  C   UNL     1      44.691   8.184  12.124  0.00  0.00    +0.000 A 
ATOM     20  C   UNL     1      44.402   7.041  11.381  0.00  0.00    +0.000 A 
ATOM     21  F   UNL     1      43.141   6.886  10.950  0.00  0.00    +0.000 F 
ATOM     22  C   UNL     1      45.383   6.085  11.080  0.00  0.00    +0.000 A 
ATOM     23  C   UNL     1      46.679   6.333  11.583  0.00  0.00    +0.000 A 
BRANCH  22  24
ATOM     24  C   UNL     1      45.111   4.895  10.244  0.00  0.00    +0.000 A 
ATOM     25  C   UNL     1      45.593   4.771   8.934  0.00  0.00    +0.000 A 
ATOM     26  C   UNL     1      45.357   3.614   8.191  0.00  0.00    +0.000 A 
ATOM     27  C   UNL     1      44.644   2.588   8.782  0.00  0.00    +0.000 A 
ATOM     28  N   UNL     1      44.151   2.650  10.035  0.00  0.00    +0.000 NA
ATOM     29  C   UNL     1      44.389   3.797  10.722  0.00  0.00    +0.000 A 
ENDBRANCH  22  24
ENDBRANCH   1  17
TORSDOF 4
ENDMDL
MODEL 5
REMARK VINA RESULT:    -6.303      3.706      6.593
REMARK INTER + INTRA:          -8.936
REMARK INTER:                  -7.790
REMARK INTRA:                  -1.146
REMARK UNBOUND:                -1.159
REMARK  Name = 
REMARK  4 active torsions:
REMARK  status: ('A' for Active; 'I' for Inactive)
REMARK    1  A    between atoms: C_2  and  C_4
REMARK    2  A    between atoms: N_8  and  C_9
REMARK    3  A    between atoms: C_9  and  C_10
REMARK    4  A    between atoms: C_15  and  C_16
REMARK                            x       y       z     vdW  Elec       q    Type
REMARK                         _______ _______ _______ _____ _____    ______ ____
ROOT
ATOM      1  C   UNL     1      49.263   8.554  12.837  0.00  0.00    +0.000 C 
ATOM      2  C   UNL     1      50.494   9.327  12.379  0.00  0.00    +0.000 C 
ATOM      3  C   UNL     1      50.416   7.856  12.139  0.00  0.00    +0.000 C 
ENDROOT
BRANCH   1   8
ATOM      4  C   UNL     1      44.650   6.588  11.432  0.00  0.00    +0.000 A 
ATOM      5  C   UNL     1      45.899   5.972  11.390  0.00  0.00    +0.000 A 
ATOM      6  C   UNL     1      47.042   6.726  11.667  0.00  0.00    +0.000 A 
ATOM      7  C   UNL     1      46.920   8.078  11.969  0.00  0.00    +0.000 A 
ATOM      8  N   UNL     1      48.015   8.929  12.150  0.00  0.00    +0.000 N 
ATOM      9  N   UNL     1      45.715   8.684  12.013  0.00  0.00    +0.000 NA
ATOM     10  C   UNL     1      44.613   7.937  11.743  0.00  0.00    +0.000 A 
ATOM     11  H   UNL     1      47.614   9.827  12.417  0.00  0.00    +0.000 HD
BRANCH   4  13
ATOM     12  N   UNL     1      42.242   6.365  11.695  0.00  0.00    +0.000 N 
ATOM     13  C   UNL     1      43.389   5.887  11.120  0.00  0.00    +0.000 C 
ATOM     14  O   UNL     1      43.358   4.932  10.355  0.00  0.00    +0.000 OA
ATOM     15  H   UNL     1      41.375   5.931  11.400  0.00  0.00    +0.000 HD
ATOM     16  H   UNL     1      42.184   7.277  12.125  0.00  0.00    +0.000 HD
ENDBRANCH   4  13
ENDBRANCH   1   8
BRANCH   1  17
ATOM     17  C   UNL     1      49.073   8.297  14.331  0.00  0.00    +0.000 A 
ATOM     18  C   UNL     1      48.936   9.344  15.254  0.00  0.00    +0.000 A 
ATOM     19  C   UNL     1      48.701   9.086  16.605  0.00  0.00    +0.000 A 
ATOM     20  C   UNL     1      48.588   7.771  17.052  0.00  0.00    +0.000 A 
ATOM     21  F   UNL     1      48.353   7.580  18.359  0.00  0.00    +0.000 F 
ATOM     22  C   UNL     1      48.707   6.678  16.180  0.00  0.00    +0.000 A 
ATOM     23  C   UNL     1      48.962   6.980  14.824  0.00  0.00    +0.000 A 
BRANCH  22  24
ATOM     24  C   UNL     1      48.533   5.278  16.623  0.00  0.00    +0.000 A 
ATOM     25  C   UNL     1      49.504   4.601  17.375  0.00  0.00    +0.000 A 
ATOM     26  C   UNL     1      49.286   3.296  17.817  0.00  0.00    +0.000 A 
ATOM     27  C   UNL     1      48.085   2.688  17.503  0.00  0.00    +0.000 A 
ATOM     28  N   UNL     1      47.116   3.285  16.781  0.00  0.00    +0.000 NA
ATOM     29  C   UNL     1      47.370   4.549  16.357  0.00  0.00    +0.000 A 
ENDBRANCH  22  24
ENDBRANCH   1  17
TORSDOF 4
ENDMDL
MODEL 6
REMARK VINA RESULT:    -6.258      3.689      5.920
REMARK INTER + INTRA:          -8.880
REMARK INTER:                  -8.396
REMARK INTRA:                  -0.485
REMARK UNBOUND:                -1.159
REMARK  Name = 
REMARK  4 active torsions:
REMARK  status: ('A' for Active; 'I' for Inactive)
REMARK    1  A    between atoms: C_2  and  C_4
REMARK    2  A    between atoms: N_8  and  C_9
REMARK    3  A    between atoms: C_9  and  C_10
REMARK    4  A    between atoms: C_15  and  C_16
REMARK                            x       y       z     vdW  Elec       q    Type
REMARK                         _______ _______ _______ _____ _____    ______ ____
ROOT
ATOM      1  C   UNL     1      47.306   8.406  13.238  0.00  0.00    +0.000 C 
ATOM      2  C   UNL     1      47.511   9.734  12.520  0.00  0.00    +0.000 C 
ATOM      3  C   UNL     1      48.196   8.510  12.014  0.00  0.00    +0.000 C 
ENDROOT
BRANCH   1   8
ATOM      4  C   UNL     1      44.563   4.285  11.620  0.00  0.00    +0.000 A 
ATOM      5  C   UNL     1      45.626   4.919  10.980  0.00  0.00    +0.000 A 
ATOM      6  C   UNL     1      46.129   6.110  11.509  0.00  0.00    +0.000 A 
ATOM      7  C   UNL     1      45.559   6.651  12.656  0.00  0.00    +0.000 A 
ATOM      8  N   UNL     1      45.926   7.890  13.188  0.00  0.00    +0.000 N 
ATOM      9  N   UNL     1      44.530   6.044  13.285  0.00  0.00    +0.000 NA
ATOM     10  C   UNL     1      44.053   4.886  12.759  0.00  0.00    +0.000 A 
ATOM     11  H   UNL     1      45.387   7.982  14.049  0.00  0.00    +0.000 HD
BRANCH   4  13
ATOM     12  N   UNL     1      44.472   2.477   9.996  0.00  0.00    +0.000 N 
ATOM     13  C   UNL     1      43.938   3.045  11.121  0.00  0.00    +0.000 C 
ATOM     14  O   UNL     1      42.996   2.522  11.702  0.00  0.00    +0.000 OA
ATOM     15  H   UNL     1      44.092   1.580   9.719  0.00  0.00    +0.000 HD
ATOM     16  H   UNL     1      45.380   2.730   9.633  0.00  0.00    +0.000 HD
ENDBRANCH   4  13
ENDBRANCH   1   8
BRANCH   1  17
ATOM     17  C   UNL     1      47.979   8.193  14.593  0.00  0.00    +0.000 A 
ATOM     18  C   UNL     1      48.233   9.256  15.472  0.00  0.00    +0.000 A 
ATOM     19  C   UNL     1      48.791   9.031  16.730  0.00  0.00    +0.000 A 
ATOM     20  C   UNL     1      49.095   7.732  17.133  0.00  0.00    +0.000 A 
ATOM     21  F   UNL     1      49.622   7.572  18.357  0.00  0.00    +0.000 F 
ATOM     22  C   UNL     1      48.859   6.624  16.306  0.00  0.00    +0.000 A 
ATOM     23  C   UNL     1      48.309   6.894  15.034  0.00  0.00    +0.000 A 
BRANCH  22  24
ATOM     24  C   UNL     1      49.121   5.233  16.737  0.00  0.00    +0.000 A 
ATOM     25  C   UNL     1      48.116   4.257  16.775  0.00  0.00    +0.000 A 
ATOM     26  C   UNL     1      48.409   2.943  17.142  0.00  0.00    +0.000 A 
ATOM     27  C   UNL     1      49.716   2.624  17.458  0.00  0.00    +0.000 A 
ATOM     28  N   UNL     1      50.724   3.520  17.444  0.00  0.00    +0.000 NA
ATOM     29  C   UNL     1      50.398   4.791  17.096  0.00  0.00    +0.000 A 
ENDBRANCH  22  24
ENDBRANCH   1  17
TORSDOF 4
ENDMDL
MODEL 7
REMARK VINA RESULT:    -6.159      3.495      7.430
REMARK INTER + INTRA:          -8.758
REMARK INTER:                  -8.687
REMARK INTRA:                  -0.071
REMARK UNBOUND:                -1.159
REMARK  Name = 
REMARK  4 active torsions:
REMARK  status: ('A' for Active; 'I' for Inactive)
REMARK    1  A    between atoms: C_2  and  C_4
REMARK    2  A    between atoms: N_8  and  C_9
REMARK    3  A    between atoms: C_9  and  C_10
REMARK    4  A    between atoms: C_15  and  C_16
REMARK                            x       y       z     vdW  Elec       q    Type
REMARK                         _______ _______ _______ _____ _____    ______ ____
ROOT
ATOM      1  C   UNL     1      45.314   6.417  11.528  0.00  0.00    +0.000 C 
ATOM      2  C   UNL     1      44.407   7.584  11.158  0.00  0.00    +0.000 C 
ATOM      3  C   UNL     1      44.373   7.036  12.544  0.00  0.00    +0.000 C 
ENDROOT
BRANCH   1   8
ATOM      4  C   UNL     1      49.196   8.231  14.488  0.00  0.00    +0.000 A 
ATOM      5  C   UNL     1      47.877   8.676  14.426  0.00  0.00    +0.000 A 
ATOM      6  C   UNL     1      47.025   8.155  13.449  0.00  0.00    +0.000 A 
ATOM      7  C   UNL     1      47.504   7.211  12.548  0.00  0.00    +0.000 A 
ATOM      8  N   UNL     1      46.755   6.720  11.475  0.00  0.00    +0.000 N 
ATOM      9  N   UNL     1      48.779   6.771  12.600  0.00  0.00    +0.000 NA
ATOM     10  C   UNL     1      49.595   7.287  13.556  0.00  0.00    +0.000 A 
ATOM     11  H   UNL     1      47.342   6.009  11.041  0.00  0.00    +0.000 HD
BRANCH   4  13
ATOM     12  N   UNL     1      49.827   9.840  16.199  0.00  0.00    +0.000 N 
ATOM     13  C   UNL     1      50.182   8.745  15.457  0.00  0.00    +0.000 C 
ATOM     14  O   UNL     1      51.267   8.201  15.619  0.00  0.00    +0.000 OA
ATOM     15  H   UNL     1      50.477  10.124  16.922  0.00  0.00    +0.000 HD
ATOM     16  H   UNL     1      48.874  10.164  16.274  0.00  0.00    +0.000 HD
ENDBRANCH   4  13
ENDBRANCH   1   8
BRANCH   1  17
ATOM     17  C   UNL     1      44.972   5.026  10.995  0.00  0.00    +0.000 A 
ATOM     18  C   UNL     1      43.948   4.247  11.551  0.00  0.00    +0.000 A 
ATOM     19  C   UNL     1      43.611   3.007  11.009  0.00  0.00    +0.000 A 
ATOM     20  C   UNL     1      44.291   2.530   9.890  0.00  0.00    +0.000 A 
ATOM     21  F   UNL     1      43.920   1.335   9.404  0.00  0.00    +0.000 F 
ATOM     22  C   UNL     1      45.320   3.262   9.280  0.00  0.00    +0.000 A 
ATOM     23  C   UNL     1      45.643   4.505   9.868  0.00  0.00    +0.000 A 
BRANCH  22  24
ATOM     24  C   UNL     1      46.014   2.800   8.058  0.00  0.00    +0.000 A 
ATOM     25  C   UNL     1      46.209   3.630   6.945  0.00  0.00    +0.000 A 
ATOM     26  C   UNL     1      46.910   3.177   5.828  0.00  0.00    +0.000 A 
ATOM     27  C   UNL     1      47.417   1.891   5.847  0.00  0.00    +0.000 A 
ATOM     28  N   UNL     1      47.259   1.045   6.885  0.00  0.00    +0.000 NA
ATOM     29  C   UNL     1      46.559   1.517   7.949  0.00  0.00    +0.000 A 
ENDBRANCH  22  24
ENDBRANCH   1  17
TORSDOF 4
ENDMDL
MODEL 8
REMARK VINA RESULT:    -6.029      5.373      8.474
REMARK INTER + INTRA:          -8.598
REMARK INTER:                  -7.491
REMARK INTRA:                  -1.106
REMARK UNBOUND:                -1.159
REMARK  Name = 
REMARK  4 active torsions:
REMARK  status: ('A' for Active; 'I' for Inactive)
REMARK    1  A    between atoms: C_2  and  C_4
REMARK    2  A    between atoms: N_8  and  C_9
REMARK    3  A    between atoms: C_9  and  C_10
REMARK    4  A    between atoms: C_15  and  C_16
REMARK                            x       y       z     vdW  Elec       q    Type
REMARK                         _______ _______ _______ _____ _____    ______ ____
ROOT
ATOM      1  C   UNL     1      49.447   7.362  17.417  0.00  0.00    +0.000 C 
ATOM      2  C   UNL     1      49.114   8.670  18.123  0.00  0.00    +0.000 C 
ATOM      3  C   UNL     1      48.170   7.519  18.221  0.00  0.00    +0.000 C 
ENDROOT
BRANCH   1   8
ATOM      4  C   UNL     1      51.662   2.653  17.618  0.00  0.00    +0.000 A 
ATOM      5  C   UNL     1      50.316   2.980  17.763  0.00  0.00    +0.000 A 
ATOM      6  C   UNL     1      49.943   4.324  17.830  0.00  0.00    +0.000 A 
ATOM      7  C   UNL     1      50.916   5.315  17.764  0.00  0.00    +0.000 A 
ATOM      8  N   UNL     1      50.644   6.675  17.933  0.00  0.00    +0.000 N 
ATOM      9  N   UNL     1      52.223   5.009  17.622  0.00  0.00    +0.000 NA
ATOM     10  C   UNL     1      52.570   3.697  17.556  0.00  0.00    +0.000 A 
ATOM     11  H   UNL     1      51.532   7.148  17.769  0.00  0.00    +0.000 HD
BRANCH   4  13
ATOM     12  N   UNL     1      51.369   0.291  18.121  0.00  0.00    +0.000 N 
ATOM     13  C   UNL     1      52.160   1.265  17.573  0.00  0.00    +0.000 C 
ATOM     14  O   UNL     1      53.226   0.982  17.040  0.00  0.00    +0.000 OA
ATOM     15  H   UNL     1      51.682  -0.665  18.001  0.00  0.00    +0.000 HD
ATOM     16  H   UNL     1      50.396   0.439  18.345  0.00  0.00    +0.000 HD
ENDBRANCH   4  13
ENDBRANCH   1   8
BRANCH   1  17
ATOM     17  C   UNL     1      49.328   7.299  15.895  0.00  0.00    +0.000 A 
ATOM     18  C   UNL     1      50.248   7.935  15.049  0.00  0.00    +0.000 A 
ATOM     19  C   UNL     1      50.156   7.813  13.663  0.00  0.00    +0.000 A 
ATOM     20  C   UNL     1      49.144   7.039  13.100  0.00  0.00    +0.000 A 
ATOM     21  F   UNL     1      49.108   6.948  11.761  0.00  0.00    +0.000 F 
ATOM     22  C   UNL     1      48.196   6.370  13.888  0.00  0.00    +0.000 A 
ATOM     23  C   UNL     1      48.312   6.532  15.285  0.00  0.00    +0.000 A 
BRANCH  22  24
ATOM     24  C   UNL     1      47.149   5.497  13.312  0.00  0.00    +0.000 A 
ATOM     25  C   UNL     1      46.286   5.929  12.295  0.00  0.00    +0.000 A 
ATOM     26  C   UNL     1      45.342   5.063  11.742  0.00  0.00    +0.000 A 
ATOM     27  C   UNL     1      45.283   3.766  12.216  0.00  0.00    +0.000 A 
ATOM     28  N   UNL     1      46.082   3.294  13.193  0.00  0.00    +0.000 NA
ATOM     29  C   UNL     1      46.979   4.169  13.716  0.00  0.00    +0.000 A 
ENDBRANCH  22  24
ENDBRANCH   1  17
TORSDOF 4
ENDMDL
