MODEL 1
REMARK VINA RESULT:    -9.002      0.000      0.000
REMARK INTER + INTRA:         -11.883
REMARK INTER:                 -11.633
REMARK INTRA:                  -0.250
REMARK UNBOUND:                -0.250
REMARK  Name = 
REMARK  5 active torsions:
REMARK  status: ('A' for Active; 'I' for Inactive)
REMARK    1  A    between atoms: C_2  and  C_4
REMARK    2  A    between atoms: C_8  and  C_9
REMARK    3  A    between atoms: C_9  and  O_10
REMARK    4  A    between atoms: O_10  and  C_11
REMARK    5  A    between atoms: C_16  and  C_17
REMARK                            x       y       z     vdW  Elec       q    Type
REMARK                         _______ _______ _______ _____ _____    ______ ____
ROOT
ATOM      1  C   UNL     1      44.104   5.079  11.645  0.00  0.00    +0.000 A 
ATOM      2  C   UNL     1      43.927   6.407  11.274  0.00  0.00    +0.000 A 
ATOM      3  C   UNL     1      44.723   7.382  11.857  0.00  0.00    +0.000 A 
ATOM      4  F   UNL     1      44.569   8.661  11.492  0.00  0.00    +0.000 F 
ATOM      5  C   UNL     1      45.693   7.058  12.807  0.00  0.00    +0.000 A 
ATOM      6  C   UNL     1      45.868   5.730  13.225  0.00  0.00    +0.000 A 
ATOM      7  C   UNL     1      45.036   4.757  12.638  0.00  0.00    +0.000 A 
ENDROOT
BRANCH   6   8
ATOM      8  C   UNL     1      46.872   5.342  14.238  0.00  0.00    +0.000 A 
ATOM      9  C   UNL     1      47.981   6.129  14.534  0.00  0.00    +0.000 A 
ATOM     10  N   UNL     1      48.897   5.815  15.480  0.00  0.00    +0.000 NA
ATOM     11  N   UNL     1      48.745   4.673  16.204  0.00  0.00    +0.000 NA
ATOM     12  C   UNL     1      47.693   3.875  15.953  0.00  0.00    +0.000 A 
ATOM     13  F   UNL     1      47.547   2.761  16.685  0.00  0.00    +0.000 F 
ATOM     14  C   UNL     1      46.752   4.163  14.986  0.00  0.00    +0.000 A 
ENDBRANCH   6   8
BRANCH   1  15
ATOM     15  O   UNL     1      43.323   4.162  10.996  0.00  0.00    +0.000 OA
BRANCH  15  16
ATOM     16  C   UNL     1      43.953   2.903  10.749  0.00  0.00    +0.000 C 
BRANCH  16  21
ATOM     17  C   UNL     1      46.291   2.069   7.869  0.00  0.00    +0.000 A 
ATOM     18  C   UNL     1      46.343   3.323   7.275  0.00  0.00    +0.000 A 
ATOM     19  N   UNL     1      45.646   4.397   7.720  0.00  0.00    +0.000 NA
ATOM     20  C   UNL     1      44.877   4.209   8.816  0.00  0.00    +0.000 A 
ATOM     21  C   UNL     1      44.771   2.998   9.496  0.00  0.00    +0.000 A 
ATOM     22  C   UNL     1      45.501   1.909   9.008  0.00  0.00    +0.000 A 
BRANCH  17  24
ATOM     23  N   UNL     1      46.770  -0.303   7.651  0.00  0.00    +0.000 N 
ATOM     24  C   UNL     1      47.097   0.976   7.292  0.00  0.00    +0.000 C 
ATOM     25  O   UNL     1      48.007   1.199   6.506  0.00  0.00    +0.000 OA
ATOM     26  H   UNL     1      47.259  -1.038   7.156  0.00  0.00    +0.000 HD
ATOM     27  H   UNL     1      45.879  -0.537   8.065  0.00  0.00    +0.000 HD
ENDBRANCH  17  24
ENDBRANCH  16  21
ENDBRANCH  15  16
ENDBRANCH   1  15
TORSDOF 5
ENDMDL
MODEL 2
REMARK VINA RESULT:    -8.992      2.816      7.236
REMARK INTER + INTRA:         -11.871
REMARK INTER:                 -11.231
REMARK INTRA:                  -0.640
REMARK UNBOUND:                -0.250
REMARK  Name = 
REMARK  5 active torsions:
REMARK  status: ('A' for Active; 'I' for Inactive)
REMARK    1  A    between atoms: C_2  and  C_4
REMARK    2  A    between atoms: C_8  and  C_9
REMARK    3  A    between atoms: C_9  and  O_10
REMARK    4  A    between atoms: O_10  and  C_11
REMARK    5  A    between atoms: C_16  and  C_17
REMARK                            x       y       z     vdW  Elec       q    Type
REMARK                         _______ _______ _______ _____ _____    ______ ____
ROOT
ATOM      1  C   UNL     1      44.603   5.152  10.342  0.00  0.00    +0.000 A 
ATOM      2  C   UNL     1      43.744   4.407  11.141  0.00  0.00    +0.000 A 
ATOM      3  C   UNL     1      43.641   3.040  10.929  0.00  0.00    +0.000 A 
ATOM      4  F   UNL     1      42.827   2.314  11.707  0.00  0.00    +0.000 F 
ATOM      5  C   UNL     1      44.378   2.401   9.931  0.00  0.00    +0.000 A 
ATOM      6  C   UNL     1      45.226   3.134   9.088  0.00  0.00    +0.000 A 
ATOM      7  C   UNL     1      45.300   4.523   9.304  0.00  0.00    +0.000 A 
ENDROOT
BRANCH   6   8
ATOM      8  C   UNL     1      46.014   2.502   8.009  0.00  0.00    +0.000 A 
ATOM      9  C   UNL     1      46.422   1.173   8.060  0.00  0.00    +0.000 A 
ATOM     10  N   UNL     1      47.115   0.559   7.071  0.00  0.00    +0.000 NA
ATOM     11  N   UNL     1      47.437   1.257   5.948  0.00  0.00    +0.000 NA
ATOM     12  C   UNL     1      47.070   2.547   5.852  0.00  0.00    +0.000 A 
ATOM     13  F   UNL     1      47.380   3.218   4.734  0.00  0.00    +0.000 F 
ATOM     14  C   UNL     1      46.375   3.201   6.849  0.00  0.00    +0.000 A 
ENDBRANCH   6   8
BRANCH   1  15
ATOM     15  O   UNL     1      44.696   6.485  10.636  0.00  0.00    +0.000 OA
BRANCH  15  16
ATOM     16  C   UNL     1      44.511   6.812  12.015  0.00  0.00    +0.000 C 
BRANCH  16  21
ATOM     17  C   UNL     1      47.112   5.294  14.335  0.00  0.00    +0.000 A 
ATOM     18  C   UNL     1      48.110   6.246  14.178  0.00  0.00    +0.000 A 
ATOM     19  N   UNL     1      48.009   7.313  13.348  0.00  0.00    +0.000 NA
ATOM     20  C   UNL     1      46.853   7.439  12.660  0.00  0.00    +0.000 A 
ATOM     21  C   UNL     1      45.785   6.551  12.760  0.00  0.00    +0.000 A 
ATOM     22  C   UNL     1      45.923   5.458  13.623  0.00  0.00    +0.000 A 
BRANCH  17  24
ATOM     23  N   UNL     1      47.173   4.428  16.604  0.00  0.00    +0.000 N 
ATOM     24  C   UNL     1      47.339   4.175  15.270  0.00  0.00    +0.000 C 
ATOM     25  O   UNL     1      47.640   3.059  14.870  0.00  0.00    +0.000 OA
ATOM     26  H   UNL     1      47.221   3.622  17.215  0.00  0.00    +0.000 HD
ATOM     27  H   UNL     1      46.672   5.236  16.943  0.00  0.00    +0.000 HD
ENDBRANCH  17  24
ENDBRANCH  16  21
ENDBRANCH  15  16
ENDBRANCH   1  15
TORSDOF 5
ENDMDL
MODEL 3
REMARK VINA RESULT:    -8.917      2.460      3.736
REMARK INTER + INTRA:         -11.773
REMARK INTER:                 -11.253
REMARK INTRA:                  -0.520
REMARK UNBOUND:                -0.250
REMARK  Name = 
REMARK  5 active torsions:
REMARK  status: ('A' for Active; 'I' for Inactive)
REMARK    1  A    between atoms: C_2  and  C_4
REMARK    2  A    between atoms: C_8  and  C_9
REMARK    3  A    between atoms: C_9  and  O_10
REMARK    4  A    between atoms: O_10  and  C_11
REMARK    5  A    between atoms: C_16  and  C_17
REMARK                            x       y       z     vdW  Elec       q    Type
REMARK                         _______ _______ _______ _____ _____    ______ ____
ROOT
ATOM      1  C   UNL     1      44.946   4.763  11.902  0.00  0.00    +0.000 A 
ATOM      2  C   UNL     1      45.485   3.903  12.851  0.00  0.00    +0.000 A 
ATOM      3  C   UNL     1      46.585   4.316  13.588  0.00  0.00    +0.000 A 
ATOM      4  F   UNL     1      47.099   3.498  14.516  0.00  0.00    +0.000 F 
ATOM      5  C   UNL     1      47.161   5.572  13.394  0.00  0.00    +0.000 A 
ATOM      6  C   UNL     1      46.658   6.446  12.419  0.00  0.00    +0.000 A 
ATOM      7  C   UNL     1      45.555   6.001  11.665  0.00  0.00    +0.000 A 
ENDROOT
BRANCH   6   8
ATOM      8  C   UNL     1      47.244   7.780  12.169  0.00  0.00    +0.000 A 
ATOM      9  C   UNL     1      46.532   8.959  12.358  0.00  0.00    +0.000 A 
ATOM     10  N   UNL     1      47.054  10.195  12.170  0.00  0.00    +0.000 NA
ATOM     11  N   UNL     1      48.352  10.319  11.783  0.00  0.00    +0.000 NA
ATOM     12  C   UNL     1      49.084   9.208  11.581  0.00  0.00    +0.000 A 
ATOM     13  F   UNL     1      50.366   9.346  11.213  0.00  0.00    +0.000 F 
ATOM     14  C   UNL     1      48.573   7.938  11.752  0.00  0.00    +0.000 A 
ENDBRANCH   6   8
BRANCH   1  15
ATOM     15  O   UNL     1      43.832   4.316  11.245  0.00  0.00    +0.000 OA
BRANCH  15  16
ATOM     16  C   UNL     1      43.943   2.998  10.700  0.00  0.00    +0.000 C 
BRANCH  16  21
ATOM     17  C   UNL     1      46.287   2.069   7.856  0.00  0.00    +0.000 A 
ATOM     18  C   UNL     1      46.332   3.300   7.214  0.00  0.00    +0.000 A 
ATOM     19  N   UNL     1      45.629   4.386   7.618  0.00  0.00    +0.000 NA
ATOM     20  C   UNL     1      44.861   4.236   8.720  0.00  0.00    +0.000 A 
ATOM     21  C   UNL     1      44.761   3.051   9.445  0.00  0.00    +0.000 A 
ATOM     22  C   UNL     1      45.498   1.948   9.000  0.00  0.00    +0.000 A 
BRANCH  17  24
ATOM     23  N   UNL     1      46.753  -0.310   7.695  0.00  0.00    +0.000 N 
ATOM     24  C   UNL     1      47.100   0.960   7.321  0.00  0.00    +0.000 C 
ATOM     25  O   UNL     1      48.032   1.161   6.555  0.00  0.00    +0.000 OA
ATOM     26  H   UNL     1      47.249  -1.058   7.227  0.00  0.00    +0.000 HD
ATOM     27  H   UNL     1      45.850  -0.530   8.090  0.00  0.00    +0.000 HD
ENDBRANCH  17  24
ENDBRANCH  16  21
ENDBRANCH  15  16
ENDBRANCH   1  15
TORSDOF 5
ENDMDL
MODEL 4
REMARK VINA RESULT:    -8.821      3.296      7.279
REMARK INTER + INTRA:         -11.649
REMARK INTER:                 -10.758
REMARK INTRA:                  -0.892
REMARK UNBOUND:                -0.250
REMARK  Name = 
REMARK  5 active torsions:
REMARK  status: ('A' for Active; 'I' for Inactive)
REMARK    1  A    between atoms: C_2  and  C_4
REMARK    2  A    between atoms: C_8  and  C_9
REMARK    3  A    between atoms: C_9  and  O_10
REMARK    4  A    between atoms: O_10  and  C_11
REMARK    5  A    between atoms: C_16  and  C_17
REMARK                            x       y       z     vdW  Elec       q    Type
REMARK                         _______ _______ _______ _____ _____    ______ ____
ROOT
ATOM      1  C   UNL     1      44.651   5.154  10.482  0.00  0.00    +0.000 A 
ATOM      2  C   UNL     1      43.799   4.396  11.276  0.00  0.00    +0.000 A 
ATOM      3  C   UNL     1      43.675   3.037  11.026  0.00  0.00    +0.000 A 
ATOM      4  F   UNL     1      42.868   2.297  11.798  0.00  0.00    +0.000 F 
ATOM      5  C   UNL     1      44.385   2.419   9.996  0.00  0.00    +0.000 A 
ATOM      6  C   UNL     1      45.225   3.167   9.158  0.00  0.00    +0.000 A 
ATOM      7  C   UNL     1      45.321   4.548   9.413  0.00  0.00    +0.000 A 
ENDROOT
BRANCH   6   8
ATOM      8  C   UNL     1      45.985   2.557   8.046  0.00  0.00    +0.000 A 
ATOM      9  C   UNL     1      46.442   1.244   8.082  0.00  0.00    +0.000 A 
ATOM     10  N   UNL     1      47.110   0.650   7.064  0.00  0.00    +0.000 NA
ATOM     11  N   UNL     1      47.355   1.353   5.926  0.00  0.00    +0.000 NA
ATOM     12  C   UNL     1      46.939   2.629   5.843  0.00  0.00    +0.000 A 
ATOM     13  F   UNL     1      47.173   3.306   4.709  0.00  0.00    +0.000 F 
ATOM     14  C   UNL     1      46.268   3.263   6.869  0.00  0.00    +0.000 A 
ENDBRANCH   6   8
BRANCH   1  15
ATOM     15  O   UNL     1      44.767   6.476  10.813  0.00  0.00    +0.000 OA
BRANCH  15  16
ATOM     16  C   UNL     1      44.876   6.739  12.214  0.00  0.00    +0.000 C 
BRANCH  16  21
ATOM     17  C   UNL     1      48.612   7.435  12.285  0.00  0.00    +0.000 A 
ATOM     18  C   UNL     1      48.965   6.569  13.312  0.00  0.00    +0.000 A 
ATOM     19  N   UNL     1      48.074   5.814  13.999  0.00  0.00    +0.000 NA
ATOM     20  C   UNL     1      46.778   5.919  13.631  0.00  0.00    +0.000 A 
ATOM     21  C   UNL     1      46.323   6.744  12.604  0.00  0.00    +0.000 A 
ATOM     22  C   UNL     1      47.269   7.512  11.917  0.00  0.00    +0.000 A 
BRANCH  17  24
ATOM     23  N   UNL     1      50.845   7.553  11.334  0.00  0.00    +0.000 N 
ATOM     24  C   UNL     1      49.675   8.206  11.610  0.00  0.00    +0.000 C 
ATOM     25  O   UNL     1      49.511   9.374  11.288  0.00  0.00    +0.000 OA
ATOM     26  H   UNL     1      51.513   8.065  10.771  0.00  0.00    +0.000 HD
ATOM     27  H   UNL     1      50.916   6.545  11.334  0.00  0.00    +0.000 HD
ENDBRANCH  17  24
ENDBRANCH  16  21
ENDBRANCH  15  16
ENDBRANCH   1  15
TORSDOF 5
ENDMDL
MODEL 5
REMARK VINA RESULT:    -8.480      2.969      7.058
REMARK INTER + INTRA:         -11.209
REMARK INTER:                 -10.366
REMARK INTRA:                  -0.843
REMARK UNBOUND:                -0.250
REMARK  Name = 
REMARK  5 active torsions:
REMARK  status: ('A' for Active; 'I' for Inactive)
REMARK    1  A    between atoms: C_2  and  C_4
REMARK    2  A    between atoms: C_8  and  C_9
REMARK    3  A    between atoms: C_9  and  O_10
REMARK    4  A    between atoms: O_10  and  C_11
REMARK    5  A    between atoms: C_16  and  C_17
REMARK                            x       y       z     vdW  Elec       q    Type
REMARK                         _______ _______ _______ _____ _____    ______ ____
ROOT
ATOM      1  C   UNL     1      45.238   6.534  11.213  0.00  0.00    +0.000 A 
ATOM      2  C   UNL     1      43.927   6.440  11.663  0.00  0.00    +0.000 A 
ATOM      3  C   UNL     1      43.136   5.388  11.224  0.00  0.00    +0.000 A 
ATOM      4  F   UNL     1      41.876   5.283  11.668  0.00  0.00    +0.000 F 
ATOM      5  C   UNL     1      43.629   4.427  10.341  0.00  0.00    +0.000 A 
ATOM      6  C   UNL     1      44.938   4.517   9.844  0.00  0.00    +0.000 A 
ATOM      7  C   UNL     1      45.718   5.604  10.283  0.00  0.00    +0.000 A 
ENDROOT
BRANCH   6   8
ATOM      8  C   UNL     1      45.497   3.530   8.896  0.00  0.00    +0.000 A 
ATOM      9  C   UNL     1      45.513   2.164   9.159  0.00  0.00    +0.000 A 
ATOM     10  N   UNL     1      45.988   1.236   8.295  0.00  0.00    +0.000 NA
ATOM     11  N   UNL     1      46.475   1.633   7.088  0.00  0.00    +0.000 NA
ATOM     12  C   UNL     1      46.486   2.944   6.787  0.00  0.00    +0.000 A 
ATOM     13  F   UNL     1      46.955   3.321   5.589  0.00  0.00    +0.000 F 
ATOM     14  C   UNL     1      46.022   3.912   7.654  0.00  0.00    +0.000 A 
ENDBRANCH   6   8
BRANCH   1  15
ATOM     15  O   UNL     1      45.979   7.564  11.723  0.00  0.00    +0.000 OA
BRANCH  15  16
ATOM     16  C   UNL     1      47.387   7.320  11.786  0.00  0.00    +0.000 C 
BRANCH  16  21
ATOM     17  C   UNL     1      47.740   5.224  14.938  0.00  0.00    +0.000 A 
ATOM     18  C   UNL     1      48.325   6.180  15.757  0.00  0.00    +0.000 A 
ATOM     19  N   UNL     1      48.644   7.432  15.347  0.00  0.00    +0.000 NA
ATOM     20  C   UNL     1      48.349   7.742  14.065  0.00  0.00    +0.000 A 
ATOM     21  C   UNL     1      47.746   6.863  13.168  0.00  0.00    +0.000 A 
ATOM     22  C   UNL     1      47.433   5.578  13.624  0.00  0.00    +0.000 A 
BRANCH  17  24
ATOM     23  N   UNL     1      46.949   3.849  16.778  0.00  0.00    +0.000 N 
ATOM     24  C   UNL     1      47.439   3.894  15.502  0.00  0.00    +0.000 C 
ATOM     25  O   UNL     1      47.597   2.872  14.848  0.00  0.00    +0.000 OA
ATOM     26  H   UNL     1      46.643   2.939  17.101  0.00  0.00    +0.000 HD
ATOM     27  H   UNL     1      46.556   4.659  17.236  0.00  0.00    +0.000 HD
ENDBRANCH  17  24
ENDBRANCH  16  21
ENDBRANCH  15  16
ENDBRANCH   1  15
TORSDOF 5
ENDMDL
MODEL 6
REMARK VINA RESULT:    -8.410      1.656      2.135
REMARK INTER + INTRA:         -11.118
REMARK INTER:                 -10.386
REMARK INTRA:                  -0.732
REMARK UNBOUND:                -0.250
REMARK  Name = 
REMARK  5 active torsions:
REMARK  status: ('A' for Active; 'I' for Inactive)
REMARK    1  A    between atoms: C_2  and  C_4
REMARK    2  A    between atoms: C_8  and  C_9
REMARK    3  A    between atoms: C_9  and  O_10
REMARK    4  A    between atoms: O_10  and  C_11
REMARK    5  A    between atoms: C_16  and  C_17
REMARK                            x       y       z     vdW  Elec       q    Type
REMARK                         _______ _______ _______ _____ _____    ______ ____
ROOT
ATOM      1  C   UNL     1      45.664   5.344  12.080  0.00  0.00    +0.000 A 
ATOM      2  C   UNL     1      46.433   6.274  11.393  0.00  0.00    +0.000 A 
ATOM      3  C   UNL     1      47.579   6.776  11.992  0.00  0.00    +0.000 A 
ATOM      4  F   UNL     1      48.334   7.661  11.327  0.00  0.00    +0.000 F 
ATOM      5  C   UNL     1      47.972   6.369  13.267  0.00  0.00    +0.000 A 
ATOM      6  C   UNL     1      47.195   5.457  13.997  0.00  0.00    +0.000 A 
ATOM      7  C   UNL     1      46.023   4.975  13.382  0.00  0.00    +0.000 A 
ENDROOT
BRANCH   6   8
ATOM      8  C   UNL     1      47.564   5.008  15.356  0.00  0.00    +0.000 A 
ATOM      9  C   UNL     1      48.418   5.735  16.179  0.00  0.00    +0.000 A 
ATOM     10  N   UNL     1      48.746   5.365  17.440  0.00  0.00    +0.000 NA
ATOM     11  N   UNL     1      48.217   4.224  17.960  0.00  0.00    +0.000 NA
ATOM     12  C   UNL     1      47.390   3.482  17.203  0.00  0.00    +0.000 A 
ATOM     13  F   UNL     1      46.865   2.368  17.733  0.00  0.00    +0.000 F 
ATOM     14  C   UNL     1      47.050   3.828  15.911  0.00  0.00    +0.000 A 
ENDBRANCH   6   8
BRANCH   1  15
ATOM     15  O   UNL     1      44.575   4.850  11.414  0.00  0.00    +0.000 OA
BRANCH  15  16
ATOM     16  C   UNL     1      44.605   5.030   9.996  0.00  0.00    +0.000 C 
BRANCH  16  21
ATOM     17  C   UNL     1      46.405   2.565   7.729  0.00  0.00    +0.000 A 
ATOM     18  C   UNL     1      45.764   1.403   8.136  0.00  0.00    +0.000 A 
ATOM     19  N   UNL     1      44.826   1.363   9.114  0.00  0.00    +0.000 NA
ATOM     20  C   UNL     1      44.507   2.540   9.696  0.00  0.00    +0.000 A 
ATOM     21  C   UNL     1      45.077   3.763   9.348  0.00  0.00    +0.000 A 
ATOM     22  C   UNL     1      46.044   3.768   8.337  0.00  0.00    +0.000 A 
BRANCH  17  24
ATOM     23  N   UNL     1      47.291   3.362   5.611  0.00  0.00    +0.000 N 
ATOM     24  C   UNL     1      47.411   2.482   6.652  0.00  0.00    +0.000 C 
ATOM     25  O   UNL     1      48.330   1.676   6.696  0.00  0.00    +0.000 OA
ATOM     26  H   UNL     1      48.053   3.363   4.945  0.00  0.00    +0.000 HD
ATOM     27  H   UNL     1      46.727   4.198   5.671  0.00  0.00    +0.000 HD
ENDBRANCH  17  24
ENDBRANCH  16  21
ENDBRANCH  15  16
ENDBRANCH   1  15
TORSDOF 5
ENDMDL
MODEL 7
REMARK VINA RESULT:    -7.790      3.221      7.458
REMARK INTER + INTRA:         -10.318
REMARK INTER:                  -9.791
REMARK INTRA:                  -0.527
REMARK UNBOUND:                -0.250
REMARK  Name = 
REMARK  5 active torsions:
REMARK  status: ('A' for Active; 'I' for Inactive)
REMARK    1  A    between atoms: C_2  and  C_4
REMARK    2  A    between atoms: C_8  and  C_9
REMARK    3  A    between atoms: C_9  and  O_10
REMARK    4  A    between atoms: O_10  and  C_11
REMARK    5  A    between atoms: C_16  and  C_17
REMARK                            x       y       z     vdW  Elec       q    Type
REMARK                         _______ _______ _______ _____ _____    ______ ____
ROOT
ATOM      1  C   UNL     1      45.389   6.301  11.633  0.00  0.00    +0.000 A 
ATOM      2  C   UNL     1      44.041   6.282  11.967  0.00  0.00    +0.000 A 
ATOM      3  C   UNL     1      43.192   5.411  11.299  0.00  0.00    +0.000 A 
ATOM      4  F   UNL     1      41.894   5.377  11.628  0.00  0.00    +0.000 F 
ATOM      5  C   UNL     1      43.664   4.559  10.300  0.00  0.00    +0.000 A 
ATOM      6  C   UNL     1      45.014   4.582   9.919  0.00  0.00    +0.000 A 
ATOM      7  C   UNL     1      45.855   5.488  10.593  0.00  0.00    +0.000 A 
ENDROOT
BRANCH   6   8
ATOM      8  C   UNL     1      45.554   3.708   8.857  0.00  0.00    +0.000 A 
ATOM      9  C   UNL     1      46.134   4.209   7.696  0.00  0.00    +0.000 A 
ATOM     10  N   UNL     1      46.667   3.432   6.723  0.00  0.00    +0.000 NA
ATOM     11  N   UNL     1      46.657   2.079   6.868  0.00  0.00    +0.000 NA
ATOM     12  C   UNL     1      46.103   1.544   7.971  0.00  0.00    +0.000 A 
ATOM     13  F   UNL     1      46.113   0.210   8.108  0.00  0.00    +0.000 F 
ATOM     14  C   UNL     1      45.541   2.311   8.970  0.00  0.00    +0.000 A 
ENDBRANCH   6   8
BRANCH   1  15
ATOM     15  O   UNL     1      46.181   7.144  12.363  0.00  0.00    +0.000 OA
BRANCH  15  16
ATOM     16  C   UNL     1      47.512   6.675  12.590  0.00  0.00    +0.000 C 
BRANCH  16  21
ATOM     17  C   UNL     1      48.442   5.746  16.157  0.00  0.00    +0.000 A 
ATOM     18  C   UNL     1      47.712   4.569  16.262  0.00  0.00    +0.000 A 
ATOM     19  N   UNL     1      46.917   4.086  15.276  0.00  0.00    +0.000 NA
ATOM     20  C   UNL     1      46.865   4.804  14.132  0.00  0.00    +0.000 A 
ATOM     21  C   UNL     1      47.572   5.986  13.920  0.00  0.00    +0.000 A 
ATOM     22  C   UNL     1      48.381   6.458  14.959  0.00  0.00    +0.000 A 
BRANCH  17  24
ATOM     23  N   UNL     1      50.629   6.027  17.178  0.00  0.00    +0.000 N 
ATOM     24  C   UNL     1      49.274   6.169  17.301  0.00  0.00    +0.000 C 
ATOM     25  O   UNL     1      48.777   6.650  18.309  0.00  0.00    +0.000 OA
ATOM     26  H   UNL     1      51.183   6.429  17.924  0.00  0.00    +0.000 HD
ATOM     27  H   UNL     1      51.081   5.897  16.284  0.00  0.00    +0.000 HD
ENDBRANCH  17  24
ENDBRANCH  16  21
ENDBRANCH  15  16
ENDBRANCH   1  15
TORSDOF 5
ENDMDL
MODEL 8
REMARK VINA RESULT:    -7.657      3.784      7.475
REMARK INTER + INTRA:         -10.146
REMARK INTER:                  -9.285
REMARK INTRA:                  -0.860
REMARK UNBOUND:                -0.250
REMARK  Name = 
REMARK  5 active torsions:
REMARK  status: ('A' for Active; 'I' for Inactive)
REMARK    1  A    between atoms: C_2  and  C_4
REMARK    2  A    between atoms: C_8  and  C_9
REMARK    3  A    between atoms: C_9  and  O_10
REMARK    4  A    between atoms: O_10  and  C_11
REMARK    5  A    between atoms: C_16  and  C_17
REMARK                            x       y       z     vdW  Elec       q    Type
REMARK                         _______ _______ _______ _____ _____    ______ ____
ROOT
ATOM      1  C   UNL     1      47.478   7.356  13.243  0.00  0.00    +0.000 A 
ATOM      2  C   UNL     1      46.849   8.582  13.073  0.00  0.00    +0.000 A 
ATOM      3  C   UNL     1      45.568   8.616  12.540  0.00  0.00    +0.000 A 
ATOM      4  F   UNL     1      44.950   9.795  12.389  0.00  0.00    +0.000 F 
ATOM      5  C   UNL     1      44.903   7.447  12.170  0.00  0.00    +0.000 A 
ATOM      6  C   UNL     1      45.529   6.197  12.298  0.00  0.00    +0.000 A 
ATOM      7  C   UNL     1      46.836   6.185  12.821  0.00  0.00    +0.000 A 
ENDROOT
BRANCH   6   8
ATOM      8  C   UNL     1      44.868   4.935  11.906  0.00  0.00    +0.000 A 
ATOM      9  C   UNL     1      44.206   4.120  12.819  0.00  0.00    +0.000 A 
ATOM     10  N   UNL     1      43.564   2.976  12.481  0.00  0.00    +0.000 NA
ATOM     11  N   UNL     1      43.542   2.582  11.180  0.00  0.00    +0.000 NA
ATOM     12  C   UNL     1      44.172   3.332  10.258  0.00  0.00    +0.000 A 
ATOM     13  F   UNL     1      44.130   2.939   8.977  0.00  0.00    +0.000 F 
ATOM     14  C   UNL     1      44.845   4.494  10.576  0.00  0.00    +0.000 A 
ENDBRANCH   6   8
BRANCH   1  15
ATOM     15  O   UNL     1      48.718   7.388  13.821  0.00  0.00    +0.000 OA
BRANCH  15  16
ATOM     16  C   UNL     1      48.725   7.711  15.214  0.00  0.00    +0.000 C 
BRANCH  16  21
ATOM     17  C   UNL     1      48.697   4.516  17.274  0.00  0.00    +0.000 A 
ATOM     18  C   UNL     1      50.058   4.425  17.532  0.00  0.00    +0.000 A 
ATOM     19  N   UNL     1      50.977   5.300  17.054  0.00  0.00    +0.000 NA
ATOM     20  C   UNL     1      50.508   6.318  16.299  0.00  0.00    +0.000 A 
ATOM     21  C   UNL     1      49.161   6.509  15.996  0.00  0.00    +0.000 A 
ATOM     22  C   UNL     1      48.241   5.586  16.504  0.00  0.00    +0.000 A 
BRANCH  17  24
ATOM     23  N   UNL     1      48.188   2.904  19.019  0.00  0.00    +0.000 N 
ATOM     24  C   UNL     1      47.795   3.501  17.852  0.00  0.00    +0.000 C 
ATOM     25  O   UNL     1      46.728   3.221  17.326  0.00  0.00    +0.000 OA
ATOM     26  H   UNL     1      47.504   2.299  19.456  0.00  0.00    +0.000 HD
ATOM     27  H   UNL     1      48.906   3.295  19.612  0.00  0.00    +0.000 HD
ENDBRANCH  17  24
ENDBRANCH  16  21
ENDBRANCH  15  16
ENDBRANCH   1  15
TORSDOF 5
ENDMDL
MODEL 9
REMARK VINA RESULT:    -7.442      3.283      7.190
REMARK INTER + INTRA:          -9.868
REMARK INTER:                  -9.094
REMARK INTRA:                  -0.774
REMARK UNBOUND:                -0.250
REMARK  Name = 
REMARK  5 active torsions:
REMARK  status: ('A' for Active; 'I' for Inactive)
REMARK    1  A    between atoms: C_2  and  C_4
REMARK    2  A    between atoms: C_8  and  C_9
REMARK    3  A    between atoms: C_9  and  O_10
REMARK    4  A    between atoms: O_10  and  C_11
REMARK    5  A    between atoms: C_16  and  C_17
REMARK                            x       y       z     vdW  Elec       q    Type
REMARK                         _______ _______ _______ _____ _____    ______ ____
ROOT
ATOM      1  C   UNL     1      44.172   5.202  11.467  0.00  0.00    +0.000 A 
ATOM      2  C   UNL     1      43.563   4.233  12.255  0.00  0.00    +0.000 A 
ATOM      3  C   UNL     1      43.636   2.904  11.866  0.00  0.00    +0.000 A 
ATOM      4  F   UNL     1      43.064   1.963  12.630  0.00  0.00    +0.000 F 
ATOM      5  C   UNL     1      44.304   2.522  10.702  0.00  0.00    +0.000 A 
ATOM      6  C   UNL     1      44.898   3.483   9.870  0.00  0.00    +0.000 A 
ATOM      7  C   UNL     1      44.795   4.829  10.270  0.00  0.00    +0.000 A 
ENDROOT
BRANCH   6   8
ATOM      8  C   UNL     1      45.603   3.126   8.622  0.00  0.00    +0.000 A 
ATOM      9  C   UNL     1      45.916   4.063   7.643  0.00  0.00    +0.000 A 
ATOM     10  N   UNL     1      46.591   3.770   6.506  0.00  0.00    +0.000 NA
ATOM     11  N   UNL     1      47.007   2.493   6.287  0.00  0.00    +0.000 NA
ATOM     12  C   UNL     1      46.724   1.547   7.200  0.00  0.00    +0.000 A 
ATOM     13  F   UNL     1      47.153   0.296   6.979  0.00  0.00    +0.000 F 
ATOM     14  C   UNL     1      46.027   1.816   8.360  0.00  0.00    +0.000 A 
ENDBRANCH   6   8
BRANCH   1  15
ATOM     15  O   UNL     1      44.108   6.487  11.933  0.00  0.00    +0.000 OA
BRANCH  15  16
ATOM     16  C   UNL     1      44.881   7.435  11.192  0.00  0.00    +0.000 C 
BRANCH  16  21
ATOM     17  C   UNL     1      47.708   7.669  13.723  0.00  0.00    +0.000 A 
ATOM     18  C   UNL     1      47.877   9.047  13.718  0.00  0.00    +0.000 A 
ATOM     19  N   UNL     1      47.169   9.890  12.927  0.00  0.00    +0.000 NA
ATOM     20  C   UNL     1      46.242   9.329  12.120  0.00  0.00    +0.000 A 
ATOM     21  C   UNL     1      45.982   7.961  12.063  0.00  0.00    +0.000 A 
ATOM     22  C   UNL     1      46.733   7.119  12.890  0.00  0.00    +0.000 A 
BRANCH  17  24
ATOM     23  N   UNL     1      47.909   6.236  15.675  0.00  0.00    +0.000 N 
ATOM     24  C   UNL     1      48.540   6.855  14.631  0.00  0.00    +0.000 C 
ATOM     25  O   UNL     1      49.741   6.717  14.446  0.00  0.00    +0.000 OA
ATOM     26  H   UNL     1      48.476   5.594  16.214  0.00  0.00    +0.000 HD
ATOM     27  H   UNL     1      46.908   6.104  15.701  0.00  0.00    +0.000 HD
ENDBRANCH  17  24
ENDBRANCH  16  21
ENDBRANCH  15  16
ENDBRANCH   1  15
TORSDOF 5
ENDMDL
