MODEL 1
REMARK VINA RESULT:    -8.085      0.000      0.000
REMARK INTER + INTRA:         -10.599
REMARK INTER:                 -10.448
REMARK INTRA:                  -0.150
REMARK UNBOUND:                -0.150
REMARK  Name = 
REMARK  6 active torsions:
REMARK  status: ('A' for Active; 'I' for Inactive)
REMARK    1  A    between atoms: C_1  and  C_2
REMARK    2  A    between atoms: C_2  and  N_3
REMARK    3  A    between atoms: C_2  and  C_16
REMARK    4  A    between atoms: C_4  and  C_6
REMARK    5  A    between atoms: C_19  and  O_20
REMARK    6  A    between atoms: O_20  and  C_21
REMARK                            x       y       z     vdW  Elec       q    Type
REMARK                         _______ _______ _______ _____ _____    ______ ____
ROOT
ATOM      1  C   UNL     1      47.778   9.024  12.384  0.00  0.00    +0.000 C 
ATOM      2  C   UNL     1      46.710   8.203  13.110  0.00  0.00    +0.000 C 
ENDROOT
BRANCH   2   3
ATOM      3  C   UNL     1      46.043   7.128  12.269  0.00  0.00    +0.000 A 
ATOM      4  C   UNL     1      46.612   6.813  11.025  0.00  0.00    +0.000 A 
ATOM      5  C   UNL     1      46.043   5.845  10.197  0.00  0.00    +0.000 A 
ATOM      6  C   UNL     1      44.909   5.146  10.614  0.00  0.00    +0.000 A 
ATOM      7  C   UNL     1      44.296   5.489  11.818  0.00  0.00    +0.000 A 
ATOM      8  C   UNL     1      44.856   6.476  12.639  0.00  0.00    +0.000 A 
BRANCH   6   9
ATOM      9  O   UNL     1      44.301   4.170   9.857  0.00  0.00    +0.000 OA
BRANCH   9  10
ATOM     10  C   UNL     1      45.087   3.477   8.946  0.00  0.00    +0.000 A 
ATOM     11  C   UNL     1      45.344   2.138   9.203  0.00  0.00    +0.000 A 
ATOM     12  N   UNL     1      46.075   1.359   8.365  0.00  0.00    +0.000 NA
ATOM     13  C   UNL     1      46.543   1.987   7.261  0.00  0.00    +0.000 A 
ATOM     14  C   UNL     1      46.309   3.330   7.015  0.00  0.00    +0.000 A 
ATOM     15  N   UNL     1      45.591   4.106   7.856  0.00  0.00    +0.000 NA
ENDBRANCH   9  10
ENDBRANCH   6   9
ENDBRANCH   2   3
BRANCH   2  16
ATOM     16  N   UNL     1      47.265   7.585  14.298  0.00  0.00    +0.000 N 
ATOM     17  C   UNL     1      48.433   6.870  14.284  0.00  0.00    +0.000 C 
ATOM     18  O   UNL     1      49.146   6.785  13.288  0.00  0.00    +0.000 OA
ATOM     19  H   UNL     1      46.641   7.509  15.093  0.00  0.00    +0.000 HD
BRANCH  17  20
ATOM     20  C   UNL     1      48.818   6.252  15.555  0.00  0.00    +0.000 A 
ATOM     21  C   UNL     1      49.884   6.763  16.282  0.00  0.00    +0.000 A 
ATOM     22  S   UNL     1      50.177   5.926  17.740  0.00  0.00    +0.000 S 
ATOM     23  C   UNL     1      48.924   4.819  17.421  0.00  0.00    +0.000 A 
ATOM     24  N   UNL     1      48.662   3.794  18.274  0.00  0.00    +0.000 NA
ATOM     25  C   UNL     1      47.715   3.005  17.888  0.00  0.00    +0.000 A 
ATOM     26  N   UNL     1      46.996   3.160  16.728  0.00  0.00    +0.000 N 
ATOM     27  C   UNL     1      47.186   4.213  15.865  0.00  0.00    +0.000 A 
ATOM     28  O   UNL     1      46.459   4.372  14.889  0.00  0.00    +0.000 OA
ATOM     29  C   UNL     1      48.269   5.104  16.235  0.00  0.00    +0.000 A 
ATOM     30  H   UNL     1      46.250   2.520  16.493  0.00  0.00    +0.000 HD
ENDBRANCH  17  20
ENDBRANCH   2  16
TORSDOF 5
ENDMDL
MODEL 2
REMARK VINA RESULT:    -7.380      3.347      7.579
REMARK INTER + INTRA:          -9.687
REMARK INTER:                  -8.527
REMARK INTRA:                  -1.160
REMARK UNBOUND:                -0.150
REMARK  Name = 
REMARK  6 active torsions:
REMARK  status: ('A' for Active; 'I' for Inactive)
REMARK    1  A    between atoms: C_1  and  C_2
REMARK    2  A    between atoms: C_2  and  N_3
REMARK    3  A    between atoms: C_2  and  C_16
REMARK    4  A    between atoms: C_4  and  C_6
REMARK    5  A    between atoms: C_19  and  O_20
REMARK    6  A    between atoms: O_20  and  C_21
REMARK                            x       y       z     vdW  Elec       q    Type
REMARK                         _______ _______ _______ _____ _____    ______ ____
ROOT
ATOM      1  C   UNL     1      48.278   9.151  14.779  0.00  0.00    +0.000 C 
ATOM      2  C   UNL     1      48.518   7.695  14.372  0.00  0.00    +0.000 C 
ENDROOT
BRANCH   2   3
ATOM      3  C   UNL     1      49.029   6.792  15.483  0.00  0.00    +0.000 A 
ATOM      4  C   UNL     1      48.121   5.912  16.091  0.00  0.00    +0.000 A 
ATOM      5  C   UNL     1      48.520   5.066  17.125  0.00  0.00    +0.000 A 
ATOM      6  C   UNL     1      49.850   5.058  17.549  0.00  0.00    +0.000 A 
ATOM      7  C   UNL     1      50.751   5.969  16.999  0.00  0.00    +0.000 A 
ATOM      8  C   UNL     1      50.343   6.834  15.976  0.00  0.00    +0.000 A 
BRANCH   6   9
ATOM      9  O   UNL     1      50.320   4.242  18.553  0.00  0.00    +0.000 OA
BRANCH   9  10
ATOM     10  C   UNL     1      51.130   3.174  18.192  0.00  0.00    +0.000 A 
ATOM     11  C   UNL     1      50.554   2.147  17.457  0.00  0.00    +0.000 A 
ATOM     12  N   UNL     1      51.261   1.071  17.026  0.00  0.00    +0.000 NA
ATOM     13  C   UNL     1      52.569   1.067  17.374  0.00  0.00    +0.000 A 
ATOM     14  C   UNL     1      53.139   2.078  18.130  0.00  0.00    +0.000 A 
ATOM     15  N   UNL     1      52.432   3.143  18.568  0.00  0.00    +0.000 NA
ENDBRANCH   9  10
ENDBRANCH   6   9
ENDBRANCH   2   3
BRANCH   2  16
ATOM     16  N   UNL     1      47.308   7.115  13.823  0.00  0.00    +0.000 N 
ATOM     17  C   UNL     1      47.061   7.057  12.477  0.00  0.00    +0.000 C 
ATOM     18  O   UNL     1      47.887   7.398  11.636  0.00  0.00    +0.000 OA
ATOM     19  H   UNL     1      46.551   6.960  14.478  0.00  0.00    +0.000 HD
BRANCH  17  20
ATOM     20  C   UNL     1      45.760   6.503  12.090  0.00  0.00    +0.000 A 
ATOM     21  C   UNL     1      44.799   7.322  11.517  0.00  0.00    +0.000 A 
ATOM     22  S   UNL     1      43.356   6.504  11.119  0.00  0.00    +0.000 S 
ATOM     23  C   UNL     1      43.949   5.038  11.750  0.00  0.00    +0.000 A 
ATOM     24  N   UNL     1      43.179   3.918  11.758  0.00  0.00    +0.000 NA
ATOM     25  C   UNL     1      43.737   2.890  12.306  0.00  0.00    +0.000 A 
ATOM     26  N   UNL     1      45.004   2.879  12.834  0.00  0.00    +0.000 N 
ATOM     27  C   UNL     1      45.839   3.971  12.796  0.00  0.00    +0.000 A 
ATOM     28  O   UNL     1      46.999   3.896  13.190  0.00  0.00    +0.000 OA
ATOM     29  C   UNL     1      45.242   5.164  12.227  0.00  0.00    +0.000 A 
ATOM     30  H   UNL     1      45.393   2.035  13.229  0.00  0.00    +0.000 HD
ENDBRANCH  17  20
ENDBRANCH   2  16
TORSDOF 5
ENDMDL
MODEL 3
REMARK VINA RESULT:    -7.378      2.912      3.938
REMARK INTER + INTRA:          -9.684
REMARK INTER:                  -8.660
REMARK INTRA:                  -1.025
REMARK UNBOUND:                -0.150
REMARK  Name = 
REMARK  6 active torsions:
REMARK  status: ('A' for Active; 'I' for Inactive)
REMARK    1  A    between atoms: C_1  and  C_2
REMARK    2  A    between atoms: C_2  and  N_3
REMARK    3  A    between atoms: C_2  and  C_16
REMARK    4  A    between atoms: C_4  and  C_6
REMARK    5  A    between atoms: C_19  and  O_20
REMARK    6  A    between atoms: O_20  and  C_21
REMARK                            x       y       z     vdW  Elec       q    Type
REMARK                         _______ _______ _______ _____ _____    ______ ____
ROOT
ATOM      1  C   UNL     1      47.441   3.863  16.609  0.00  0.00    +0.000 C 
ATOM      2  C   UNL     1      47.834   4.738  15.417  0.00  0.00    +0.000 C 
ENDROOT
BRANCH   2   3
ATOM      3  C   UNL     1      46.953   4.586  14.189  0.00  0.00    +0.000 A 
ATOM      4  C   UNL     1      46.450   5.750  13.586  0.00  0.00    +0.000 A 
ATOM      5  C   UNL     1      45.625   5.681  12.464  0.00  0.00    +0.000 A 
ATOM      6  C   UNL     1      45.312   4.443  11.900  0.00  0.00    +0.000 A 
ATOM      7  C   UNL     1      45.751   3.275  12.521  0.00  0.00    +0.000 A 
ATOM      8  C   UNL     1      46.562   3.345  13.661  0.00  0.00    +0.000 A 
BRANCH   6   9
ATOM      9  O   UNL     1      44.515   4.299  10.787  0.00  0.00    +0.000 OA
BRANCH   9  10
ATOM     10  C   UNL     1      45.108   3.821   9.625  0.00  0.00    +0.000 A 
ATOM     11  C   UNL     1      45.675   4.748   8.763  0.00  0.00    +0.000 A 
ATOM     12  N   UNL     1      46.306   4.389   7.615  0.00  0.00    +0.000 NA
ATOM     13  C   UNL     1      46.334   3.059   7.369  0.00  0.00    +0.000 A 
ATOM     14  C   UNL     1      45.745   2.134   8.215  0.00  0.00    +0.000 A 
ATOM     15  N   UNL     1      45.108   2.494   9.351  0.00  0.00    +0.000 NA
ENDBRANCH   9  10
ENDBRANCH   6   9
ENDBRANCH   2   3
BRANCH   2  16
ATOM     16  N   UNL     1      47.861   6.136  15.799  0.00  0.00    +0.000 N 
ATOM     17  C   UNL     1      49.023   6.806  16.075  0.00  0.00    +0.000 C 
ATOM     18  O   UNL     1      50.131   6.301  15.921  0.00  0.00    +0.000 OA
ATOM     19  H   UNL     1      46.974   6.538  16.076  0.00  0.00    +0.000 HD
BRANCH  17  20
ATOM     20  C   UNL     1      48.870   8.195  16.514  0.00  0.00    +0.000 A 
ATOM     21  C   UNL     1      49.383   9.229  15.744  0.00  0.00    +0.000 A 
ATOM     22  S   UNL     1      49.098  10.776  16.404  0.00  0.00    +0.000 S 
ATOM     23  C   UNL     1      48.327  10.112  17.768  0.00  0.00    +0.000 A 
ATOM     24  N   UNL     1      47.867  10.909  18.769  0.00  0.00    +0.000 NA
ATOM     25  C   UNL     1      47.344  10.272  19.763  0.00  0.00    +0.000 A 
ATOM     26  N   UNL     1      47.228   8.906  19.839  0.00  0.00    +0.000 N 
ATOM     27  C   UNL     1      47.626   8.064  18.828  0.00  0.00    +0.000 A 
ATOM     28  O   UNL     1      47.417   6.857  18.889  0.00  0.00    +0.000 OA
ATOM     29  C   UNL     1      48.258   8.732  17.706  0.00  0.00    +0.000 A 
ATOM     30  H   UNL     1      46.787   8.469  20.635  0.00  0.00    +0.000 HD
ENDBRANCH  17  20
ENDBRANCH   2  16
TORSDOF 5
ENDMDL
MODEL 4
REMARK VINA RESULT:    -7.198      2.141      2.500
REMARK INTER + INTRA:          -9.452
REMARK INTER:                  -8.491
REMARK INTRA:                  -0.962
REMARK UNBOUND:                -0.150
REMARK  Name = 
REMARK  6 active torsions:
REMARK  status: ('A' for Active; 'I' for Inactive)
REMARK    1  A    between atoms: C_1  and  C_2
REMARK    2  A    between atoms: C_2  and  N_3
REMARK    3  A    between atoms: C_2  and  C_16
REMARK    4  A    between atoms: C_4  and  C_6
REMARK    5  A    between atoms: C_19  and  O_20
REMARK    6  A    between atoms: O_20  and  C_21
REMARK                            x       y       z     vdW  Elec       q    Type
REMARK                         _______ _______ _______ _____ _____    ______ ____
ROOT
ATOM      1  C   UNL     1      49.211   8.700  13.149  0.00  0.00    +0.000 C 
ATOM      2  C   UNL     1      47.819   8.489  13.750  0.00  0.00    +0.000 C 
ENDROOT
BRANCH   2   3
ATOM      3  C   UNL     1      46.910   7.565  12.958  0.00  0.00    +0.000 A 
ATOM      4  C   UNL     1      45.923   8.145  12.145  0.00  0.00    +0.000 A 
ATOM      5  C   UNL     1      45.047   7.354  11.402  0.00  0.00    +0.000 A 
ATOM      6  C   UNL     1      45.163   5.964  11.429  0.00  0.00    +0.000 A 
ATOM      7  C   UNL     1      46.096   5.370  12.278  0.00  0.00    +0.000 A 
ATOM      8  C   UNL     1      46.961   6.164  13.041  0.00  0.00    +0.000 A 
BRANCH   6   9
ATOM      9  O   UNL     1      44.343   5.122  10.713  0.00  0.00    +0.000 OA
BRANCH   9  10
ATOM     10  C   UNL     1      44.933   4.304   9.758  0.00  0.00    +0.000 A 
ATOM     11  C   UNL     1      44.779   2.933   9.898  0.00  0.00    +0.000 A 
ATOM     12  N   UNL     1      45.288   2.044   9.007  0.00  0.00    +0.000 NA
ATOM     13  C   UNL     1      45.968   2.594   7.974  0.00  0.00    +0.000 A 
ATOM     14  C   UNL     1      46.146   3.962   7.846  0.00  0.00    +0.000 A 
ATOM     15  N   UNL     1      45.648   4.844   8.740  0.00  0.00    +0.000 NA
ENDBRANCH   9  10
ENDBRANCH   6   9
ENDBRANCH   2   3
BRANCH   2  16
ATOM     16  N   UNL     1      47.922   7.989  15.107  0.00  0.00    +0.000 N 
ATOM     17  C   UNL     1      48.318   8.773  16.157  0.00  0.00    +0.000 C 
ATOM     18  O   UNL     1      48.518   9.979  16.045  0.00  0.00    +0.000 OA
ATOM     19  H   UNL     1      47.909   6.981  15.212  0.00  0.00    +0.000 HD
BRANCH  17  20
ATOM     20  C   UNL     1      48.437   8.095  17.451  0.00  0.00    +0.000 A 
ATOM     21  C   UNL     1      47.771   8.595  18.561  0.00  0.00    +0.000 A 
ATOM     22  S   UNL     1      48.013   7.670  19.973  0.00  0.00    +0.000 S 
ATOM     23  C   UNL     1      49.060   6.602  19.161  0.00  0.00    +0.000 A 
ATOM     24  N   UNL     1      49.664   5.577  19.819  0.00  0.00    +0.000 NA
ATOM     25  C   UNL     1      50.465   4.873  19.092  0.00  0.00    +0.000 A 
ATOM     26  N   UNL     1      50.707   5.094  17.759  0.00  0.00    +0.000 N 
ATOM     27  C   UNL     1      50.077   6.081  17.039  0.00  0.00    +0.000 A 
ATOM     28  O   UNL     1      50.244   6.187  15.828  0.00  0.00    +0.000 OA
ATOM     29  C   UNL     1      49.197   6.926  17.822  0.00  0.00    +0.000 A 
ATOM     30  H   UNL     1      51.329   4.492  17.239  0.00  0.00    +0.000 HD
ENDBRANCH  17  20
ENDBRANCH   2  16
TORSDOF 5
ENDMDL
MODEL 5
REMARK VINA RESULT:    -7.141      3.435      5.467
REMARK INTER + INTRA:          -9.379
REMARK INTER:                  -8.641
REMARK INTRA:                  -0.738
REMARK UNBOUND:                -0.150
REMARK  Name = 
REMARK  6 active torsions:
REMARK  status: ('A' for Active; 'I' for Inactive)
REMARK    1  A    between atoms: C_1  and  C_2
REMARK    2  A    between atoms: C_2  and  N_3
REMARK    3  A    between atoms: C_2  and  C_16
REMARK    4  A    between atoms: C_4  and  C_6
REMARK    5  A    between atoms: C_19  and  O_20
REMARK    6  A    between atoms: O_20  and  C_21
REMARK                            x       y       z     vdW  Elec       q    Type
REMARK                         _______ _______ _______ _____ _____    ______ ____
ROOT
ATOM      1  C   UNL     1      44.554   4.256  13.236  0.00  0.00    +0.000 C 
ATOM      2  C   UNL     1      45.819   5.113  13.150  0.00  0.00    +0.000 C 
ENDROOT
BRANCH   2   3
ATOM      3  C   UNL     1      45.599   6.538  12.672  0.00  0.00    +0.000 A 
ATOM      4  C   UNL     1      46.372   7.557  13.250  0.00  0.00    +0.000 A 
ATOM      5  C   UNL     1      46.212   8.888  12.867  0.00  0.00    +0.000 A 
ATOM      6  C   UNL     1      45.296   9.225  11.870  0.00  0.00    +0.000 A 
ATOM      7  C   UNL     1      44.476   8.235  11.329  0.00  0.00    +0.000 A 
ATOM      8  C   UNL     1      44.622   6.901  11.730  0.00  0.00    +0.000 A 
BRANCH   6   9
ATOM      9  O   UNL     1      45.093  10.514  11.432  0.00  0.00    +0.000 OA
BRANCH   9  10
ATOM     10  C   UNL     1      43.817  10.857  11.003  0.00  0.00    +0.000 A 
ATOM     11  C   UNL     1      43.581  10.884   9.636  0.00  0.00    +0.000 A 
ATOM     12  N   UNL     1      42.365  11.177   9.110  0.00  0.00    +0.000 NA
ATOM     13  C   UNL     1      41.398  11.450  10.017  0.00  0.00    +0.000 A 
ATOM     14  C   UNL     1      41.638  11.450  11.381  0.00  0.00    +0.000 A 
ATOM     15  N   UNL     1      42.852  11.169  11.903  0.00  0.00    +0.000 NA
ENDBRANCH   9  10
ENDBRANCH   6   9
ENDBRANCH   2   3
BRANCH   2  16
ATOM     16  N   UNL     1      46.495   5.151  14.431  0.00  0.00    +0.000 N 
ATOM     17  C   UNL     1      47.217   4.095  14.918  0.00  0.00    +0.000 C 
ATOM     18  O   UNL     1      47.428   3.078  14.264  0.00  0.00    +0.000 OA
ATOM     19  H   UNL     1      46.227   5.904  15.054  0.00  0.00    +0.000 HD
BRANCH  17  20
ATOM     20  C   UNL     1      47.780   4.271  16.260  0.00  0.00    +0.000 A 
ATOM     21  C   UNL     1      47.403   3.421  17.289  0.00  0.00    +0.000 A 
ATOM     22  S   UNL     1      48.170   3.766  18.773  0.00  0.00    +0.000 S 
ATOM     23  C   UNL     1      48.990   5.098  18.103  0.00  0.00    +0.000 A 
ATOM     24  N   UNL     1      49.803   5.876  18.865  0.00  0.00    +0.000 NA
ATOM     25  C   UNL     1      50.326   6.878  18.240  0.00  0.00    +0.000 A 
ATOM     26  N   UNL     1      50.119   7.163  16.913  0.00  0.00    +0.000 N 
ATOM     27  C   UNL     1      49.352   6.373  16.089  0.00  0.00    +0.000 A 
ATOM     28  O   UNL     1      49.269   6.603  14.887  0.00  0.00    +0.000 OA
ATOM     29  C   UNL     1      48.709   5.257  16.757  0.00  0.00    +0.000 A 
ATOM     30  H   UNL     1      50.577   7.950  16.476  0.00  0.00    +0.000 HD
ENDBRANCH  17  20
ENDBRANCH   2  16
TORSDOF 5
ENDMDL
MODEL 6
REMARK VINA RESULT:    -7.047      2.341      3.326
REMARK INTER + INTRA:          -9.257
REMARK INTER:                  -8.190
REMARK INTRA:                  -1.067
REMARK UNBOUND:                -0.150
REMARK  Name = 
REMARK  6 active torsions:
REMARK  status: ('A' for Active; 'I' for Inactive)
REMARK    1  A    between atoms: C_1  and  C_2
REMARK    2  A    between atoms: C_2  and  N_3
REMARK    3  A    between atoms: C_2  and  C_16
REMARK    4  A    between atoms: C_4  and  C_6
REMARK    5  A    between atoms: C_19  and  O_20
REMARK    6  A    between atoms: O_20  and  C_21
REMARK                            x       y       z     vdW  Elec       q    Type
REMARK                         _______ _______ _______ _____ _____    ______ ____
ROOT
ATOM      1  C   UNL     1      47.922   9.587  12.731  0.00  0.00    +0.000 C 
ATOM      2  C   UNL     1      47.246   8.519  13.595  0.00  0.00    +0.000 C 
ENDROOT
BRANCH   2   3
ATOM      3  C   UNL     1      46.389   7.523  12.832  0.00  0.00    +0.000 A 
ATOM      4  C   UNL     1      46.781   6.176  12.834  0.00  0.00    +0.000 A 
ATOM      5  C   UNL     1      46.046   5.211  12.143  0.00  0.00    +0.000 A 
ATOM      6  C   UNL     1      44.881   5.572  11.465  0.00  0.00    +0.000 A 
ATOM      7  C   UNL     1      44.511   6.914  11.402  0.00  0.00    +0.000 A 
ATOM      8  C   UNL     1      45.262   7.885  12.077  0.00  0.00    +0.000 A 
BRANCH   6   9
ATOM      9  O   UNL     1      44.100   4.674  10.774  0.00  0.00    +0.000 OA
BRANCH   9  10
ATOM     10  C   UNL     1      44.712   3.908   9.790  0.00  0.00    +0.000 A 
ATOM     11  C   UNL     1      45.327   4.577   8.742  0.00  0.00    +0.000 A 
ATOM     12  N   UNL     1      45.980   3.929   7.743  0.00  0.00    +0.000 NA
ATOM     13  C   UNL     1      45.980   2.579   7.840  0.00  0.00    +0.000 A 
ATOM     14  C   UNL     1      45.344   1.908   8.871  0.00  0.00    +0.000 A 
ATOM     15  N   UNL     1      44.685   2.554   9.858  0.00  0.00    +0.000 NA
ENDBRANCH   9  10
ENDBRANCH   6   9
ENDBRANCH   2   3
BRANCH   2  16
ATOM     16  N   UNL     1      48.232   7.789  14.365  0.00  0.00    +0.000 N 
ATOM     17  C   UNL     1      48.606   8.159  15.629  0.00  0.00    +0.000 C 
ATOM     18  O   UNL     1      48.063   9.075  16.240  0.00  0.00    +0.000 OA
ATOM     19  H   UNL     1      48.801   7.128  13.849  0.00  0.00    +0.000 HD
BRANCH  17  20
ATOM     20  C   UNL     1      49.667   7.355  16.243  0.00  0.00    +0.000 A 
ATOM     21  C   UNL     1      49.405   6.615  17.387  0.00  0.00    +0.000 A 
ATOM     22  S   UNL     1      50.751   5.731  17.949  0.00  0.00    +0.000 S 
ATOM     23  C   UNL     1      51.744   6.352  16.714  0.00  0.00    +0.000 A 
ATOM     24  N   UNL     1      53.060   6.020  16.641  0.00  0.00    +0.000 NA
ATOM     25  C   UNL     1      53.705   6.596  15.682  0.00  0.00    +0.000 A 
ATOM     26  N   UNL     1      53.146   7.467  14.780  0.00  0.00    +0.000 N 
ATOM     27  C   UNL     1      51.809   7.787  14.779  0.00  0.00    +0.000 A 
ATOM     28  O   UNL     1      51.325   8.491  13.898  0.00  0.00    +0.000 OA
ATOM     29  C   UNL     1      51.050   7.195  15.865  0.00  0.00    +0.000 A 
ATOM     30  H   UNL     1      53.700   7.867  14.036  0.00  0.00    +0.000 HD
ENDBRANCH  17  20
ENDBRANCH   2  16
TORSDOF 5
ENDMDL
MODEL 7
REMARK VINA RESULT:    -6.796      3.920      9.152
REMARK INTER + INTRA:          -8.933
REMARK INTER:                  -8.809
REMARK INTRA:                  -0.124
REMARK UNBOUND:                -0.150
REMARK  Name = 
REMARK  6 active torsions:
REMARK  status: ('A' for Active; 'I' for Inactive)
REMARK    1  A    between atoms: C_1  and  C_2
REMARK    2  A    between atoms: C_2  and  N_3
REMARK    3  A    between atoms: C_2  and  C_16
REMARK    4  A    between atoms: C_4  and  C_6
REMARK    5  A    between atoms: C_19  and  O_20
REMARK    6  A    between atoms: O_20  and  C_21
REMARK                            x       y       z     vdW  Elec       q    Type
REMARK                         _______ _______ _______ _____ _____    ______ ____
ROOT
ATOM      1  C   UNL     1      46.800   2.910  17.417  0.00  0.00    +0.000 C 
ATOM      2  C   UNL     1      47.662   4.171  17.325  0.00  0.00    +0.000 C 
ENDROOT
BRANCH   2   3
ATOM      3  C   UNL     1      49.161   3.934  17.413  0.00  0.00    +0.000 A 
ATOM      4  C   UNL     1      50.006   5.052  17.472  0.00  0.00    +0.000 A 
ATOM      5  C   UNL     1      51.391   4.906  17.541  0.00  0.00    +0.000 A 
ATOM      6  C   UNL     1      51.959   3.631  17.587  0.00  0.00    +0.000 A 
ATOM      7  C   UNL     1      51.139   2.510  17.467  0.00  0.00    +0.000 A 
ATOM      8  C   UNL     1      49.749   2.659  17.376  0.00  0.00    +0.000 A 
BRANCH   6   9
ATOM      9  O   UNL     1      53.315   3.410  17.668  0.00  0.00    +0.000 OA
BRANCH   9  10
ATOM     10  C   UNL     1      53.827   2.976  18.884  0.00  0.00    +0.000 A 
ATOM     11  C   UNL     1      54.464   1.744  18.913  0.00  0.00    +0.000 A 
ATOM     12  N   UNL     1      55.026   1.238  20.041  0.00  0.00    +0.000 NA
ATOM     13  C   UNL     1      54.912   2.020  21.139  0.00  0.00    +0.000 A 
ATOM     14  C   UNL     1      54.253   3.239  21.118  0.00  0.00    +0.000 A 
ATOM     15  N   UNL     1      53.685   3.736  19.998  0.00  0.00    +0.000 NA
ENDBRANCH   9  10
ENDBRANCH   6   9
ENDBRANCH   2   3
BRANCH   2  16
ATOM     16  N   UNL     1      47.378   4.894  16.102  0.00  0.00    +0.000 N 
ATOM     17  C   UNL     1      47.385   4.296  14.870  0.00  0.00    +0.000 C 
ATOM     18  O   UNL     1      47.533   3.086  14.721  0.00  0.00    +0.000 OA
ATOM     19  H   UNL     1      47.397   5.905  16.167  0.00  0.00    +0.000 HD
BRANCH  17  20
ATOM     20  C   UNL     1      47.146   5.183  13.728  0.00  0.00    +0.000 A 
ATOM     21  C   UNL     1      47.815   6.394  13.636  0.00  0.00    +0.000 A 
ATOM     22  S   UNL     1      47.423   7.284  12.235  0.00  0.00    +0.000 S 
ATOM     23  C   UNL     1      46.305   6.104  11.731  0.00  0.00    +0.000 A 
ATOM     24  N   UNL     1      45.573   6.271  10.597  0.00  0.00    +0.000 NA
ATOM     25  C   UNL     1      44.733   5.321  10.358  0.00  0.00    +0.000 A 
ATOM     26  N   UNL     1      44.568   4.209  11.146  0.00  0.00    +0.000 N 
ATOM     27  C   UNL     1      45.325   3.969  12.269  0.00  0.00    +0.000 A 
ATOM     28  O   UNL     1      45.217   2.918  12.894  0.00  0.00    +0.000 OA
ATOM     29  C   UNL     1      46.255   5.030  12.603  0.00  0.00    +0.000 A 
ATOM     30  H   UNL     1      43.908   3.488  10.892  0.00  0.00    +0.000 HD
ENDBRANCH  17  20
ENDBRANCH   2  16
TORSDOF 5
ENDMDL
MODEL 8
REMARK VINA RESULT:    -6.761      4.551      8.776
REMARK INTER + INTRA:          -8.887
REMARK INTER:                  -8.076
REMARK INTRA:                  -0.811
REMARK UNBOUND:                -0.150
REMARK  Name = 
REMARK  6 active torsions:
REMARK  status: ('A' for Active; 'I' for Inactive)
REMARK    1  A    between atoms: C_1  and  C_2
REMARK    2  A    between atoms: C_2  and  N_3
REMARK    3  A    between atoms: C_2  and  C_16
REMARK    4  A    between atoms: C_4  and  C_6
REMARK    5  A    between atoms: C_19  and  O_20
REMARK    6  A    between atoms: O_20  and  C_21
REMARK                            x       y       z     vdW  Elec       q    Type
REMARK                         _______ _______ _______ _____ _____    ______ ____
ROOT
ATOM      1  C   UNL     1      47.536   2.840  17.659  0.00  0.00    +0.000 C 
ATOM      2  C   UNL     1      48.620   3.908  17.493  0.00  0.00    +0.000 C 
ENDROOT
BRANCH   2   3
ATOM      3  C   UNL     1      50.045   3.409  17.655  0.00  0.00    +0.000 A 
ATOM      4  C   UNL     1      50.332   2.089  17.273  0.00  0.00    +0.000 A 
ATOM      5  C   UNL     1      51.617   1.563  17.407  0.00  0.00    +0.000 A 
ATOM      6  C   UNL     1      52.653   2.361  17.895  0.00  0.00    +0.000 A 
ATOM      7  C   UNL     1      52.373   3.653  18.337  0.00  0.00    +0.000 A 
ATOM      8  C   UNL     1      51.077   4.173  18.223  0.00  0.00    +0.000 A 
BRANCH   6   9
ATOM      9  O   UNL     1      53.947   1.915  18.043  0.00  0.00    +0.000 OA
BRANCH   9  10
ATOM     10  C   UNL     1      54.178   0.552  17.911  0.00  0.00    +0.000 A 
ATOM     11  C   UNL     1      54.611   0.088  16.677  0.00  0.00    +0.000 A 
ATOM     12  N   UNL     1      54.896  -1.219  16.446  0.00  0.00    +0.000 NA
ATOM     13  C   UNL     1      54.718  -2.040  17.506  0.00  0.00    +0.000 A 
ATOM     14  C   UNL     1      54.261  -1.584  18.731  0.00  0.00    +0.000 A 
ATOM     15  N   UNL     1      53.967  -0.284  18.957  0.00  0.00    +0.000 NA
ENDBRANCH   9  10
ENDBRANCH   6   9
ENDBRANCH   2   3
BRANCH   2  16
ATOM     16  N   UNL     1      48.499   4.559  16.204  0.00  0.00    +0.000 N 
ATOM     17  C   UNL     1      48.500   5.920  16.059  0.00  0.00    +0.000 C 
ATOM     18  O   UNL     1      48.703   6.687  16.996  0.00  0.00    +0.000 OA
ATOM     19  H   UNL     1      48.186   3.974  15.438  0.00  0.00    +0.000 HD
BRANCH  17  20
ATOM     20  C   UNL     1      48.299   6.417  14.695  0.00  0.00    +0.000 A 
ATOM     21  C   UNL     1      49.051   7.484  14.225  0.00  0.00    +0.000 A 
ATOM     22  S   UNL     1      48.692   7.914  12.615  0.00  0.00    +0.000 S 
ATOM     23  C   UNL     1      47.479   6.725  12.509  0.00  0.00    +0.000 A 
ATOM     24  N   UNL     1      46.735   6.582  11.380  0.00  0.00    +0.000 NA
ATOM     25  C   UNL     1      45.823   5.672  11.453  0.00  0.00    +0.000 A 
ATOM     26  N   UNL     1      45.596   4.880  12.552  0.00  0.00    +0.000 N 
ATOM     27  C   UNL     1      46.360   4.949  13.693  0.00  0.00    +0.000 A 
ATOM     28  O   UNL     1      46.192   4.160  14.618  0.00  0.00    +0.000 OA
ATOM     29  C   UNL     1      47.373   5.987  13.675  0.00  0.00    +0.000 A 
ATOM     30  H   UNL     1      44.880   4.168  12.538  0.00  0.00    +0.000 HD
ENDBRANCH  17  20
ENDBRANCH   2  16
TORSDOF 5
ENDMDL
MODEL 9
REMARK VINA RESULT:    -6.445      2.924      4.173
REMARK INTER + INTRA:          -8.479
REMARK INTER:                  -7.421
REMARK INTRA:                  -1.059
REMARK UNBOUND:                -0.150
REMARK  Name = 
REMARK  6 active torsions:
REMARK  status: ('A' for Active; 'I' for Inactive)
REMARK    1  A    between atoms: C_1  and  C_2
REMARK    2  A    between atoms: C_2  and  N_3
REMARK    3  A    between atoms: C_2  and  C_16
REMARK    4  A    between atoms: C_4  and  C_6
REMARK    5  A    between atoms: C_19  and  O_20
REMARK    6  A    between atoms: O_20  and  C_21
REMARK                            x       y       z     vdW  Elec       q    Type
REMARK                         _______ _______ _______ _____ _____    ______ ____
ROOT
ATOM      1  C   UNL     1      50.126   9.369  14.088  0.00  0.00    +0.000 C 
ATOM      2  C   UNL     1      49.103   8.444  14.753  0.00  0.00    +0.000 C 
ENDROOT
BRANCH   2   3
ATOM      3  C   UNL     1      47.972   7.981  13.851  0.00  0.00    +0.000 A 
ATOM      4  C   UNL     1      48.154   6.799  13.116  0.00  0.00    +0.000 A 
ATOM      5  C   UNL     1      47.161   6.323  12.260  0.00  0.00    +0.000 A 
ATOM      6  C   UNL     1      45.948   7.005  12.147  0.00  0.00    +0.000 A 
ATOM      7  C   UNL     1      45.775   8.212  12.821  0.00  0.00    +0.000 A 
ATOM      8  C   UNL     1      46.781   8.700  13.664  0.00  0.00    +0.000 A 
BRANCH   6   9
ATOM      9  O   UNL     1      44.920   6.589  11.332  0.00  0.00    +0.000 OA
BRANCH   9  10
ATOM     10  C   UNL     1      44.440   5.297  11.506  0.00  0.00    +0.000 A 
ATOM     11  C   UNL     1      44.096   4.905  12.792  0.00  0.00    +0.000 A 
ATOM     12  N   UNL     1      43.589   3.676  13.071  0.00  0.00    +0.000 NA
ATOM     13  C   UNL     1      43.453   2.857  12.003  0.00  0.00    +0.000 A 
ATOM     14  C   UNL     1      43.821   3.237  10.723  0.00  0.00    +0.000 A 
ATOM     15  N   UNL     1      44.335   4.456  10.448  0.00  0.00    +0.000 NA
ENDBRANCH   9  10
ENDBRANCH   6   9
ENDBRANCH   2   3
BRANCH   2  16
ATOM     16  N   UNL     1      49.760   7.279  15.311  0.00  0.00    +0.000 N 
ATOM     17  C   UNL     1      49.518   6.832  16.583  0.00  0.00    +0.000 C 
ATOM     18  O   UNL     1      48.657   7.323  17.306  0.00  0.00    +0.000 OA
ATOM     19  H   UNL     1      50.571   6.941  14.808  0.00  0.00    +0.000 HD
BRANCH  17  20
ATOM     20  C   UNL     1      50.316   5.682  17.018  0.00  0.00    +0.000 A 
ATOM     21  C   UNL     1      49.688   4.521  17.444  0.00  0.00    +0.000 A 
ATOM     22  S   UNL     1      50.774   3.286  17.897  0.00  0.00    +0.000 S 
ATOM     23  C   UNL     1      52.120   4.282  17.590  0.00  0.00    +0.000 A 
ATOM     24  N   UNL     1      53.385   3.838  17.818  0.00  0.00    +0.000 NA
ATOM     25  C   UNL     1      54.308   4.711  17.585  0.00  0.00    +0.000 A 
ATOM     26  N   UNL     1      54.078   5.986  17.130  0.00  0.00    +0.000 N 
ATOM     27  C   UNL     1      52.822   6.459  16.832  0.00  0.00    +0.000 A 
ATOM     28  O   UNL     1      52.664   7.570  16.335  0.00  0.00    +0.000 OA
ATOM     29  C   UNL     1      51.747   5.528  17.117  0.00  0.00    +0.000 A 
ATOM     30  H   UNL     1      54.847   6.615  16.945  0.00  0.00    +0.000 HD
ENDBRANCH  17  20
ENDBRANCH   2  16
TORSDOF 5
ENDMDL
