MODEL 1
REMARK VINA RESULT:    -7.762      0.000      0.000
REMARK INTER + INTRA:         -10.772
REMARK INTER:                 -10.031
REMARK INTRA:                  -0.741
REMARK UNBOUND:                -0.741
REMARK  Name = 
REMARK  6 active torsions:
REMARK  status: ('A' for Active; 'I' for Inactive)
REMARK    1  A    between atoms: C_1  and  C_2
REMARK    2  A    between atoms: C_2  and  C_3
REMARK    3  A    between atoms: C_2  and  C_14
REMARK    4  A    between atoms: C_3  and  N_4
REMARK    5  A    between atoms: N_4  and  C_5
REMARK    6  A    between atoms: C_8  and  C_9
REMARK                            x       y       z     vdW  Elec       q    Type
REMARK                         _______ _______ _______ _____ _____    ______ ____
ROOT
ATOM      1  N   UNL     1      43.852   4.908   9.949  0.00  0.00    +0.000 N 
ATOM      2  H   UNL     1      44.142   5.855   9.713  0.00  0.00    +0.000 HD
ENDROOT
BRANCH   1   3
ATOM      3  C   UNL     1      44.660   3.953   9.315  0.00  0.00    +0.000 A 
ATOM      4  C   UNL     1      45.612   4.367   8.378  0.00  0.00    +0.000 A 
ATOM      5  C   UNL     1      46.412   3.433   7.717  0.00  0.00    +0.000 A 
ATOM      6  C   UNL     1      46.208   2.088   7.994  0.00  0.00    +0.000 A 
ATOM      7  N   UNL     1      45.253   1.628   8.845  0.00  0.00    +0.000 NA
ATOM      8  C   UNL     1      44.499   2.571   9.456  0.00  0.00    +0.000 A 
BRANCH   6   9
ATOM      9  C   UNL     1      47.071   1.047   7.352  0.00  0.00    +0.000 C 
ATOM     10  N   UNL     1      46.759  -0.244   7.682  0.00  0.00    +0.000 N 
ATOM     11  O   UNL     1      47.996   1.321   6.598  0.00  0.00    +0.000 OA
ATOM     12  H   UNL     1      45.987  -0.420   8.317  0.00  0.00    +0.000 HD
ATOM     13  H   UNL     1      47.302  -1.006   7.305  0.00  0.00    +0.000 HD
ENDBRANCH   6   9
ENDBRANCH   1   3
BRANCH   1  14
ATOM     14  C   UNL     1      43.652   4.756  11.387  0.00  0.00    +0.000 C 
BRANCH  14  16
ATOM     15  C   UNL     1      45.550   3.776  12.810  0.00  0.00    +0.000 C 
ATOM     16  C   UNL     1      44.983   4.932  12.045  0.00  0.00    +0.000 C 
BRANCH  16  17
ATOM     17  C   UNL     1      45.629   6.251  12.133  0.00  0.00    +0.000 A 
ATOM     18  C   UNL     1      44.918   7.398  12.510  0.00  0.00    +0.000 A 
ATOM     19  C   UNL     1      45.547   8.647  12.551  0.00  0.00    +0.000 A 
ATOM     20  C   UNL     1      46.898   8.761  12.227  0.00  0.00    +0.000 A 
ATOM     21  C   UNL     1      47.612   7.623  11.866  0.00  0.00    +0.000 A 
ATOM     22 CL   UNL     1      49.285   7.747  11.476  0.00  0.00    +0.000 Cl
ATOM     23  C   UNL     1      46.988   6.379  11.817  0.00  0.00    +0.000 A 
ENDBRANCH  16  17
ENDBRANCH  14  16
ENDBRANCH   1  14
TORSDOF 5
ENDMDL
MODEL 2
REMARK VINA RESULT:    -7.623      1.631      2.179
REMARK INTER + INTRA:         -10.592
REMARK INTER:                  -9.953
REMARK INTRA:                  -0.639
REMARK UNBOUND:                -0.741
REMARK  Name = 
REMARK  6 active torsions:
REMARK  status: ('A' for Active; 'I' for Inactive)
REMARK    1  A    between atoms: C_1  and  C_2
REMARK    2  A    between atoms: C_2  and  C_3
REMARK    3  A    between atoms: C_2  and  C_14
REMARK    4  A    between atoms: C_3  and  N_4
REMARK    5  A    between atoms: N_4  and  C_5
REMARK    6  A    between atoms: C_8  and  C_9
REMARK                            x       y       z     vdW  Elec       q    Type
REMARK                         _______ _______ _______ _____ _____    ______ ____
ROOT
ATOM      1  N   UNL     1      43.661   3.860  10.259  0.00  0.00    +0.000 N 
ATOM      2  H   UNL     1      42.720   3.611   9.957  0.00  0.00    +0.000 HD
ENDROOT
BRANCH   1   3
ATOM      3  C   UNL     1      44.620   3.476   9.311  0.00  0.00    +0.000 A 
ATOM      4  C   UNL     1      45.025   2.139   9.240  0.00  0.00    +0.000 A 
ATOM      5  C   UNL     1      45.996   1.740   8.320  0.00  0.00    +0.000 A 
ATOM      6  C   UNL     1      46.566   2.710   7.508  0.00  0.00    +0.000 A 
ATOM      7  N   UNL     1      46.257   4.032   7.581  0.00  0.00    +0.000 NA
ATOM      8  C   UNL     1      45.316   4.372   8.492  0.00  0.00    +0.000 A 
BRANCH   6   9
ATOM      9  C   UNL     1      47.574   2.329   6.470  0.00  0.00    +0.000 C 
ATOM     10  N   UNL     1      47.588   3.128   5.359  0.00  0.00    +0.000 N 
ATOM     11  O   UNL     1      48.325   1.369   6.591  0.00  0.00    +0.000 OA
ATOM     12  H   UNL     1      46.942   3.908   5.302  0.00  0.00    +0.000 HD
ATOM     13  H   UNL     1      48.227   2.931   4.604  0.00  0.00    +0.000 HD
ENDBRANCH   6   9
ENDBRANCH   1   3
BRANCH   1  14
ATOM     14  C   UNL     1      43.717   5.238  10.736  0.00  0.00    +0.000 C 
BRANCH  14  16
ATOM     15  C   UNL     1      42.965   5.058  13.183  0.00  0.00    +0.000 C 
ATOM     16  C   UNL     1      44.075   5.196  12.187  0.00  0.00    +0.000 C 
BRANCH  16  17
ATOM     17  C   UNL     1      45.438   5.496  12.652  0.00  0.00    +0.000 A 
ATOM     18  C   UNL     1      45.984   4.883  13.787  0.00  0.00    +0.000 A 
ATOM     19  C   UNL     1      47.270   5.212  14.229  0.00  0.00    +0.000 A 
ATOM     20  C   UNL     1      48.029   6.152  13.533  0.00  0.00    +0.000 A 
ATOM     21  C   UNL     1      47.498   6.753  12.398  0.00  0.00    +0.000 A 
ATOM     22 CL   UNL     1      48.430   7.906  11.521  0.00  0.00    +0.000 Cl
ATOM     23  C   UNL     1      46.216   6.433  11.958  0.00  0.00    +0.000 A 
ENDBRANCH  16  17
ENDBRANCH  14  16
ENDBRANCH   1  14
TORSDOF 5
ENDMDL
MODEL 3
REMARK VINA RESULT:    -7.541      3.755      6.184
REMARK INTER + INTRA:         -10.486
REMARK INTER:                  -9.630
REMARK INTRA:                  -0.855
REMARK UNBOUND:                -0.741
REMARK  Name = 
REMARK  6 active torsions:
REMARK  status: ('A' for Active; 'I' for Inactive)
REMARK    1  A    between atoms: C_1  and  C_2
REMARK    2  A    between atoms: C_2  and  C_3
REMARK    3  A    between atoms: C_2  and  C_14
REMARK    4  A    between atoms: C_3  and  N_4
REMARK    5  A    between atoms: N_4  and  C_5
REMARK    6  A    between atoms: C_8  and  C_9
REMARK                            x       y       z     vdW  Elec       q    Type
REMARK                         _______ _______ _______ _____ _____    ______ ____
ROOT
ATOM      1  N   UNL     1      43.946   5.184  11.977  0.00  0.00    +0.000 N 
ATOM      2  H   UNL     1      43.665   4.386  12.545  0.00  0.00    +0.000 HD
ENDROOT
BRANCH   1   3
ATOM      3  C   UNL     1      45.241   5.612  12.302  0.00  0.00    +0.000 A 
ATOM      4  C   UNL     1      45.919   6.480  11.440  0.00  0.00    +0.000 A 
ATOM      5  C   UNL     1      47.218   6.900  11.732  0.00  0.00    +0.000 A 
ATOM      6  C   UNL     1      47.822   6.403  12.878  0.00  0.00    +0.000 A 
ATOM      7  N   UNL     1      47.235   5.507  13.714  0.00  0.00    +0.000 NA
ATOM      8  C   UNL     1      45.979   5.125  13.386  0.00  0.00    +0.000 A 
BRANCH   6   9
ATOM      9  C   UNL     1      49.194   6.859  13.265  0.00  0.00    +0.000 C 
ATOM     10  N   UNL     1      49.990   7.247  12.220  0.00  0.00    +0.000 N 
ATOM     11  O   UNL     1      49.588   6.877  14.424  0.00  0.00    +0.000 OA
ATOM     12  H   UNL     1      49.620   7.208  11.276  0.00  0.00    +0.000 HD
ATOM     13  H   UNL     1      50.935   7.554  12.393  0.00  0.00    +0.000 HD
ENDBRANCH   6   9
ENDBRANCH   1   3
BRANCH   1  14
ATOM     14  C   UNL     1      43.658   4.958  10.564  0.00  0.00    +0.000 C 
BRANCH  14  16
ATOM     15  C   UNL     1      43.599   2.465  11.168  0.00  0.00    +0.000 C 
ATOM     16  C   UNL     1      44.056   3.552  10.246  0.00  0.00    +0.000 C 
BRANCH  16  17
ATOM     17  C   UNL     1      45.039   3.250   9.194  0.00  0.00    +0.000 A 
ATOM     18  C   UNL     1      45.618   4.258   8.412  0.00  0.00    +0.000 A 
ATOM     19  C   UNL     1      46.524   3.941   7.393  0.00  0.00    +0.000 A 
ATOM     20  C   UNL     1      46.868   2.611   7.152  0.00  0.00    +0.000 A 
ATOM     21  C   UNL     1      46.306   1.608   7.935  0.00  0.00    +0.000 A 
ATOM     22 CL   UNL     1      46.733  -0.037   7.657  0.00  0.00    +0.000 Cl
ATOM     23  C   UNL     1      45.400   1.919   8.945  0.00  0.00    +0.000 A 
ENDBRANCH  16  17
ENDBRANCH  14  16
ENDBRANCH   1  14
TORSDOF 5
ENDMDL
MODEL 4
REMARK VINA RESULT:    -7.422      1.981      2.356
REMARK INTER + INTRA:         -10.332
REMARK INTER:                  -9.710
REMARK INTRA:                  -0.622
REMARK UNBOUND:                -0.741
REMARK  Name = 
REMARK  6 active torsions:
REMARK  status: ('A' for Active; 'I' for Inactive)
REMARK    1  A    between atoms: C_1  and  C_2
REMARK    2  A    between atoms: C_2  and  C_3
REMARK    3  A    between atoms: C_2  and  C_14
REMARK    4  A    between atoms: C_3  and  N_4
REMARK    5  A    between atoms: N_4  and  C_5
REMARK    6  A    between atoms: C_8  and  C_9
REMARK                            x       y       z     vdW  Elec       q    Type
REMARK                         _______ _______ _______ _____ _____    ______ ____
ROOT
ATOM      1  N   UNL     1      43.752   4.872   9.906  0.00  0.00    +0.000 N 
ATOM      2  H   UNL     1      43.127   5.308   9.230  0.00  0.00    +0.000 HD
ENDROOT
BRANCH   1   3
ATOM      3  C   UNL     1      44.598   3.938   9.291  0.00  0.00    +0.000 A 
ATOM      4  C   UNL     1      45.509   4.364   8.319  0.00  0.00    +0.000 A 
ATOM      5  C   UNL     1      46.344   3.448   7.678  0.00  0.00    +0.000 A 
ATOM      6  C   UNL     1      46.216   2.106   8.009  0.00  0.00    +0.000 A 
ATOM      7  N   UNL     1      45.304   1.630   8.896  0.00  0.00    +0.000 NA
ATOM      8  C   UNL     1      44.513   2.555   9.487  0.00  0.00    +0.000 A 
BRANCH   6   9
ATOM      9  C   UNL     1      47.121   1.087   7.389  0.00  0.00    +0.000 C 
ATOM     10  N   UNL     1      48.105   1.601   6.587  0.00  0.00    +0.000 N 
ATOM     11  O   UNL     1      46.992  -0.117   7.569  0.00  0.00    +0.000 OA
ATOM     12  H   UNL     1      48.167   2.606   6.463  0.00  0.00    +0.000 HD
ATOM     13  H   UNL     1      48.748   0.981   6.118  0.00  0.00    +0.000 HD
ENDBRANCH   6   9
ENDBRANCH   1   3
BRANCH   1  14
ATOM     14  C   UNL     1      44.382   5.869  10.766  0.00  0.00    +0.000 C 
BRANCH  14  16
ATOM     15  C   UNL     1      43.374   4.545  12.720  0.00  0.00    +0.000 C 
ATOM     16  C   UNL     1      44.548   5.253  12.118  0.00  0.00    +0.000 C 
BRANCH  16  17
ATOM     17  C   UNL     1      45.743   5.509  12.939  0.00  0.00    +0.000 A 
ATOM     18  C   UNL     1      46.583   6.605  12.699  0.00  0.00    +0.000 A 
ATOM     19  C   UNL     1      47.733   6.806  13.471  0.00  0.00    +0.000 A 
ATOM     20  C   UNL     1      48.049   5.918  14.499  0.00  0.00    +0.000 A 
ATOM     21  C   UNL     1      47.211   4.837  14.750  0.00  0.00    +0.000 A 
ATOM     22 CL   UNL     1      47.583   3.740  16.025  0.00  0.00    +0.000 Cl
ATOM     23  C   UNL     1      46.069   4.629  13.980  0.00  0.00    +0.000 A 
ENDBRANCH  16  17
ENDBRANCH  14  16
ENDBRANCH   1  14
TORSDOF 5
ENDMDL
MODEL 5
REMARK VINA RESULT:    -7.031      3.989      6.827
REMARK INTER + INTRA:          -9.827
REMARK INTER:                  -9.456
REMARK INTRA:                  -0.370
REMARK UNBOUND:                -0.741
REMARK  Name = 
REMARK  6 active torsions:
REMARK  status: ('A' for Active; 'I' for Inactive)
REMARK    1  A    between atoms: C_1  and  C_2
REMARK    2  A    between atoms: C_2  and  C_3
REMARK    3  A    between atoms: C_2  and  C_14
REMARK    4  A    between atoms: C_3  and  N_4
REMARK    5  A    between atoms: N_4  and  C_5
REMARK    6  A    between atoms: C_8  and  C_9
REMARK                            x       y       z     vdW  Elec       q    Type
REMARK                         _______ _______ _______ _____ _____    ______ ____
ROOT
ATOM      1  N   UNL     1      44.976   5.693  11.011  0.00  0.00    +0.000 N 
ATOM      2  H   UNL     1      44.063   5.243  11.040  0.00  0.00    +0.000 HD
ENDROOT
BRANCH   1   3
ATOM      3  C   UNL     1      45.676   5.506  12.212  0.00  0.00    +0.000 A 
ATOM      4  C   UNL     1      46.859   6.216  12.440  0.00  0.00    +0.000 A 
ATOM      5  C   UNL     1      47.584   6.028  13.618  0.00  0.00    +0.000 A 
ATOM      6  C   UNL     1      47.114   5.096  14.532  0.00  0.00    +0.000 A 
ATOM      7  N   UNL     1      46.008   4.332  14.331  0.00  0.00    +0.000 NA
ATOM      8  C   UNL     1      45.343   4.545  13.172  0.00  0.00    +0.000 A 
BRANCH   6   9
ATOM      9  C   UNL     1      47.824   4.891  15.833  0.00  0.00    +0.000 C 
ATOM     10  N   UNL     1      48.018   6.029  16.570  0.00  0.00    +0.000 N 
ATOM     11  O   UNL     1      48.216   3.795  16.214  0.00  0.00    +0.000 OA
ATOM     12  H   UNL     1      47.681   6.915  16.209  0.00  0.00    +0.000 HD
ATOM     13  H   UNL     1      48.503   5.981  17.453  0.00  0.00    +0.000 HD
ENDBRANCH   6   9
ENDBRANCH   1   3
BRANCH   1  14
ATOM     14  C   UNL     1      45.686   5.375   9.776  0.00  0.00    +0.000 C 
BRANCH  14  16
ATOM     15  C   UNL     1      44.008   3.447  10.008  0.00  0.00    +0.000 C 
ATOM     16  C   UNL     1      45.169   4.060   9.288  0.00  0.00    +0.000 C 
BRANCH  16  17
ATOM     17  C   UNL     1      45.895   3.275   8.277  0.00  0.00    +0.000 A 
ATOM     18  C   UNL     1      46.515   3.881   7.176  0.00  0.00    +0.000 A 
ATOM     19  C   UNL     1      47.169   3.108   6.210  0.00  0.00    +0.000 A 
ATOM     20  C   UNL     1      47.218   1.721   6.340  0.00  0.00    +0.000 A 
ATOM     21  C   UNL     1      46.616   1.116   7.437  0.00  0.00    +0.000 A 
ATOM     22 CL   UNL     1      46.681  -0.596   7.616  0.00  0.00    +0.000 Cl
ATOM     23  C   UNL     1      45.959   1.880   8.398  0.00  0.00    +0.000 A 
ENDBRANCH  16  17
ENDBRANCH  14  16
ENDBRANCH   1  14
TORSDOF 5
ENDMDL
MODEL 6
REMARK VINA RESULT:    -6.492      4.117      6.401
REMARK INTER + INTRA:          -9.130
REMARK INTER:                  -8.814
REMARK INTRA:                  -0.316
REMARK UNBOUND:                -0.741
REMARK  Name = 
REMARK  6 active torsions:
REMARK  status: ('A' for Active; 'I' for Inactive)
REMARK    1  A    between atoms: C_1  and  C_2
REMARK    2  A    between atoms: C_2  and  C_3
REMARK    3  A    between atoms: C_2  and  C_14
REMARK    4  A    between atoms: C_3  and  N_4
REMARK    5  A    between atoms: N_4  and  C_5
REMARK    6  A    between atoms: C_8  and  C_9
REMARK                            x       y       z     vdW  Elec       q    Type
REMARK                         _______ _______ _______ _____ _____    ______ ____
ROOT
ATOM      1  N   UNL     1      46.395   5.832  11.603  0.00  0.00    +0.000 N 
ATOM      2  H   UNL     1      47.172   6.396  11.263  0.00  0.00    +0.000 HD
ENDROOT
BRANCH   1   3
ATOM      3  C   UNL     1      46.672   5.291  12.867  0.00  0.00    +0.000 A 
ATOM      4  C   UNL     1      47.235   6.102  13.858  0.00  0.00    +0.000 A 
ATOM      5  C   UNL     1      47.540   5.578  15.115  0.00  0.00    +0.000 A 
ATOM      6  C   UNL     1      47.300   4.229  15.337  0.00  0.00    +0.000 A 
ATOM      7  N   UNL     1      46.817   3.382  14.389  0.00  0.00    +0.000 NA
ATOM      8  C   UNL     1      46.543   3.934  13.185  0.00  0.00    +0.000 A 
BRANCH   6   9
ATOM      9  C   UNL     1      47.561   3.627  16.682  0.00  0.00    +0.000 C 
ATOM     10  N   UNL     1      48.871   3.647  17.078  0.00  0.00    +0.000 N 
ATOM     11  O   UNL     1      46.678   3.142  17.377  0.00  0.00    +0.000 OA
ATOM     12  H   UNL     1      49.568   4.054  16.464  0.00  0.00    +0.000 HD
ATOM     13  H   UNL     1      49.136   3.247  17.966  0.00  0.00    +0.000 HD
ENDBRANCH   6   9
ENDBRANCH   1   3
BRANCH   1  14
ATOM     14  C   UNL     1      45.123   6.529  11.446  0.00  0.00    +0.000 C 
BRANCH  14  16
ATOM     15  C   UNL     1      42.743   5.573  11.530  0.00  0.00    +0.000 C 
ATOM     16  C   UNL     1      44.124   5.534  10.951  0.00  0.00    +0.000 C 
BRANCH  16  17
ATOM     17  C   UNL     1      44.521   4.409  10.088  0.00  0.00    +0.000 A 
ATOM     18  C   UNL     1      44.124   3.093  10.361  0.00  0.00    +0.000 A 
ATOM     19  C   UNL     1      44.545   2.037   9.544  0.00  0.00    +0.000 A 
ATOM     20  C   UNL     1      45.360   2.288   8.441  0.00  0.00    +0.000 A 
ATOM     21  C   UNL     1      45.744   3.594   8.158  0.00  0.00    +0.000 A 
ATOM     22 CL   UNL     1      46.739   3.919   6.790  0.00  0.00    +0.000 Cl
ATOM     23  C   UNL     1      45.333   4.647   8.971  0.00  0.00    +0.000 A 
ENDBRANCH  16  17
ENDBRANCH  14  16
ENDBRANCH   1  14
TORSDOF 5
ENDMDL
MODEL 7
REMARK VINA RESULT:    -6.316      1.519      2.077
REMARK INTER + INTRA:          -8.903
REMARK INTER:                  -8.358
REMARK INTRA:                  -0.545
REMARK UNBOUND:                -0.741
REMARK  Name = 
REMARK  6 active torsions:
REMARK  status: ('A' for Active; 'I' for Inactive)
REMARK    1  A    between atoms: C_1  and  C_2
REMARK    2  A    between atoms: C_2  and  C_3
REMARK    3  A    between atoms: C_2  and  C_14
REMARK    4  A    between atoms: C_3  and  N_4
REMARK    5  A    between atoms: N_4  and  C_5
REMARK    6  A    between atoms: C_8  and  C_9
REMARK                            x       y       z     vdW  Elec       q    Type
REMARK                         _______ _______ _______ _____ _____    ______ ____
ROOT
ATOM      1  N   UNL     1      44.327   4.579  10.871  0.00  0.00    +0.000 N 
ATOM      2  H   UNL     1      43.530   5.160  10.617  0.00  0.00    +0.000 HD
ENDROOT
BRANCH   1   3
ATOM      3  C   UNL     1      45.008   4.120   9.734  0.00  0.00    +0.000 A 
ATOM      4  C   UNL     1      45.055   2.749   9.462  0.00  0.00    +0.000 A 
ATOM      5  C   UNL     1      45.747   2.269   8.349  0.00  0.00    +0.000 A 
ATOM      6  C   UNL     1      46.411   3.187   7.547  0.00  0.00    +0.000 A 
ATOM      7  N   UNL     1      46.453   4.522   7.802  0.00  0.00    +0.000 NA
ATOM      8  C   UNL     1      45.774   4.938   8.896  0.00  0.00    +0.000 A 
BRANCH   6   9
ATOM      9  C   UNL     1      47.125   2.732   6.313  0.00  0.00    +0.000 C 
ATOM     10  N   UNL     1      48.476   2.559   6.459  0.00  0.00    +0.000 N 
ATOM     11  O   UNL     1      46.556   2.539   5.247  0.00  0.00    +0.000 OA
ATOM     12  H   UNL     1      48.903   2.739   7.362  0.00  0.00    +0.000 HD
ATOM     13  H   UNL     1      49.035   2.269   5.671  0.00  0.00    +0.000 HD
ENDBRANCH   6   9
ENDBRANCH   1   3
BRANCH   1  14
ATOM     14  C   UNL     1      45.131   5.206  11.915  0.00  0.00    +0.000 C 
BRANCH  14  16
ATOM     15  C   UNL     1      43.611   7.188  11.327  0.00  0.00    +0.000 C 
ATOM     16  C   UNL     1      44.939   6.684  11.801  0.00  0.00    +0.000 C 
BRANCH  16  17
ATOM     17  C   UNL     1      46.068   7.619  11.935  0.00  0.00    +0.000 A 
ATOM     18  C   UNL     1      45.875   8.967  12.263  0.00  0.00    +0.000 A 
ATOM     19  C   UNL     1      46.963   9.844  12.350  0.00  0.00    +0.000 A 
ATOM     20  C   UNL     1      48.256   9.378  12.118  0.00  0.00    +0.000 A 
ATOM     21  C   UNL     1      48.454   8.038  11.806  0.00  0.00    +0.000 A 
ATOM     22 CL   UNL     1      50.048   7.446  11.532  0.00  0.00    +0.000 Cl
ATOM     23  C   UNL     1      47.374   7.163  11.713  0.00  0.00    +0.000 A 
ENDBRANCH  16  17
ENDBRANCH  14  16
ENDBRANCH   1  14
TORSDOF 5
ENDMDL
MODEL 8
REMARK VINA RESULT:    -6.205      4.449      6.766
REMARK INTER + INTRA:          -8.759
REMARK INTER:                  -8.304
REMARK INTRA:                  -0.455
REMARK UNBOUND:                -0.741
REMARK  Name = 
REMARK  6 active torsions:
REMARK  status: ('A' for Active; 'I' for Inactive)
REMARK    1  A    between atoms: C_1  and  C_2
REMARK    2  A    between atoms: C_2  and  C_3
REMARK    3  A    between atoms: C_2  and  C_14
REMARK    4  A    between atoms: C_3  and  N_4
REMARK    5  A    between atoms: N_4  and  C_5
REMARK    6  A    between atoms: C_8  and  C_9
REMARK                            x       y       z     vdW  Elec       q    Type
REMARK                         _______ _______ _______ _____ _____    ______ ____
ROOT
ATOM      1  N   UNL     1      46.948   7.098  12.804  0.00  0.00    +0.000 N 
ATOM      2  H   UNL     1      46.086   7.624  12.939  0.00  0.00    +0.000 HD
ENDROOT
BRANCH   1   3
ATOM      3  C   UNL     1      47.196   6.238  13.884  0.00  0.00    +0.000 A 
ATOM      4  C   UNL     1      48.203   6.552  14.802  0.00  0.00    +0.000 A 
ATOM      5  C   UNL     1      48.481   5.698  15.870  0.00  0.00    +0.000 A 
ATOM      6  C   UNL     1      47.756   4.519  15.970  0.00  0.00    +0.000 A 
ATOM      7  N   UNL     1      46.813   4.133  15.070  0.00  0.00    +0.000 NA
ATOM      8  C   UNL     1      46.583   4.991  14.048  0.00  0.00    +0.000 A 
BRANCH   6   9
ATOM      9  C   UNL     1      47.979   3.592  17.123  0.00  0.00    +0.000 C 
ATOM     10  N   UNL     1      46.867   2.908  17.537  0.00  0.00    +0.000 N 
ATOM     11  O   UNL     1      49.066   3.457  17.670  0.00  0.00    +0.000 OA
ATOM     12  H   UNL     1      45.987   3.058  17.056  0.00  0.00    +0.000 HD
ATOM     13  H   UNL     1      46.928   2.274  18.319  0.00  0.00    +0.000 HD
ENDBRANCH   6   9
ENDBRANCH   1   3
BRANCH   1  14
ATOM     14  C   UNL     1      47.012   6.517  11.467  0.00  0.00    +0.000 C 
BRANCH  14  16
ATOM     15  C   UNL     1      44.535   7.188  11.501  0.00  0.00    +0.000 C 
ATOM     16  C   UNL     1      45.608   6.259  11.023  0.00  0.00    +0.000 C 
BRANCH  16  17
ATOM     17  C   UNL     1      45.239   5.019  10.323  0.00  0.00    +0.000 A 
ATOM     18  C   UNL     1      44.441   4.038  10.927  0.00  0.00    +0.000 A 
ATOM     19  C   UNL     1      44.134   2.851  10.252  0.00  0.00    +0.000 A 
ATOM     20  C   UNL     1      44.614   2.637   8.960  0.00  0.00    +0.000 A 
ATOM     21  C   UNL     1      45.394   3.613   8.351  0.00  0.00    +0.000 A 
ATOM     22 CL   UNL     1      45.981   3.367   6.751  0.00  0.00    +0.000 Cl
ATOM     23  C   UNL     1      45.707   4.793   9.021  0.00  0.00    +0.000 A 
ENDBRANCH  16  17
ENDBRANCH  14  16
ENDBRANCH   1  14
TORSDOF 5
ENDMDL
MODEL 9
REMARK VINA RESULT:    -6.101      3.743      6.528
REMARK INTER + INTRA:          -8.624
REMARK INTER:                  -7.853
REMARK INTRA:                  -0.771
REMARK UNBOUND:                -0.741
REMARK  Name = 
REMARK  6 active torsions:
REMARK  status: ('A' for Active; 'I' for Inactive)
REMARK    1  A    between atoms: C_1  and  C_2
REMARK    2  A    between atoms: C_2  and  C_3
REMARK    3  A    between atoms: C_2  and  C_14
REMARK    4  A    between atoms: C_3  and  N_4
REMARK    5  A    between atoms: N_4  and  C_5
REMARK    6  A    between atoms: C_8  and  C_9
REMARK                            x       y       z     vdW  Elec       q    Type
REMARK                         _______ _______ _______ _____ _____    ______ ____
ROOT
ATOM      1  N   UNL     1      44.990   5.008  13.173  0.00  0.00    +0.000 N 
ATOM      2  H   UNL     1      45.044   4.816  14.172  0.00  0.00    +0.000 HD
ENDROOT
BRANCH   1   3
ATOM      3  C   UNL     1      45.804   6.094  12.818  0.00  0.00    +0.000 A 
ATOM      4  C   UNL     1      47.194   5.938  12.797  0.00  0.00    +0.000 A 
ATOM      5  C   UNL     1      48.023   7.012  12.469  0.00  0.00    +0.000 A 
ATOM      6  C   UNL     1      47.430   8.237  12.201  0.00  0.00    +0.000 A 
ATOM      7  N   UNL     1      46.091   8.460  12.271  0.00  0.00    +0.000 NA
ATOM      8  C   UNL     1      45.329   7.391  12.599  0.00  0.00    +0.000 A 
BRANCH   6   9
ATOM      9  C   UNL     1      48.269   9.409  11.795  0.00  0.00    +0.000 C 
ATOM     10  N   UNL     1      47.611  10.609  11.772  0.00  0.00    +0.000 N 
ATOM     11  O   UNL     1      49.452   9.309  11.493  0.00  0.00    +0.000 OA
ATOM     12  H   UNL     1      46.629  10.640  12.024  0.00  0.00    +0.000 HD
ATOM     13  H   UNL     1      48.100  11.447  11.494  0.00  0.00    +0.000 HD
ENDBRANCH   6   9
ENDBRANCH   1   3
BRANCH   1  14
ATOM     14  C   UNL     1      45.138   3.787  12.388  0.00  0.00    +0.000 C 
BRANCH  14  16
ATOM     15  C   UNL     1      43.042   4.398  11.039  0.00  0.00    +0.000 C 
ATOM     16  C   UNL     1      44.492   4.026  11.061  0.00  0.00    +0.000 C 
BRANCH  16  17
ATOM     17  C   UNL     1      45.180   3.702   9.801  0.00  0.00    +0.000 A 
ATOM     18  C   UNL     1      45.563   4.696   8.891  0.00  0.00    +0.000 A 
ATOM     19  C   UNL     1      46.184   4.358   7.683  0.00  0.00    +0.000 A 
ATOM     20  C   UNL     1      46.437   3.021   7.377  0.00  0.00    +0.000 A 
ATOM     21  C   UNL     1      46.071   2.032   8.283  0.00  0.00    +0.000 A 
ATOM     22 CL   UNL     1      46.390   0.378   7.923  0.00  0.00    +0.000 Cl
ATOM     23  C   UNL     1      45.447   2.363   9.483  0.00  0.00    +0.000 A 
ENDBRANCH  16  17
ENDBRANCH  14  16
ENDBRANCH   1  14
TORSDOF 5
ENDMDL
