MODEL 1
REMARK VINA RESULT:    -7.691      0.000      0.000
REMARK INTER + INTRA:         -12.181
REMARK INTER:                 -11.512
REMARK INTRA:                  -0.669
REMARK UNBOUND:                -0.669
REMARK  Name = 
REMARK  11 active torsions:
REMARK  status: ('A' for Active; 'I' for Inactive)
REMARK    1  A    between atoms: C_1  and  C_2
REMARK    2  A    between atoms: C_2  and  C_3
REMARK    3  A    between atoms: C_2  and  N_5
REMARK    4  A    between atoms: C_6  and  C_8
REMARK    5  A    between atoms: C_8  and  O_9
REMARK    6  A    between atoms: C_8  and  C_10
REMARK    7  A    between atoms: C_13  and  O_14
REMARK    8  A    between atoms: O_14  and  C_15
REMARK    9  A    between atoms: C_15  and  C_16
REMARK   10  A    between atoms: C_16  and  C_19
REMARK   11  A    between atoms: C_23  and  C_24
REMARK                            x       y       z     vdW  Elec       q    Type
REMARK                         _______ _______ _______ _____ _____    ______ ____
ROOT
ATOM      1  C   UNL     1      45.536   4.708  12.496  0.00  0.00    +0.000 A 
ATOM      2  C   UNL     1      46.109   4.383  13.732  0.00  0.00    +0.000 A 
ATOM      3  C   UNL     1      47.200   5.092  14.238  0.00  0.00    +0.000 A 
ATOM      4  C   UNL     1      47.730   6.182  13.554  0.00  0.00    +0.000 A 
ATOM      5  C   UNL     1      47.140   6.558  12.346  0.00  0.00    +0.000 A 
ATOM      6  C   UNL     1      46.059   5.826  11.819  0.00  0.00    +0.000 A 
ENDROOT
BRANCH   1   7
ATOM      7  C   UNL     1      44.442   3.854  11.853  0.00  0.00    +0.000 C 
BRANCH   7   9
ATOM      8  N   UNL     1      45.424   2.858   9.793  0.00  0.00    +0.000 N 
ATOM      9  C   UNL     1      44.522   3.764  10.308  0.00  0.00    +0.000 C 
ATOM     10  O   UNL     1      43.817   4.462   9.578  0.00  0.00    +0.000 OA
ATOM     11  H   UNL     1      45.977   2.288  10.421  0.00  0.00    +0.000 HD
BRANCH   8  13
ATOM     12  C   UNL     1      46.290   1.344   8.061  0.00  0.00    +0.000 C 
ATOM     13  C   UNL     1      45.575   2.656   8.371  0.00  0.00    +0.000 C 
ATOM     14  C   UNL     1      46.250   3.838   7.674  0.00  0.00    +0.000 C 
ATOM     15  F   UNL     1      44.312   2.555   7.863  0.00  0.00    +0.000 F 
ENDBRANCH   8  13
ENDBRANCH   7   9
BRANCH   7  16
ATOM     16  O   UNL     1      44.403   2.562  12.451  0.00  0.00    +0.000 OA
ATOM     17  H   UNL     1      44.020   1.959  11.788  0.00  0.00    +0.000 HD
ENDBRANCH   7  16
ENDBRANCH   1   7
BRANCH   4  18
ATOM     18  O   UNL     1      48.807   6.919  13.985  0.00  0.00    +0.000 OA
BRANCH  18  19
ATOM     19  C   UNL     1      48.664   7.478  15.306  0.00  0.00    +0.000 C 
BRANCH  19  20
ATOM     20  C   UNL     1      49.793   7.081  16.256  0.00  0.00    +0.000 C 
ATOM     21  F   UNL     1      50.935   6.892  15.520  0.00  0.00    +0.000 F 
ATOM     22  F   UNL     1      50.074   8.171  17.041  0.00  0.00    +0.000 F 
BRANCH  20  23
ATOM     23  C   UNL     1      49.423   5.874  17.098  0.00  0.00    +0.000 A 
ATOM     24  C   UNL     1      48.649   6.040  18.231  0.00  0.00    +0.000 A 
ATOM     25  C   UNL     1      48.337   4.901  18.939  0.00  0.00    +0.000 A 
ATOM     26  N   UNL     1      48.744   3.671  18.593  0.00  0.00    +0.000 NA
ATOM     27  C   UNL     1      49.505   3.606  17.466  0.00  0.00    +0.000 A 
ATOM     28  N   UNL     1      49.854   4.654  16.700  0.00  0.00    +0.000 NA
BRANCH  27  29
ATOM     29  C   UNL     1      50.000   2.240  17.073  0.00  0.00    +0.000 C 
ATOM     30  N   UNL     1      50.946   1.676  17.900  0.00  0.00    +0.000 N 
ATOM     31  O   UNL     1      49.607   1.639  16.078  0.00  0.00    +0.000 OA
ATOM     32  H   UNL     1      51.263   2.171  18.726  0.00  0.00    +0.000 HD
ATOM     33  H   UNL     1      51.308   0.761  17.678  0.00  0.00    +0.000 HD
ENDBRANCH  27  29
ENDBRANCH  20  23
ENDBRANCH  19  20
ENDBRANCH  18  19
ENDBRANCH   4  18
TORSDOF 9
ENDMDL
MODEL 2
REMARK VINA RESULT:    -7.306      2.147      2.937
REMARK INTER + INTRA:         -11.605
REMARK INTER:                 -11.721
REMARK INTRA:                   0.116
REMARK UNBOUND:                -0.669
REMARK  Name = 
REMARK  11 active torsions:
REMARK  status: ('A' for Active; 'I' for Inactive)
REMARK    1  A    between atoms: C_1  and  C_2
REMARK    2  A    between atoms: C_2  and  C_3
REMARK    3  A    between atoms: C_2  and  N_5
REMARK    4  A    between atoms: C_6  and  C_8
REMARK    5  A    between atoms: C_8  and  O_9
REMARK    6  A    between atoms: C_8  and  C_10
REMARK    7  A    between atoms: C_13  and  O_14
REMARK    8  A    between atoms: O_14  and  C_15
REMARK    9  A    between atoms: C_15  and  C_16
REMARK   10  A    between atoms: C_16  and  C_19
REMARK   11  A    between atoms: C_23  and  C_24
REMARK                            x       y       z     vdW  Elec       q    Type
REMARK                         _______ _______ _______ _____ _____    ______ ____
ROOT
ATOM      1  C   UNL     1      44.995   3.890  10.544  0.00  0.00    +0.000 A 
ATOM      2  C   UNL     1      45.252   5.198  10.117  0.00  0.00    +0.000 A 
ATOM      3  C   UNL     1      45.608   6.202  11.019  0.00  0.00    +0.000 A 
ATOM      4  C   UNL     1      45.769   5.928  12.375  0.00  0.00    +0.000 A 
ATOM      5  C   UNL     1      45.571   4.618  12.814  0.00  0.00    +0.000 A 
ATOM      6  C   UNL     1      45.182   3.611  11.911  0.00  0.00    +0.000 A 
ENDROOT
BRANCH   1   7
ATOM      7  C   UNL     1      44.458   2.813   9.600  0.00  0.00    +0.000 C 
BRANCH   7   9
ATOM      8  N   UNL     1      45.987   2.987   7.643  0.00  0.00    +0.000 N 
ATOM      9  C   UNL     1      45.523   2.187   8.665  0.00  0.00    +0.000 C 
ATOM     10  O   UNL     1      45.935   1.037   8.825  0.00  0.00    +0.000 OA
ATOM     11  H   UNL     1      45.639   3.933   7.548  0.00  0.00    +0.000 HD
BRANCH   8  13
ATOM     12  C   UNL     1      46.742   3.042   5.304  0.00  0.00    +0.000 C 
ATOM     13  C   UNL     1      47.001   2.534   6.720  0.00  0.00    +0.000 C 
ATOM     14  C   UNL     1      47.187   1.016   6.744  0.00  0.00    +0.000 C 
ATOM     15  F   UNL     1      48.175   3.092   7.138  0.00  0.00    +0.000 F 
ENDBRANCH   8  13
ENDBRANCH   7   9
BRANCH   7  16
ATOM     16  O   UNL     1      43.754   1.814  10.333  0.00  0.00    +0.000 OA
ATOM     17  H   UNL     1      43.648   2.156  11.239  0.00  0.00    +0.000 HD
ENDBRANCH   7  16
ENDBRANCH   1   7
BRANCH   4  18
ATOM     18  O   UNL     1      46.107   6.866  13.321  0.00  0.00    +0.000 OA
BRANCH  18  19
ATOM     19  C   UNL     1      47.222   7.707  12.963  0.00  0.00    +0.000 C 
BRANCH  19  20
ATOM     20  C   UNL     1      48.570   7.148  13.418  0.00  0.00    +0.000 C 
ATOM     21  F   UNL     1      48.967   6.187  12.524  0.00  0.00    +0.000 F 
ATOM     22  F   UNL     1      49.500   8.147  13.276  0.00  0.00    +0.000 F 
BRANCH  20  23
ATOM     23  C   UNL     1      48.517   6.642  14.848  0.00  0.00    +0.000 A 
ATOM     24  C   UNL     1      48.751   7.517  15.893  0.00  0.00    +0.000 A 
ATOM     25  C   UNL     1      48.671   6.996  17.165  0.00  0.00    +0.000 A 
ATOM     26  N   UNL     1      48.391   5.711  17.430  0.00  0.00    +0.000 NA
ATOM     27  C   UNL     1      48.179   4.925  16.338  0.00  0.00    +0.000 A 
ATOM     28  N   UNL     1      48.222   5.338  15.060  0.00  0.00    +0.000 NA
BRANCH  27  29
ATOM     29  C   UNL     1      47.892   3.472  16.608  0.00  0.00    +0.000 C 
ATOM     30  N   UNL     1      46.764   3.203  17.350  0.00  0.00    +0.000 N 
ATOM     31  O   UNL     1      48.605   2.557  16.208  0.00  0.00    +0.000 OA
ATOM     32  H   UNL     1      46.172   3.960  17.673  0.00  0.00    +0.000 HD
ATOM     33  H   UNL     1      46.530   2.244  17.557  0.00  0.00    +0.000 HD
ENDBRANCH  27  29
ENDBRANCH  20  23
ENDBRANCH  19  20
ENDBRANCH  18  19
ENDBRANCH   4  18
TORSDOF 9
ENDMDL
MODEL 3
REMARK VINA RESULT:    -7.189      2.708      8.877
REMARK INTER + INTRA:         -11.430
REMARK INTER:                 -10.906
REMARK INTRA:                  -0.524
REMARK UNBOUND:                -0.669
REMARK  Name = 
REMARK  11 active torsions:
REMARK  status: ('A' for Active; 'I' for Inactive)
REMARK    1  A    between atoms: C_1  and  C_2
REMARK    2  A    between atoms: C_2  and  C_3
REMARK    3  A    between atoms: C_2  and  N_5
REMARK    4  A    between atoms: C_6  and  C_8
REMARK    5  A    between atoms: C_8  and  O_9
REMARK    6  A    between atoms: C_8  and  C_10
REMARK    7  A    between atoms: C_13  and  O_14
REMARK    8  A    between atoms: O_14  and  C_15
REMARK    9  A    between atoms: C_15  and  C_16
REMARK   10  A    between atoms: C_16  and  C_19
REMARK   11  A    between atoms: C_23  and  C_24
REMARK                            x       y       z     vdW  Elec       q    Type
REMARK                         _______ _______ _______ _____ _____    ______ ____
ROOT
ATOM      1  C   UNL     1      47.974   6.605  13.815  0.00  0.00    +0.000 A 
ATOM      2  C   UNL     1      47.549   5.437  14.459  0.00  0.00    +0.000 A 
ATOM      3  C   UNL     1      46.403   4.754  14.048  0.00  0.00    +0.000 A 
ATOM      4  C   UNL     1      45.663   5.184  12.950  0.00  0.00    +0.000 A 
ATOM      5  C   UNL     1      46.100   6.316  12.259  0.00  0.00    +0.000 A 
ATOM      6  C   UNL     1      47.239   7.023  12.690  0.00  0.00    +0.000 A 
ENDROOT
BRANCH   1   7
ATOM      7  C   UNL     1      49.136   7.451  14.339  0.00  0.00    +0.000 C 
BRANCH   7   9
ATOM      8  N   UNL     1      48.540   7.852  16.723  0.00  0.00    +0.000 N 
ATOM      9  C   UNL     1      49.433   7.270  15.849  0.00  0.00    +0.000 C 
ATOM     10  O   UNL     1      50.413   6.640  16.249  0.00  0.00    +0.000 OA
ATOM     11  H   UNL     1      47.735   8.350  16.363  0.00  0.00    +0.000 HD
BRANCH   8  13
ATOM     12  C   UNL     1      47.489   8.322  18.895  0.00  0.00    +0.000 C 
ATOM     13  C   UNL     1      48.687   7.734  18.155  0.00  0.00    +0.000 C 
ATOM     14  C   UNL     1      50.003   8.323  18.665  0.00  0.00    +0.000 C 
ATOM     15  F   UNL     1      48.710   6.396  18.428  0.00  0.00    +0.000 F 
ENDBRANCH   8  13
ENDBRANCH   7   9
BRANCH   7  16
ATOM     16  O   UNL     1      50.302   7.241  13.548  0.00  0.00    +0.000 OA
ATOM     17  H   UNL     1      50.426   8.047  13.015  0.00  0.00    +0.000 HD
ENDBRANCH   7  16
ENDBRANCH   1   7
BRANCH   4  18
ATOM     18  O   UNL     1      44.521   4.570  12.495  0.00  0.00    +0.000 OA
BRANCH  18  19
ATOM     19  C   UNL     1      44.712   3.227  12.008  0.00  0.00    +0.000 C 
BRANCH  19  20
ATOM     20  C   UNL     1      44.039   2.972  10.660  0.00  0.00    +0.000 C 
ATOM     21  F   UNL     1      43.477   1.722  10.684  0.00  0.00    +0.000 F 
ATOM     22  F   UNL     1      42.967   3.823  10.566  0.00  0.00    +0.000 F 
BRANCH  20  23
ATOM     23  C   UNL     1      45.002   3.167   9.503  0.00  0.00    +0.000 A 
ATOM     24  C   UNL     1      45.268   4.443   9.041  0.00  0.00    +0.000 A 
ATOM     25  C   UNL     1      46.163   4.550   8.000  0.00  0.00    +0.000 A 
ATOM     26  N   UNL     1      46.768   3.500   7.425  0.00  0.00    +0.000 NA
ATOM     27  C   UNL     1      46.442   2.284   7.944  0.00  0.00    +0.000 A 
ATOM     28  N   UNL     1      45.591   2.075   8.963  0.00  0.00    +0.000 NA
BRANCH  27  29
ATOM     29  C   UNL     1      47.085   1.087   7.295  0.00  0.00    +0.000 C 
ATOM     30  N   UNL     1      46.664  -0.145   7.743  0.00  0.00    +0.000 N 
ATOM     31  O   UNL     1      47.938   1.172   6.418  0.00  0.00    +0.000 OA
ATOM     32  H   UNL     1      45.953  -0.212   8.462  0.00  0.00    +0.000 HD
ATOM     33  H   UNL     1      47.066  -0.977   7.337  0.00  0.00    +0.000 HD
ENDBRANCH  27  29
ENDBRANCH  20  23
ENDBRANCH  19  20
ENDBRANCH  18  19
ENDBRANCH   4  18
TORSDOF 9
ENDMDL
MODEL 4
REMARK VINA RESULT:    -7.066      2.214      2.705
REMARK INTER + INTRA:         -11.246
REMARK INTER:                 -11.031
REMARK INTRA:                  -0.215
REMARK UNBOUND:                -0.669
REMARK  Name = 
REMARK  11 active torsions:
REMARK  status: ('A' for Active; 'I' for Inactive)
REMARK    1  A    between atoms: C_1  and  C_2
REMARK    2  A    between atoms: C_2  and  C_3
REMARK    3  A    between atoms: C_2  and  N_5
REMARK    4  A    between atoms: C_6  and  C_8
REMARK    5  A    between atoms: C_8  and  O_9
REMARK    6  A    between atoms: C_8  and  C_10
REMARK    7  A    between atoms: C_13  and  O_14
REMARK    8  A    between atoms: O_14  and  C_15
REMARK    9  A    between atoms: C_15  and  C_16
REMARK   10  A    between atoms: C_16  and  C_19
REMARK   11  A    between atoms: C_23  and  C_24
REMARK                            x       y       z     vdW  Elec       q    Type
REMARK                         _______ _______ _______ _____ _____    ______ ____
ROOT
ATOM      1  C   UNL     1      45.425   5.230  11.947  0.00  0.00    +0.000 A 
ATOM      2  C   UNL     1      45.531   3.960  12.525  0.00  0.00    +0.000 A 
ATOM      3  C   UNL     1      46.410   3.711  13.581  0.00  0.00    +0.000 A 
ATOM      4  C   UNL     1      47.182   4.731  14.131  0.00  0.00    +0.000 A 
ATOM      5  C   UNL     1      47.051   6.018  13.606  0.00  0.00    +0.000 A 
ATOM      6  C   UNL     1      46.188   6.265  12.522  0.00  0.00    +0.000 A 
ENDROOT
BRANCH   1   7
ATOM      7  C   UNL     1      44.584   5.491  10.696  0.00  0.00    +0.000 C 
BRANCH   7   9
ATOM      8  N   UNL     1      45.549   4.289   8.741  0.00  0.00    +0.000 N 
ATOM      9  C   UNL     1      44.548   4.315   9.689  0.00  0.00    +0.000 C 
ATOM     10  O   UNL     1      43.674   3.447   9.731  0.00  0.00    +0.000 OA
ATOM     11  H   UNL     1      46.262   5.007   8.743  0.00  0.00    +0.000 HD
BRANCH   8  13
ATOM     12  C   UNL     1      45.875   1.873   8.420  0.00  0.00    +0.000 C 
ATOM     13  C   UNL     1      45.646   3.231   7.762  0.00  0.00    +0.000 C 
ATOM     14  C   UNL     1      46.696   3.515   6.687  0.00  0.00    +0.000 C 
ATOM     15  F   UNL     1      44.433   3.175   7.138  0.00  0.00    +0.000 F 
ENDBRANCH   8  13
ENDBRANCH   7   9
BRANCH   7  16
ATOM     16  O   UNL     1      43.271   5.910  11.057  0.00  0.00    +0.000 OA
ATOM     17  H   UNL     1      43.116   6.759  10.605  0.00  0.00    +0.000 HD
ENDBRANCH   7  16
ENDBRANCH   1   7
BRANCH   4  18
ATOM     18  O   UNL     1      48.074   4.559  15.162  0.00  0.00    +0.000 OA
BRANCH  18  19
ATOM     19  C   UNL     1      47.534   4.811  16.474  0.00  0.00    +0.000 C 
BRANCH  19  20
ATOM     20  C   UNL     1      48.125   3.905  17.555  0.00  0.00    +0.000 C 
ATOM     21  F   UNL     1      47.567   4.246  18.760  0.00  0.00    +0.000 F 
ATOM     22  F   UNL     1      47.670   2.632  17.320  0.00  0.00    +0.000 F 
BRANCH  20  23
ATOM     23  C   UNL     1      49.641   3.957  17.567  0.00  0.00    +0.000 A 
ATOM     24  C   UNL     1      50.286   5.171  17.414  0.00  0.00    +0.000 A 
ATOM     25  C   UNL     1      51.662   5.149  17.452  0.00  0.00    +0.000 A 
ATOM     26  N   UNL     1      52.387   4.033  17.618  0.00  0.00    +0.000 NA
ATOM     27  C   UNL     1      51.666   2.886  17.756  0.00  0.00    +0.000 A 
ATOM     28  N   UNL     1      50.325   2.803  17.746  0.00  0.00    +0.000 NA
BRANCH  27  29
ATOM     29  C   UNL     1      52.458   1.615  17.914  0.00  0.00    +0.000 C 
ATOM     30  N   UNL     1      52.128   0.585  17.063  0.00  0.00    +0.000 N 
ATOM     31  O   UNL     1      53.348   1.473  18.746  0.00  0.00    +0.000 OA
ATOM     32  H   UNL     1      51.397   0.707  16.371  0.00  0.00    +0.000 HD
ATOM     33  H   UNL     1      52.631  -0.287  17.130  0.00  0.00    +0.000 HD
ENDBRANCH  27  29
ENDBRANCH  20  23
ENDBRANCH  19  20
ENDBRANCH  18  19
ENDBRANCH   4  18
TORSDOF 9
ENDMDL
MODEL 5
REMARK VINA RESULT:    -7.050      3.859      8.150
REMARK INTER + INTRA:         -11.223
REMARK INTER:                 -10.691
REMARK INTRA:                  -0.532
REMARK UNBOUND:                -0.669
REMARK  Name = 
REMARK  11 active torsions:
REMARK  status: ('A' for Active; 'I' for Inactive)
REMARK    1  A    between atoms: C_1  and  C_2
REMARK    2  A    between atoms: C_2  and  C_3
REMARK    3  A    between atoms: C_2  and  N_5
REMARK    4  A    between atoms: C_6  and  C_8
REMARK    5  A    between atoms: C_8  and  O_9
REMARK    6  A    between atoms: C_8  and  C_10
REMARK    7  A    between atoms: C_13  and  O_14
REMARK    8  A    between atoms: O_14  and  C_15
REMARK    9  A    between atoms: C_15  and  C_16
REMARK   10  A    between atoms: C_16  and  C_19
REMARK   11  A    between atoms: C_23  and  C_24
REMARK                            x       y       z     vdW  Elec       q    Type
REMARK                         _______ _______ _______ _____ _____    ______ ____
ROOT
ATOM      1  C   UNL     1      47.130   6.909  13.505  0.00  0.00    +0.000 A 
ATOM      2  C   UNL     1      47.508   5.619  13.897  0.00  0.00    +0.000 A 
ATOM      3  C   UNL     1      46.635   4.536  13.778  0.00  0.00    +0.000 A 
ATOM      4  C   UNL     1      45.369   4.690  13.219  0.00  0.00    +0.000 A 
ATOM      5  C   UNL     1      44.992   5.957  12.771  0.00  0.00    +0.000 A 
ATOM      6  C   UNL     1      45.859   7.056  12.917  0.00  0.00    +0.000 A 
ENDROOT
BRANCH   1   7
ATOM      7  C   UNL     1      48.009   8.133  13.765  0.00  0.00    +0.000 C 
BRANCH   7   9
ATOM      8  N   UNL     1      50.249   8.234  12.682  0.00  0.00    +0.000 N 
ATOM      9  C   UNL     1      48.910   8.543  12.573  0.00  0.00    +0.000 C 
ATOM     10  O   UNL     1      48.456   9.113  11.580  0.00  0.00    +0.000 OA
ATOM     11  H   UNL     1      50.588   7.751  13.505  0.00  0.00    +0.000 HD
BRANCH   8  13
ATOM     12  C   UNL     1      52.630   8.296  12.074  0.00  0.00    +0.000 C 
ATOM     13  C   UNL     1      51.190   8.536  11.629  0.00  0.00    +0.000 C 
ATOM     14  C   UNL     1      51.008   9.944  11.059  0.00  0.00    +0.000 C 
ATOM     15  F   UNL     1      50.929   7.654  10.619  0.00  0.00    +0.000 F 
ENDBRANCH   8  13
ENDBRANCH   7   9
BRANCH   7  16
ATOM     16  O   UNL     1      47.219   9.226  14.224  0.00  0.00    +0.000 OA
ATOM     17  H   UNL     1      47.839   9.941  14.455  0.00  0.00    +0.000 HD
ENDBRANCH   7  16
ENDBRANCH   1   7
BRANCH   4  18
ATOM     18  O   UNL     1      44.454   3.674  13.080  0.00  0.00    +0.000 OA
BRANCH  18  19
ATOM     19  C   UNL     1      44.812   2.670  12.109  0.00  0.00    +0.000 C 
BRANCH  19  20
ATOM     20  C   UNL     1      44.005   2.767  10.814  0.00  0.00    +0.000 C 
ATOM     21  F   UNL     1      43.240   1.635  10.694  0.00  0.00    +0.000 F 
ATOM     22  F   UNL     1      43.090   3.778  10.973  0.00  0.00    +0.000 F 
BRANCH  20  23
ATOM     23  C   UNL     1      44.896   3.012   9.611  0.00  0.00    +0.000 A 
ATOM     24  C   UNL     1      45.024   4.292   9.103  0.00  0.00    +0.000 A 
ATOM     25  C   UNL     1      45.861   4.447   8.020  0.00  0.00    +0.000 A 
ATOM     26  N   UNL     1      46.534   3.438   7.447  0.00  0.00    +0.000 NA
ATOM     27  C   UNL     1      46.342   2.214   8.012  0.00  0.00    +0.000 A 
ATOM     28  N   UNL     1      45.558   1.961   9.074  0.00  0.00    +0.000 NA
BRANCH  27  29
ATOM     29  C   UNL     1      47.063   1.061   7.367  0.00  0.00    +0.000 C 
ATOM     30  N   UNL     1      46.640  -0.198   7.729  0.00  0.00    +0.000 N 
ATOM     31  O   UNL     1      47.981   1.201   6.565  0.00  0.00    +0.000 OA
ATOM     32  H   UNL     1      45.876  -0.312   8.386  0.00  0.00    +0.000 HD
ATOM     33  H   UNL     1      47.093  -1.003   7.323  0.00  0.00    +0.000 HD
ENDBRANCH  27  29
ENDBRANCH  20  23
ENDBRANCH  19  20
ENDBRANCH  18  19
ENDBRANCH   4  18
TORSDOF 9
ENDMDL
MODEL 6
REMARK VINA RESULT:    -6.961      1.726      2.226
REMARK INTER + INTRA:         -11.088
REMARK INTER:                 -10.863
REMARK INTRA:                  -0.225
REMARK UNBOUND:                -0.669
REMARK  Name = 
REMARK  11 active torsions:
REMARK  status: ('A' for Active; 'I' for Inactive)
REMARK    1  A    between atoms: C_1  and  C_2
REMARK    2  A    between atoms: C_2  and  C_3
REMARK    3  A    between atoms: C_2  and  N_5
REMARK    4  A    between atoms: C_6  and  C_8
REMARK    5  A    between atoms: C_8  and  O_9
REMARK    6  A    between atoms: C_8  and  C_10
REMARK    7  A    between atoms: C_13  and  O_14
REMARK    8  A    between atoms: O_14  and  C_15
REMARK    9  A    between atoms: C_15  and  C_16
REMARK   10  A    between atoms: C_16  and  C_19
REMARK   11  A    between atoms: C_23  and  C_24
REMARK                            x       y       z     vdW  Elec       q    Type
REMARK                         _______ _______ _______ _____ _____    ______ ____
ROOT
ATOM      1  C   UNL     1      45.095   6.499  11.849  0.00  0.00    +0.000 A 
ATOM      2  C   UNL     1      45.273   7.865  12.097  0.00  0.00    +0.000 A 
ATOM      3  C   UNL     1      46.403   8.344  12.762  0.00  0.00    +0.000 A 
ATOM      4  C   UNL     1      47.422   7.483  13.161  0.00  0.00    +0.000 A 
ATOM      5  C   UNL     1      47.291   6.123  12.875  0.00  0.00    +0.000 A 
ATOM      6  C   UNL     1      46.138   5.634  12.232  0.00  0.00    +0.000 A 
ENDROOT
BRANCH   1   7
ATOM      7  C   UNL     1      43.800   5.937  11.259  0.00  0.00    +0.000 C 
BRANCH   7   9
ATOM      8  N   UNL     1      44.856   4.761   9.336  0.00  0.00    +0.000 N 
ATOM      9  C   UNL     1      43.985   4.662  10.400  0.00  0.00    +0.000 C 
ATOM     10  O   UNL     1      43.387   3.614  10.652  0.00  0.00    +0.000 OA
ATOM     11  H   UNL     1      45.343   5.631   9.165  0.00  0.00    +0.000 HD
BRANCH   8  13
ATOM     12  C   UNL     1      45.283   2.341   9.266  0.00  0.00    +0.000 C 
ATOM     13  C   UNL     1      45.139   3.637   8.474  0.00  0.00    +0.000 C 
ATOM     14  C   UNL     1      46.348   3.877   7.568  0.00  0.00    +0.000 C 
ATOM     15  F   UNL     1      44.049   3.493   7.663  0.00  0.00    +0.000 F 
ENDBRANCH   8  13
ENDBRANCH   7   9
BRANCH   7  16
ATOM     16  O   UNL     1      42.831   5.741  12.285  0.00  0.00    +0.000 OA
ATOM     17  H   UNL     1      42.745   4.778  12.406  0.00  0.00    +0.000 HD
ENDBRANCH   7  16
ENDBRANCH   1   7
BRANCH   4  18
ATOM     18  O   UNL     1      48.556   7.881  13.828  0.00  0.00    +0.000 OA
BRANCH  18  19
ATOM     19  C   UNL     1      48.327   8.385  15.159  0.00  0.00    +0.000 C 
BRANCH  19  20
ATOM     20  C   UNL     1      49.488   8.117  16.115  0.00  0.00    +0.000 C 
ATOM     21  F   UNL     1      50.642   8.585  15.541  0.00  0.00    +0.000 F 
ATOM     22  F   UNL     1      49.309   8.917  17.216  0.00  0.00    +0.000 F 
BRANCH  20  23
ATOM     23  C   UNL     1      49.571   6.652  16.504  0.00  0.00    +0.000 A 
ATOM     24  C   UNL     1      50.739   6.155  17.053  0.00  0.00    +0.000 A 
ATOM     25  C   UNL     1      50.741   4.821  17.398  0.00  0.00    +0.000 A 
ATOM     26  N   UNL     1      49.692   4.004  17.225  0.00  0.00    +0.000 NA
ATOM     27  C   UNL     1      48.588   4.581  16.675  0.00  0.00    +0.000 A 
ATOM     28  N   UNL     1      48.482   5.872  16.315  0.00  0.00    +0.000 NA
BRANCH  27  29
ATOM     29  C   UNL     1      47.407   3.677  16.441  0.00  0.00    +0.000 C 
ATOM     30  N   UNL     1      47.156   3.332  15.132  0.00  0.00    +0.000 N 
ATOM     31  O   UNL     1      46.689   3.258  17.343  0.00  0.00    +0.000 OA
ATOM     32  H   UNL     1      47.756   3.673  14.389  0.00  0.00    +0.000 HD
ATOM     33  H   UNL     1      46.376   2.727  14.926  0.00  0.00    +0.000 HD
ENDBRANCH  27  29
ENDBRANCH  20  23
ENDBRANCH  19  20
ENDBRANCH  18  19
ENDBRANCH   4  18
TORSDOF 9
ENDMDL
MODEL 7
REMARK VINA RESULT:    -6.874      2.968      8.595
REMARK INTER + INTRA:         -10.959
REMARK INTER:                 -10.303
REMARK INTRA:                  -0.656
REMARK UNBOUND:                -0.669
REMARK  Name = 
REMARK  11 active torsions:
REMARK  status: ('A' for Active; 'I' for Inactive)
REMARK    1  A    between atoms: C_1  and  C_2
REMARK    2  A    between atoms: C_2  and  C_3
REMARK    3  A    between atoms: C_2  and  N_5
REMARK    4  A    between atoms: C_6  and  C_8
REMARK    5  A    between atoms: C_8  and  O_9
REMARK    6  A    between atoms: C_8  and  C_10
REMARK    7  A    between atoms: C_13  and  O_14
REMARK    8  A    between atoms: O_14  and  C_15
REMARK    9  A    between atoms: C_15  and  C_16
REMARK   10  A    between atoms: C_16  and  C_19
REMARK   11  A    between atoms: C_23  and  C_24
REMARK                            x       y       z     vdW  Elec       q    Type
REMARK                         _______ _______ _______ _____ _____    ______ ____
ROOT
ATOM      1  C   UNL     1      48.118   7.205  12.778  0.00  0.00    +0.000 A 
ATOM      2  C   UNL     1      48.089   5.869  13.194  0.00  0.00    +0.000 A 
ATOM      3  C   UNL     1      46.900   5.137  13.209  0.00  0.00    +0.000 A 
ATOM      4  C   UNL     1      45.705   5.695  12.764  0.00  0.00    +0.000 A 
ATOM      5  C   UNL     1      45.722   7.009  12.293  0.00  0.00    +0.000 A 
ATOM      6  C   UNL     1      46.913   7.759  12.305  0.00  0.00    +0.000 A 
ENDROOT
BRANCH   1   7
ATOM      7  C   UNL     1      49.374   8.070  12.896  0.00  0.00    +0.000 C 
BRANCH   7   9
ATOM      8  N   UNL     1      51.075   7.399  14.585  0.00  0.00    +0.000 N 
ATOM      9  C   UNL     1      49.958   8.164  14.328  0.00  0.00    +0.000 C 
ATOM     10  O   UNL     1      49.454   8.885  15.191  0.00  0.00    +0.000 OA
ATOM     11  H   UNL     1      51.475   6.830  13.850  0.00  0.00    +0.000 HD
BRANCH   8  13
ATOM     12  C   UNL     1      53.205   7.030  15.756  0.00  0.00    +0.000 C 
ATOM     13  C   UNL     1      51.734   7.418  15.871  0.00  0.00    +0.000 C 
ATOM     14  C   UNL     1      51.011   6.569  16.918  0.00  0.00    +0.000 C 
ATOM     15  F   UNL     1      51.692   8.713  16.302  0.00  0.00    +0.000 F 
ENDBRANCH   8  13
ENDBRANCH   7   9
BRANCH   7  16
ATOM     16  O   UNL     1      50.359   7.649  11.956  0.00  0.00    +0.000 OA
ATOM     17  H   UNL     1      50.621   8.441  11.453  0.00  0.00    +0.000 HD
ENDBRANCH   7  16
ENDBRANCH   1   7
BRANCH   4  18
ATOM     18  O   UNL     1      44.497   5.039  12.759  0.00  0.00    +0.000 OA
BRANCH  18  19
ATOM     19  C   UNL     1      44.570   3.646  12.395  0.00  0.00    +0.000 C 
BRANCH  19  20
ATOM     20  C   UNL     1      43.848   3.325  11.086  0.00  0.00    +0.000 C 
ATOM     21  F   UNL     1      43.264   2.090  11.203  0.00  0.00    +0.000 F 
ATOM     22  F   UNL     1      42.789   4.191  10.976  0.00  0.00    +0.000 F 
BRANCH  20  23
ATOM     23  C   UNL     1      44.776   3.432   9.891  0.00  0.00    +0.000 A 
ATOM     24  C   UNL     1      45.050   4.673   9.346  0.00  0.00    +0.000 A 
ATOM     25  C   UNL     1      45.913   4.700   8.272  0.00  0.00    +0.000 A 
ATOM     26  N   UNL     1      46.479   3.606   7.741  0.00  0.00    +0.000 NA
ATOM     27  C   UNL     1      46.147   2.429   8.342  0.00  0.00    +0.000 A 
ATOM     28  N   UNL     1      45.327   2.298   9.398  0.00  0.00    +0.000 NA
BRANCH  27  29
ATOM     29  C   UNL     1      46.746   1.183   7.745  0.00  0.00    +0.000 C 
ATOM     30  N   UNL     1      47.760   1.374   6.833  0.00  0.00    +0.000 N 
ATOM     31  O   UNL     1      46.371   0.050   8.029  0.00  0.00    +0.000 OA
ATOM     32  H   UNL     1      48.074   2.311   6.606  0.00  0.00    +0.000 HD
ATOM     33  H   UNL     1      48.193   0.568   6.407  0.00  0.00    +0.000 HD
ENDBRANCH  27  29
ENDBRANCH  20  23
ENDBRANCH  19  20
ENDBRANCH  18  19
ENDBRANCH   4  18
TORSDOF 9
ENDMDL
MODEL 8
REMARK VINA RESULT:    -6.846      2.122      3.107
REMARK INTER + INTRA:         -10.917
REMARK INTER:                  -9.775
REMARK INTRA:                  -1.142
REMARK UNBOUND:                -0.669
REMARK  Name = 
REMARK  11 active torsions:
REMARK  status: ('A' for Active; 'I' for Inactive)
REMARK    1  A    between atoms: C_1  and  C_2
REMARK    2  A    between atoms: C_2  and  C_3
REMARK    3  A    between atoms: C_2  and  N_5
REMARK    4  A    between atoms: C_6  and  C_8
REMARK    5  A    between atoms: C_8  and  O_9
REMARK    6  A    between atoms: C_8  and  C_10
REMARK    7  A    between atoms: C_13  and  O_14
REMARK    8  A    between atoms: O_14  and  C_15
REMARK    9  A    between atoms: C_15  and  C_16
REMARK   10  A    between atoms: C_16  and  C_19
REMARK   11  A    between atoms: C_23  and  C_24
REMARK                            x       y       z     vdW  Elec       q    Type
REMARK                         _______ _______ _______ _____ _____    ______ ____
ROOT
ATOM      1  C   UNL     1      46.720   7.532  12.487  0.00  0.00    +0.000 A 
ATOM      2  C   UNL     1      46.813   8.788  13.097  0.00  0.00    +0.000 A 
ATOM      3  C   UNL     1      47.939   9.158  13.835  0.00  0.00    +0.000 A 
ATOM      4  C   UNL     1      49.035   8.308  13.951  0.00  0.00    +0.000 A 
ATOM      5  C   UNL     1      48.987   7.072  13.304  0.00  0.00    +0.000 A 
ATOM      6  C   UNL     1      47.840   6.684  12.585  0.00  0.00    +0.000 A 
ENDROOT
BRANCH   1   7
ATOM      7  C   UNL     1      45.440   7.048  11.803  0.00  0.00    +0.000 C 
BRANCH   7   9
ATOM      8  N   UNL     1      45.019   4.729  11.000  0.00  0.00    +0.000 N 
ATOM      9  C   UNL     1      45.077   5.570  12.091  0.00  0.00    +0.000 C 
ATOM     10  O   UNL     1      44.853   5.164  13.233  0.00  0.00    +0.000 OA
ATOM     11  H   UNL     1      45.224   5.090  10.076  0.00  0.00    +0.000 HD
BRANCH   8  13
ATOM     12  C   UNL     1      44.907   2.578   9.816  0.00  0.00    +0.000 C 
ATOM     13  C   UNL     1      44.720   3.323  11.135  0.00  0.00    +0.000 C 
ATOM     14  C   UNL     1      43.333   3.068  11.729  0.00  0.00    +0.000 C 
ATOM     15  F   UNL     1      45.635   2.820  12.014  0.00  0.00    +0.000 F 
ENDBRANCH   8  13
ENDBRANCH   7   9
BRANCH   7  16
ATOM     16  O   UNL     1      44.355   7.921  12.103  0.00  0.00    +0.000 OA
ATOM     17  H   UNL     1      43.692   7.388  12.579  0.00  0.00    +0.000 HD
ENDBRANCH   7  16
ENDBRANCH   1   7
BRANCH   4  18
ATOM     18  O   UNL     1      50.171   8.600  14.668  0.00  0.00    +0.000 OA
BRANCH  18  19
ATOM     19  C   UNL     1      50.912   7.449  15.117  0.00  0.00    +0.000 C 
BRANCH  19  20
ATOM     20  C   UNL     1      50.779   7.192  16.618  0.00  0.00    +0.000 C 
ATOM     21  F   UNL     1      51.968   7.513  17.221  0.00  0.00    +0.000 F 
ATOM     22  F   UNL     1      49.889   8.109  17.116  0.00  0.00    +0.000 F 
BRANCH  20  23
ATOM     23  C   UNL     1      50.331   5.772  16.909  0.00  0.00    +0.000 A 
ATOM     24  C   UNL     1      51.218   4.878  17.480  0.00  0.00    +0.000 A 
ATOM     25  C   UNL     1      50.741   3.610  17.733  0.00  0.00    +0.000 A 
ATOM     26  N   UNL     1      49.492   3.212  17.452  0.00  0.00    +0.000 NA
ATOM     27  C   UNL     1      48.692   4.160  16.888  0.00  0.00    +0.000 A 
ATOM     28  N   UNL     1      49.057   5.424  16.613  0.00  0.00    +0.000 NA
BRANCH  27  29
ATOM     29  C   UNL     1      47.294   3.729  16.535  0.00  0.00    +0.000 C 
ATOM     30  N   UNL     1      46.860   4.053  15.269  0.00  0.00    +0.000 N 
ATOM     31  O   UNL     1      46.557   3.127  17.309  0.00  0.00    +0.000 OA
ATOM     32  H   UNL     1      47.474   4.544  14.628  0.00  0.00    +0.000 HD
ATOM     33  H   UNL     1      45.930   3.784  14.986  0.00  0.00    +0.000 HD
ENDBRANCH  27  29
ENDBRANCH  20  23
ENDBRANCH  19  20
ENDBRANCH  18  19
ENDBRANCH   4  18
TORSDOF 9
ENDMDL
MODEL 9
REMARK VINA RESULT:    -6.760      2.450      3.659
REMARK INTER + INTRA:         -10.788
REMARK INTER:                 -10.367
REMARK INTRA:                  -0.421
REMARK UNBOUND:                -0.669
REMARK  Name = 
REMARK  11 active torsions:
REMARK  status: ('A' for Active; 'I' for Inactive)
REMARK    1  A    between atoms: C_1  and  C_2
REMARK    2  A    between atoms: C_2  and  C_3
REMARK    3  A    between atoms: C_2  and  N_5
REMARK    4  A    between atoms: C_6  and  C_8
REMARK    5  A    between atoms: C_8  and  O_9
REMARK    6  A    between atoms: C_8  and  C_10
REMARK    7  A    between atoms: C_13  and  O_14
REMARK    8  A    between atoms: O_14  and  C_15
REMARK    9  A    between atoms: C_15  and  C_16
REMARK   10  A    between atoms: C_16  and  C_19
REMARK   11  A    between atoms: C_23  and  C_24
REMARK                            x       y       z     vdW  Elec       q    Type
REMARK                         _______ _______ _______ _____ _____    ______ ____
ROOT
ATOM      1  C   UNL     1      45.651   5.095  12.021  0.00  0.00    +0.000 A 
ATOM      2  C   UNL     1      45.643   3.760  12.444  0.00  0.00    +0.000 A 
ATOM      3  C   UNL     1      46.407   3.337  13.533  0.00  0.00    +0.000 A 
ATOM      4  C   UNL     1      47.172   4.238  14.270  0.00  0.00    +0.000 A 
ATOM      5  C   UNL     1      47.151   5.583  13.899  0.00  0.00    +0.000 A 
ATOM      6  C   UNL     1      46.405   6.007  12.783  0.00  0.00    +0.000 A 
ENDROOT
BRANCH   1   7
ATOM      7  C   UNL     1      44.943   5.551  10.744  0.00  0.00    +0.000 C 
BRANCH   7   9
ATOM      8  N   UNL     1      45.754   4.252   8.781  0.00  0.00    +0.000 N 
ATOM      9  C   UNL     1      44.734   4.435   9.691  0.00  0.00    +0.000 C 
ATOM     10  O   UNL     1      43.713   3.746   9.665  0.00  0.00    +0.000 OA
ATOM     11  H   UNL     1      46.587   4.825   8.839  0.00  0.00    +0.000 HD
BRANCH   8  13
ATOM     12  C   UNL     1      45.873   1.833   8.362  0.00  0.00    +0.000 C 
ATOM     13  C   UNL     1      45.697   3.227   7.766  0.00  0.00    +0.000 C 
ATOM     14  C   UNL     1      46.681   3.474   6.621  0.00  0.00    +0.000 C 
ATOM     15  F   UNL     1      44.439   3.282   7.237  0.00  0.00    +0.000 F 
ENDBRANCH   8  13
ENDBRANCH   7   9
BRANCH   7  16
ATOM     16  O   UNL     1      43.718   6.206  11.061  0.00  0.00    +0.000 OA
ATOM     17  H   UNL     1      43.165   6.166  10.260  0.00  0.00    +0.000 HD
ENDBRANCH   7  16
ENDBRANCH   1   7
BRANCH   4  18
ATOM     18  O   UNL     1      47.956   3.892  15.345  0.00  0.00    +0.000 OA
BRANCH  18  19
ATOM     19  C   UNL     1      47.317   4.039  16.628  0.00  0.00    +0.000 C 
BRANCH  19  20
ATOM     20  C   UNL     1      48.302   4.296  17.768  0.00  0.00    +0.000 C 
ATOM     21  F   UNL     1      48.134   3.319  18.716  0.00  0.00    +0.000 F 
ATOM     22  F   UNL     1      49.565   4.076  17.278  0.00  0.00    +0.000 F 
BRANCH  20  23
ATOM     23  C   UNL     1      48.163   5.699  18.329  0.00  0.00    +0.000 A 
ATOM     24  C   UNL     1      47.820   5.874  19.657  0.00  0.00    +0.000 A 
ATOM     25  C   UNL     1      47.727   7.173  20.106  0.00  0.00    +0.000 A 
ATOM     26  N   UNL     1      47.940   8.247  19.332  0.00  0.00    +0.000 NA
ATOM     27  C   UNL     1      48.269   7.976  18.038  0.00  0.00    +0.000 A 
ATOM     28  N   UNL     1      48.397   6.748  17.507  0.00  0.00    +0.000 NA
BRANCH  27  29
ATOM     29  C   UNL     1      48.484   9.166  17.141  0.00  0.00    +0.000 C 
ATOM     30  N   UNL     1      47.659   9.255  16.043  0.00  0.00    +0.000 N 
ATOM     31  O   UNL     1      49.339  10.022  17.347  0.00  0.00    +0.000 OA
ATOM     32  H   UNL     1      46.948   8.551  15.879  0.00  0.00    +0.000 HD
ATOM     33  H   UNL     1      47.764  10.036  15.412  0.00  0.00    +0.000 HD
ENDBRANCH  27  29
ENDBRANCH  20  23
ENDBRANCH  19  20
ENDBRANCH  18  19
ENDBRANCH   4  18
TORSDOF 9
ENDMDL
