MODEL 1
REMARK VINA RESULT:    -7.653      0.000      0.000
REMARK INTER + INTRA:         -10.106
REMARK INTER:                  -9.443
REMARK INTRA:                  -0.663
REMARK UNBOUND:                -0.663
REMARK  Name = 
REMARK  4 active torsions:
REMARK  status: ('A' for Active; 'I' for Inactive)
REMARK    1  A    between atoms: C_2  and  C_4
REMARK    2  A    between atoms: C_7  and  O_8
REMARK    3  A    between atoms: O_8  and  C_9
REMARK    4  A    between atoms: C_9  and  C_10
REMARK                            x       y       z     vdW  Elec       q    Type
REMARK                         _______ _______ _______ _____ _____    ______ ____
ROOT
ATOM      1  C   UNL     1      46.391   2.330   7.748  0.00  0.00    +0.000 A 
ATOM      2  C   UNL     1      46.340   3.726   7.633  0.00  0.00    +0.000 A 
ATOM      3  C   UNL     1      45.402   4.450   8.375  0.00  0.00    +0.000 A 
ATOM      4  C   UNL     1      44.509   3.785   9.221  0.00  0.00    +0.000 A 
ATOM      5  C   UNL     1      44.594   2.398   9.363  0.00  0.00    +0.000 A 
ATOM      6  C   UNL     1      45.514   1.671   8.612  0.00  0.00    +0.000 A 
ENDROOT
BRANCH   1   8
ATOM      7  N   UNL     1      48.476   2.103   6.520  0.00  0.00    +0.000 N 
ATOM      8  C   UNL     1      47.335   1.499   6.966  0.00  0.00    +0.000 C 
ATOM      9  O   UNL     1      47.136   0.306   6.766  0.00  0.00    +0.000 OA
ATOM     10  H   UNL     1      49.169   1.489   6.115  0.00  0.00    +0.000 HD
ATOM     11  H   UNL     1      48.793   2.986   6.894  0.00  0.00    +0.000 HD
ENDBRANCH   1   8
BRANCH   4  12
ATOM     12  O   UNL     1      43.582   4.571   9.853  0.00  0.00    +0.000 OA
BRANCH  12  13
ATOM     13  C   UNL     1      43.456   4.319  11.255  0.00  0.00    +0.000 C 
BRANCH  13  14
ATOM     14  C   UNL     1      44.681   4.816  11.975  0.00  0.00    +0.000 A 
ATOM     15  C   UNL     1      45.428   3.941  12.777  0.00  0.00    +0.000 A 
ATOM     16  C   UNL     1      46.575   4.389  13.430  0.00  0.00    +0.000 A 
ATOM     17  C   UNL     1      46.985   5.713  13.285  0.00  0.00    +0.000 A 
ATOM     18  C   UNL     1      46.249   6.590  12.490  0.00  0.00    +0.000 A 
ATOM     19  C   UNL     1      45.100   6.146  11.836  0.00  0.00    +0.000 A 
ENDBRANCH  13  14
ENDBRANCH  12  13
ENDBRANCH   4  12
TORSDOF 4
ENDMDL
MODEL 2
REMARK VINA RESULT:    -7.364      2.867      5.945
REMARK INTER + INTRA:          -9.749
REMARK INTER:                  -9.199
REMARK INTRA:                  -0.550
REMARK UNBOUND:                -0.663
REMARK  Name = 
REMARK  4 active torsions:
REMARK  status: ('A' for Active; 'I' for Inactive)
REMARK    1  A    between atoms: C_2  and  C_4
REMARK    2  A    between atoms: C_7  and  O_8
REMARK    3  A    between atoms: O_8  and  C_9
REMARK    4  A    between atoms: C_9  and  C_10
REMARK                            x       y       z     vdW  Elec       q    Type
REMARK                         _______ _______ _______ _____ _____    ______ ____
ROOT
ATOM      1  C   UNL     1      46.443   5.096  13.058  0.00  0.00    +0.000 A 
ATOM      2  C   UNL     1      46.109   5.949  11.997  0.00  0.00    +0.000 A 
ATOM      3  C   UNL     1      45.321   5.472  10.945  0.00  0.00    +0.000 A 
ATOM      4  C   UNL     1      44.876   4.147  10.944  0.00  0.00    +0.000 A 
ATOM      5  C   UNL     1      45.176   3.315  12.025  0.00  0.00    +0.000 A 
ATOM      6  C   UNL     1      45.976   3.780  13.066  0.00  0.00    +0.000 A 
ENDROOT
BRANCH   1   8
ATOM      7  N   UNL     1      47.570   6.860  14.293  0.00  0.00    +0.000 N 
ATOM      8  C   UNL     1      47.302   5.525  14.185  0.00  0.00    +0.000 C 
ATOM      9  O   UNL     1      47.718   4.731  15.022  0.00  0.00    +0.000 OA
ATOM     10  H   UNL     1      48.035   7.148  15.143  0.00  0.00    +0.000 HD
ATOM     11  H   UNL     1      47.031   7.554  13.796  0.00  0.00    +0.000 HD
ENDBRANCH   1   8
BRANCH   4  12
ATOM     12  O   UNL     1      44.168   3.751   9.839  0.00  0.00    +0.000 OA
BRANCH  12  13
ATOM     13  C   UNL     1      44.425   2.407   9.427  0.00  0.00    +0.000 C 
BRANCH  13  14
ATOM     14  C   UNL     1      45.498   2.392   8.372  0.00  0.00    +0.000 A 
ATOM     15  C   UNL     1      45.727   3.532   7.587  0.00  0.00    +0.000 A 
ATOM     16  C   UNL     1      46.733   3.533   6.623  0.00  0.00    +0.000 A 
ATOM     17  C   UNL     1      47.519   2.399   6.437  0.00  0.00    +0.000 A 
ATOM     18  C   UNL     1      47.300   1.261   7.212  0.00  0.00    +0.000 A 
ATOM     19  C   UNL     1      46.293   1.255   8.178  0.00  0.00    +0.000 A 
ENDBRANCH  13  14
ENDBRANCH  12  13
ENDBRANCH   4  12
TORSDOF 4
ENDMDL
MODEL 3
REMARK VINA RESULT:    -6.068      3.097      6.177
REMARK INTER + INTRA:          -8.150
REMARK INTER:                  -7.515
REMARK INTRA:                  -0.635
REMARK UNBOUND:                -0.663
REMARK  Name = 
REMARK  4 active torsions:
REMARK  status: ('A' for Active; 'I' for Inactive)
REMARK    1  A    between atoms: C_2  and  C_4
REMARK    2  A    between atoms: C_7  and  O_8
REMARK    3  A    between atoms: O_8  and  C_9
REMARK    4  A    between atoms: C_9  and  C_10
REMARK                            x       y       z     vdW  Elec       q    Type
REMARK                         _______ _______ _______ _____ _____    ______ ____
ROOT
ATOM      1  C   UNL     1      46.909   6.889  13.200  0.00  0.00    +0.000 A 
ATOM      2  C   UNL     1      46.992   5.507  13.422  0.00  0.00    +0.000 A 
ATOM      3  C   UNL     1      46.079   4.649  12.800  0.00  0.00    +0.000 A 
ATOM      4  C   UNL     1      45.081   5.166  11.969  0.00  0.00    +0.000 A 
ATOM      5  C   UNL     1      45.031   6.538  11.719  0.00  0.00    +0.000 A 
ATOM      6  C   UNL     1      45.925   7.399  12.350  0.00  0.00    +0.000 A 
ENDROOT
BRANCH   1   8
ATOM      7  N   UNL     1      48.610   7.387  14.862  0.00  0.00    +0.000 N 
ATOM      8  C   UNL     1      47.819   7.858  13.853  0.00  0.00    +0.000 C 
ATOM      9  O   UNL     1      47.905   9.021  13.478  0.00  0.00    +0.000 OA
ATOM     10  H   UNL     1      49.322   8.023  15.196  0.00  0.00    +0.000 HD
ATOM     11  H   UNL     1      48.761   6.399  15.005  0.00  0.00    +0.000 HD
ENDBRANCH   1   8
BRANCH   4  12
ATOM     12  O   UNL     1      44.193   4.254  11.460  0.00  0.00    +0.000 OA
BRANCH  12  13
ATOM     13  C   UNL     1      43.867   4.457  10.083  0.00  0.00    +0.000 C 
BRANCH  13  14
ATOM     14  C   UNL     1      44.856   3.729   9.213  0.00  0.00    +0.000 A 
ATOM     15  C   UNL     1      44.996   2.338   9.320  0.00  0.00    +0.000 A 
ATOM     16  C   UNL     1      45.894   1.654   8.504  0.00  0.00    +0.000 A 
ATOM     17  C   UNL     1      46.658   2.355   7.573  0.00  0.00    +0.000 A 
ATOM     18  C   UNL     1      46.528   3.737   7.459  0.00  0.00    +0.000 A 
ATOM     19  C   UNL     1      45.630   4.426   8.275  0.00  0.00    +0.000 A 
ENDBRANCH  13  14
ENDBRANCH  12  13
ENDBRANCH   4  12
TORSDOF 4
ENDMDL
MODEL 4
REMARK VINA RESULT:    -5.390      3.198      5.020
REMARK INTER + INTRA:          -7.314
REMARK INTER:                  -6.763
REMARK INTRA:                  -0.551
REMARK UNBOUND:                -0.663
REMARK  Name = 
REMARK  4 active torsions:
REMARK  status: ('A' for Active; 'I' for Inactive)
REMARK    1  A    between atoms: C_2  and  C_4
REMARK    2  A    between atoms: C_7  and  O_8
REMARK    3  A    between atoms: O_8  and  C_9
REMARK    4  A    between atoms: C_9  and  C_10
REMARK                            x       y       z     vdW  Elec       q    Type
REMARK                         _______ _______ _______ _____ _____    ______ ____
ROOT
ATOM      1  C   UNL     1      44.370   4.156  11.289  0.00  0.00    +0.000 A 
ATOM      2  C   UNL     1      45.152   4.913  10.404  0.00  0.00    +0.000 A 
ATOM      3  C   UNL     1      45.575   6.193  10.775  0.00  0.00    +0.000 A 
ATOM      4  C   UNL     1      45.214   6.722  12.017  0.00  0.00    +0.000 A 
ATOM      5  C   UNL     1      44.472   5.946  12.910  0.00  0.00    +0.000 A 
ATOM      6  C   UNL     1      44.031   4.679  12.539  0.00  0.00    +0.000 A 
ENDROOT
BRANCH   1   8
ATOM      7  N   UNL     1      44.453   2.161   9.904  0.00  0.00    +0.000 N 
ATOM      8  C   UNL     1      43.857   2.809  10.947  0.00  0.00    +0.000 C 
ATOM      9  O   UNL     1      42.972   2.268  11.600  0.00  0.00    +0.000 OA
ATOM     10  H   UNL     1      44.189   1.193   9.778  0.00  0.00    +0.000 HD
ATOM     11  H   UNL     1      45.346   2.454   9.533  0.00  0.00    +0.000 HD
ENDBRANCH   1   8
BRANCH   4  12
ATOM     12  O   UNL     1      45.618   8.008  12.262  0.00  0.00    +0.000 OA
BRANCH  12  13
ATOM     13  C   UNL     1      46.674   8.120  13.220  0.00  0.00    +0.000 C 
BRANCH  13  14
ATOM     14  C   UNL     1      47.976   8.391  12.515  0.00  0.00    +0.000 A 
ATOM     15  C   UNL     1      48.272   9.685  12.061  0.00  0.00    +0.000 A 
ATOM     16  C   UNL     1      49.484   9.949  11.426  0.00  0.00    +0.000 A 
ATOM     17  C   UNL     1      50.409   8.924  11.241  0.00  0.00    +0.000 A 
ATOM     18  C   UNL     1      50.124   7.635  11.688  0.00  0.00    +0.000 A 
ATOM     19  C   UNL     1      48.911   7.366  12.323  0.00  0.00    +0.000 A 
ENDBRANCH  13  14
ENDBRANCH  12  13
ENDBRANCH   4  12
TORSDOF 4
ENDMDL
MODEL 5
REMARK VINA RESULT:    -5.316      5.637      8.417
REMARK INTER + INTRA:          -7.223
REMARK INTER:                  -6.813
REMARK INTRA:                  -0.410
REMARK UNBOUND:                -0.663
REMARK  Name = 
REMARK  4 active torsions:
REMARK  status: ('A' for Active; 'I' for Inactive)
REMARK    1  A    between atoms: C_2  and  C_4
REMARK    2  A    between atoms: C_7  and  O_8
REMARK    3  A    between atoms: O_8  and  C_9
REMARK    4  A    between atoms: C_9  and  C_10
REMARK                            x       y       z     vdW  Elec       q    Type
REMARK                         _______ _______ _______ _____ _____    ______ ____
ROOT
ATOM      1  C   UNL     1      48.621   4.394  18.302  0.00  0.00    +0.000 A 
ATOM      2  C   UNL     1      48.406   5.406  17.357  0.00  0.00    +0.000 A 
ATOM      3  C   UNL     1      47.923   5.078  16.087  0.00  0.00    +0.000 A 
ATOM      4  C   UNL     1      47.665   3.745  15.755  0.00  0.00    +0.000 A 
ATOM      5  C   UNL     1      47.841   2.746  16.715  0.00  0.00    +0.000 A 
ATOM      6  C   UNL     1      48.339   3.066  17.975  0.00  0.00    +0.000 A 
ENDROOT
BRANCH   1   8
ATOM      7  N   UNL     1      48.584   4.010  20.702  0.00  0.00    +0.000 N 
ATOM      8  C   UNL     1      49.164   4.666  19.654  0.00  0.00    +0.000 C 
ATOM      9  O   UNL     1      50.125   5.406  19.829  0.00  0.00    +0.000 OA
ATOM     10  H   UNL     1      49.057   4.098  21.591  0.00  0.00    +0.000 HD
ATOM     11  H   UNL     1      47.990   3.205  20.565  0.00  0.00    +0.000 HD
ENDBRANCH   1   8
BRANCH   4  12
ATOM     12  O   UNL     1      47.261   3.514  14.466  0.00  0.00    +0.000 OA
BRANCH  12  13
ATOM     13  C   UNL     1      46.906   4.695  13.742  0.00  0.00    +0.000 C 
BRANCH  13  14
ATOM     14  C   UNL     1      45.584   4.492  13.051  0.00  0.00    +0.000 A 
ATOM     15  C   UNL     1      44.594   5.483  13.124  0.00  0.00    +0.000 A 
ATOM     16  C   UNL     1      43.376   5.311  12.471  0.00  0.00    +0.000 A 
ATOM     17  C   UNL     1      43.138   4.151  11.738  0.00  0.00    +0.000 A 
ATOM     18  C   UNL     1      44.115   3.160  11.660  0.00  0.00    +0.000 A 
ATOM     19  C   UNL     1      45.336   3.327  12.313  0.00  0.00    +0.000 A 
ENDBRANCH  13  14
ENDBRANCH  12  13
ENDBRANCH   4  12
TORSDOF 4
ENDMDL
MODEL 6
REMARK VINA RESULT:    -5.307      3.663      6.479
REMARK INTER + INTRA:          -7.211
REMARK INTER:                  -6.716
REMARK INTRA:                  -0.495
REMARK UNBOUND:                -0.663
REMARK  Name = 
REMARK  4 active torsions:
REMARK  status: ('A' for Active; 'I' for Inactive)
REMARK    1  A    between atoms: C_2  and  C_4
REMARK    2  A    between atoms: C_7  and  O_8
REMARK    3  A    between atoms: O_8  and  C_9
REMARK    4  A    between atoms: C_9  and  C_10
REMARK                            x       y       z     vdW  Elec       q    Type
REMARK                         _______ _______ _______ _____ _____    ______ ____
ROOT
ATOM      1  C   UNL     1      48.792   7.110  13.354  0.00  0.00    +0.000 A 
ATOM      2  C   UNL     1      48.195   6.144  14.177  0.00  0.00    +0.000 A 
ATOM      3  C   UNL     1      47.022   5.508  13.761  0.00  0.00    +0.000 A 
ATOM      4  C   UNL     1      46.439   5.839  12.534  0.00  0.00    +0.000 A 
ATOM      5  C   UNL     1      47.062   6.770  11.701  0.00  0.00    +0.000 A 
ATOM      6  C   UNL     1      48.220   7.421  12.119  0.00  0.00    +0.000 A 
ENDROOT
BRANCH   1   8
ATOM      7  N   UNL     1      50.319   7.885  15.079  0.00  0.00    +0.000 N 
ATOM      8  C   UNL     1      50.014   7.848  13.748  0.00  0.00    +0.000 C 
ATOM      9  O   UNL     1      50.756   8.362  12.919  0.00  0.00    +0.000 OA
ATOM     10  H   UNL     1      51.225   8.267  15.312  0.00  0.00    +0.000 HD
ATOM     11  H   UNL     1      49.892   7.253  15.742  0.00  0.00    +0.000 HD
ENDBRANCH   1   8
BRANCH   4  12
ATOM     12  O   UNL     1      45.254   5.213  12.244  0.00  0.00    +0.000 OA
BRANCH  12  13
ATOM     13  C   UNL     1      44.701   5.564  10.973  0.00  0.00    +0.000 C 
BRANCH  13  14
ATOM     14  C   UNL     1      45.005   4.484   9.969  0.00  0.00    +0.000 A 
ATOM     15  C   UNL     1      45.723   4.791   8.803  0.00  0.00    +0.000 A 
ATOM     16  C   UNL     1      46.026   3.793   7.879  0.00  0.00    +0.000 A 
ATOM     17  C   UNL     1      45.618   2.482   8.113  0.00  0.00    +0.000 A 
ATOM     18  C   UNL     1      44.904   2.167   9.268  0.00  0.00    +0.000 A 
ATOM     19  C   UNL     1      44.597   3.163  10.195  0.00  0.00    +0.000 A 
ENDBRANCH  13  14
ENDBRANCH  12  13
ENDBRANCH   4  12
TORSDOF 4
ENDMDL
MODEL 7
REMARK VINA RESULT:    -5.262      4.316      7.081
REMARK INTER + INTRA:          -7.155
REMARK INTER:                  -6.698
REMARK INTRA:                  -0.457
REMARK UNBOUND:                -0.663
REMARK  Name = 
REMARK  4 active torsions:
REMARK  status: ('A' for Active; 'I' for Inactive)
REMARK    1  A    between atoms: C_2  and  C_4
REMARK    2  A    between atoms: C_7  and  O_8
REMARK    3  A    between atoms: O_8  and  C_9
REMARK    4  A    between atoms: C_9  and  C_10
REMARK                            x       y       z     vdW  Elec       q    Type
REMARK                         _______ _______ _______ _____ _____    ______ ____
ROOT
ATOM      1  C   UNL     1      48.014   5.140  16.171  0.00  0.00    +0.000 A 
ATOM      2  C   UNL     1      48.491   6.290  15.527  0.00  0.00    +0.000 A 
ATOM      3  C   UNL     1      48.114   6.552  14.207  0.00  0.00    +0.000 A 
ATOM      4  C   UNL     1      47.271   5.668  13.527  0.00  0.00    +0.000 A 
ATOM      5  C   UNL     1      46.764   4.548  14.189  0.00  0.00    +0.000 A 
ATOM      6  C   UNL     1      47.153   4.272  15.497  0.00  0.00    +0.000 A 
ENDROOT
BRANCH   1   8
ATOM      7  N   UNL     1      47.546   3.980  18.255  0.00  0.00    +0.000 N 
ATOM      8  C   UNL     1      48.402   4.782  17.555  0.00  0.00    +0.000 C 
ATOM      9  O   UNL     1      49.467   5.141  18.043  0.00  0.00    +0.000 OA
ATOM     10  H   UNL     1      47.892   3.632  19.139  0.00  0.00    +0.000 HD
ATOM     11  H   UNL     1      46.814   3.454  17.799  0.00  0.00    +0.000 HD
ENDBRANCH   1   8
BRANCH   4  12
ATOM     12  O   UNL     1      47.012   5.974  12.216  0.00  0.00    +0.000 OA
BRANCH  12  13
ATOM     13  C   UNL     1      45.621   6.038  11.892  0.00  0.00    +0.000 C 
BRANCH  13  14
ATOM     14  C   UNL     1      45.297   5.018  10.833  0.00  0.00    +0.000 A 
ATOM     15  C   UNL     1      44.614   3.842  11.177  0.00  0.00    +0.000 A 
ATOM     16  C   UNL     1      44.292   2.903  10.199  0.00  0.00    +0.000 A 
ATOM     17  C   UNL     1      44.647   3.132   8.872  0.00  0.00    +0.000 A 
ATOM     18  C   UNL     1      45.326   4.298   8.520  0.00  0.00    +0.000 A 
ATOM     19  C   UNL     1      45.651   5.240   9.496  0.00  0.00    +0.000 A 
ENDBRANCH  13  14
ENDBRANCH  12  13
ENDBRANCH   4  12
TORSDOF 4
ENDMDL
MODEL 8
REMARK VINA RESULT:    -5.093      2.712      4.079
REMARK INTER + INTRA:          -6.948
REMARK INTER:                  -6.458
REMARK INTRA:                  -0.490
REMARK UNBOUND:                -0.663
REMARK  Name = 
REMARK  4 active torsions:
REMARK  status: ('A' for Active; 'I' for Inactive)
REMARK    1  A    between atoms: C_2  and  C_4
REMARK    2  A    between atoms: C_7  and  O_8
REMARK    3  A    between atoms: O_8  and  C_9
REMARK    4  A    between atoms: C_9  and  C_10
REMARK                            x       y       z     vdW  Elec       q    Type
REMARK                         _______ _______ _______ _____ _____    ______ ____
ROOT
ATOM      1  C   UNL     1      44.917   3.664  10.092  0.00  0.00    +0.000 A 
ATOM      2  C   UNL     1      44.843   3.260  11.432  0.00  0.00    +0.000 A 
ATOM      3  C   UNL     1      45.165   4.166  12.447  0.00  0.00    +0.000 A 
ATOM      4  C   UNL     1      45.567   5.467  12.129  0.00  0.00    +0.000 A 
ATOM      5  C   UNL     1      45.597   5.874  10.794  0.00  0.00    +0.000 A 
ATOM      6  C   UNL     1      45.297   4.970   9.778  0.00  0.00    +0.000 A 
ENDROOT
BRANCH   1   8
ATOM      7  N   UNL     1      44.370   3.313   7.750  0.00  0.00    +0.000 N 
ATOM      8  C   UNL     1      44.626   2.746   8.966  0.00  0.00    +0.000 C 
ATOM      9  O   UNL     1      44.662   1.528   9.096  0.00  0.00    +0.000 OA
ATOM     10  H   UNL     1      44.316   2.673   6.969  0.00  0.00    +0.000 HD
ATOM     11  H   UNL     1      44.600   4.276   7.551  0.00  0.00    +0.000 HD
ENDBRANCH   1   8
BRANCH   4  12
ATOM     12  O   UNL     1      45.927   6.260  13.187  0.00  0.00    +0.000 OA
BRANCH  12  13
ATOM     13  C   UNL     1      46.216   7.615  12.834  0.00  0.00    +0.000 C 
BRANCH  13  14
ATOM     14  C   UNL     1      47.706   7.830  12.817  0.00  0.00    +0.000 A 
ATOM     15  C   UNL     1      48.490   7.410  13.902  0.00  0.00    +0.000 A 
ATOM     16  C   UNL     1      49.871   7.587  13.884  0.00  0.00    +0.000 A 
ATOM     17  C   UNL     1      50.481   8.182  12.782  0.00  0.00    +0.000 A 
ATOM     18  C   UNL     1      49.712   8.603  11.699  0.00  0.00    +0.000 A 
ATOM     19  C   UNL     1      48.328   8.428  11.713  0.00  0.00    +0.000 A 
ENDBRANCH  13  14
ENDBRANCH  12  13
ENDBRANCH   4  12
TORSDOF 4
ENDMDL
MODEL 9
REMARK VINA RESULT:    -4.886      5.120      7.016
REMARK INTER + INTRA:          -6.692
REMARK INTER:                  -6.266
REMARK INTRA:                  -0.425
REMARK UNBOUND:                -0.663
REMARK  Name = 
REMARK  4 active torsions:
REMARK  status: ('A' for Active; 'I' for Inactive)
REMARK    1  A    between atoms: C_2  and  C_4
REMARK    2  A    between atoms: C_7  and  O_8
REMARK    3  A    between atoms: O_8  and  C_9
REMARK    4  A    between atoms: C_9  and  C_10
REMARK                            x       y       z     vdW  Elec       q    Type
REMARK                         _______ _______ _______ _____ _____    ______ ____
ROOT
ATOM      1  C   UNL     1      45.521   7.459  12.575  0.00  0.00    +0.000 A 
ATOM      2  C   UNL     1      44.801   6.286  12.838  0.00  0.00    +0.000 A 
ATOM      3  C   UNL     1      45.440   5.202  13.448  0.00  0.00    +0.000 A 
ATOM      4  C   UNL     1      46.794   5.283  13.786  0.00  0.00    +0.000 A 
ATOM      5  C   UNL     1      47.494   6.470  13.560  0.00  0.00    +0.000 A 
ATOM      6  C   UNL     1      46.867   7.545  12.935  0.00  0.00    +0.000 A 
ENDROOT
BRANCH   1   8
ATOM      7  N   UNL     1      43.867   8.394  11.059  0.00  0.00    +0.000 N 
ATOM      8  C   UNL     1      44.917   8.631  11.899  0.00  0.00    +0.000 C 
ATOM      9  O   UNL     1      45.301   9.774  12.119  0.00  0.00    +0.000 OA
ATOM     10  H   UNL     1      43.379   9.213  10.722  0.00  0.00    +0.000 HD
ATOM     11  H   UNL     1      43.360   7.520  11.071  0.00  0.00    +0.000 HD
ENDBRANCH   1   8
BRANCH   4  12
ATOM     12  O   UNL     1      47.349   4.148  14.316  0.00  0.00    +0.000 OA
BRANCH  12  13
ATOM     13  C   UNL     1      47.096   3.967  15.712  0.00  0.00    +0.000 C 
BRANCH  13  14
ATOM     14  C   UNL     1      48.397   3.786  16.447  0.00  0.00    +0.000 A 
ATOM     15  C   UNL     1      49.100   4.905  16.916  0.00  0.00    +0.000 A 
ATOM     16  C   UNL     1      50.295   4.744  17.615  0.00  0.00    +0.000 A 
ATOM     17  C   UNL     1      50.794   3.466  17.853  0.00  0.00    +0.000 A 
ATOM     18  C   UNL     1      50.103   2.347  17.391  0.00  0.00    +0.000 A 
ATOM     19  C   UNL     1      48.907   2.503  16.689  0.00  0.00    +0.000 A 
ENDBRANCH  13  14
ENDBRANCH  12  13
ENDBRANCH   4  12
TORSDOF 4
ENDMDL
