MODEL 1
REMARK VINA RESULT:    -8.523      0.000      0.000
REMARK INTER + INTRA:         -11.784
REMARK INTER:                 -11.015
REMARK INTRA:                  -0.770
REMARK UNBOUND:                -0.770
REMARK  Name = 
REMARK  5 active torsions:
REMARK  status: ('A' for Active; 'I' for Inactive)
REMARK    1  A    between atoms: C_2  and  C_4
REMARK    2  A    between atoms: C_7  and  O_8
REMARK    3  A    between atoms: O_8  and  C_9
REMARK    4  A    between atoms: C_9  and  C_10
REMARK    5  A    between atoms: C_14  and  C_15
REMARK                            x       y       z     vdW  Elec       q    Type
REMARK                         _______ _______ _______ _____ _____    ______ ____
ROOT
ATOM      1  C   UNL     1      43.794   5.161  10.673  0.00  0.00    +0.000 C 
ENDROOT
BRANCH   1   2
ATOM      2  C   UNL     1      44.837   5.133  11.757  0.00  0.00    +0.000 A 
ATOM      3  C   UNL     1      44.755   4.200  12.782  0.00  0.00    +0.000 A 
ATOM      4  N   UNL     1      45.667   4.080  13.768  0.00  0.00    +0.000 NA
ATOM      5  C   UNL     1      46.722   4.932  13.726  0.00  0.00    +0.000 A 
ATOM      6  C   UNL     1      46.941   5.897  12.741  0.00  0.00    +0.000 A 
ATOM      7  C   UNL     1      45.963   5.968  11.737  0.00  0.00    +0.000 A 
BRANCH   6   8
ATOM      8  C   UNL     1      48.122   6.782  12.745  0.00  0.00    +0.000 A 
ATOM      9  C   UNL     1      48.535   7.495  11.611  0.00  0.00    +0.000 A 
ATOM     10  C   UNL     1      49.652   8.330  11.660  0.00  0.00    +0.000 A 
ATOM     11  C   UNL     1      50.337   8.443  12.855  0.00  0.00    +0.000 A 
ATOM     12  N   UNL     1      49.990   7.782  13.975  0.00  0.00    +0.000 NA
ATOM     13  C   UNL     1      48.905   6.972  13.889  0.00  0.00    +0.000 A 
ENDBRANCH   6   8
ENDBRANCH   1   2
BRANCH   1  14
ATOM     14  O   UNL     1      43.564   3.843  10.162  0.00  0.00    +0.000 OA
BRANCH  14  18
ATOM     15  C   UNL     1      46.456   2.634   7.494  0.00  0.00    +0.000 A 
ATOM     16  C   UNL     1      45.935   1.716   8.408  0.00  0.00    +0.000 A 
ATOM     17  C   UNL     1      44.958   2.138   9.312  0.00  0.00    +0.000 A 
ATOM     18  C   UNL     1      44.541   3.460   9.266  0.00  0.00    +0.000 A 
ATOM     19  N   UNL     1      45.040   4.370   8.401  0.00  0.00    +0.000 NA
ATOM     20  C   UNL     1      45.994   3.940   7.542  0.00  0.00    +0.000 A 
BRANCH  15  22
ATOM     21  N   UNL     1      47.474   3.002   5.318  0.00  0.00    +0.000 N 
ATOM     22  C   UNL     1      47.483   2.294   6.488  0.00  0.00    +0.000 C 
ATOM     23  O   UNL     1      48.335   1.446   6.710  0.00  0.00    +0.000 OA
ATOM     24  H   UNL     1      48.257   2.841   4.698  0.00  0.00    +0.000 HD
ATOM     25  H   UNL     1      46.967   3.869   5.211  0.00  0.00    +0.000 HD
ENDBRANCH  15  22
ENDBRANCH  14  18
ENDBRANCH   1  14
TORSDOF 5
ENDMDL
MODEL 2
REMARK VINA RESULT:    -8.347      1.431      1.568
REMARK INTER + INTRA:         -11.557
REMARK INTER:                 -10.901
REMARK INTRA:                  -0.655
REMARK UNBOUND:                -0.770
REMARK  Name = 
REMARK  5 active torsions:
REMARK  status: ('A' for Active; 'I' for Inactive)
REMARK    1  A    between atoms: C_2  and  C_4
REMARK    2  A    between atoms: C_7  and  O_8
REMARK    3  A    between atoms: O_8  and  C_9
REMARK    4  A    between atoms: C_9  and  C_10
REMARK    5  A    between atoms: C_14  and  C_15
REMARK                            x       y       z     vdW  Elec       q    Type
REMARK                         _______ _______ _______ _____ _____    ______ ____
ROOT
ATOM      1  C   UNL     1      43.903   4.298  11.387  0.00  0.00    +0.000 C 
ENDROOT
BRANCH   1   2
ATOM      2  C   UNL     1      45.143   4.815  12.063  0.00  0.00    +0.000 A 
ATOM      3  C   UNL     1      45.862   3.997  12.926  0.00  0.00    +0.000 A 
ATOM      4  N   UNL     1      47.003   4.368  13.540  0.00  0.00    +0.000 NA
ATOM      5  C   UNL     1      47.457   5.618  13.276  0.00  0.00    +0.000 A 
ATOM      6  C   UNL     1      46.850   6.531  12.412  0.00  0.00    +0.000 A 
ATOM      7  C   UNL     1      45.671   6.085  11.795  0.00  0.00    +0.000 A 
BRANCH   6   8
ATOM      8  C   UNL     1      47.407   7.873  12.155  0.00  0.00    +0.000 A 
ATOM      9  C   UNL     1      48.726   8.072  11.722  0.00  0.00    +0.000 A 
ATOM     10  C   UNL     1      49.211   9.358  11.480  0.00  0.00    +0.000 A 
ATOM     11  C   UNL     1      48.359  10.430  11.670  0.00  0.00    +0.000 A 
ATOM     12  N   UNL     1      47.085  10.301  12.087  0.00  0.00    +0.000 NA
ATOM     13  C   UNL     1      46.649   9.037  12.321  0.00  0.00    +0.000 A 
ENDBRANCH   6   8
ENDBRANCH   1   2
BRANCH   1  14
ATOM     14  O   UNL     1      43.871   4.707  10.014  0.00  0.00    +0.000 OA
BRANCH  14  18
ATOM     15  C   UNL     1      46.456   2.483   7.709  0.00  0.00    +0.000 A 
ATOM     16  C   UNL     1      45.643   1.842   8.646  0.00  0.00    +0.000 A 
ATOM     17  C   UNL     1      44.773   2.606   9.426  0.00  0.00    +0.000 A 
ATOM     18  C   UNL     1      44.751   3.981   9.239  0.00  0.00    +0.000 A 
ATOM     19  N   UNL     1      45.537   4.625   8.349  0.00  0.00    +0.000 NA
ATOM     20  C   UNL     1      46.380   3.864   7.612  0.00  0.00    +0.000 A 
BRANCH  15  22
ATOM     21  N   UNL     1      48.481   2.478   6.365  0.00  0.00    +0.000 N 
ATOM     22  C   UNL     1      47.403   1.774   6.825  0.00  0.00    +0.000 C 
ATOM     23  O   UNL     1      47.254   0.591   6.552  0.00  0.00    +0.000 OA
ATOM     24  H   UNL     1      49.179   1.941   5.866  0.00  0.00    +0.000 HD
ATOM     25  H   UNL     1      48.773   3.354   6.774  0.00  0.00    +0.000 HD
ENDBRANCH  15  22
ENDBRANCH  14  18
ENDBRANCH   1  14
TORSDOF 5
ENDMDL
MODEL 3
REMARK VINA RESULT:    -8.335      1.818      2.784
REMARK INTER + INTRA:         -11.541
REMARK INTER:                 -10.879
REMARK INTRA:                  -0.662
REMARK UNBOUND:                -0.770
REMARK  Name = 
REMARK  5 active torsions:
REMARK  status: ('A' for Active; 'I' for Inactive)
REMARK    1  A    between atoms: C_2  and  C_4
REMARK    2  A    between atoms: C_7  and  O_8
REMARK    3  A    between atoms: O_8  and  C_9
REMARK    4  A    between atoms: C_9  and  C_10
REMARK    5  A    between atoms: C_14  and  C_15
REMARK                            x       y       z     vdW  Elec       q    Type
REMARK                         _______ _______ _______ _____ _____    ______ ____
ROOT
ATOM      1  C   UNL     1      43.759   4.290  11.349  0.00  0.00    +0.000 C 
ENDROOT
BRANCH   1   2
ATOM      2  C   UNL     1      44.866   5.109  11.956  0.00  0.00    +0.000 A 
ATOM      3  C   UNL     1      45.158   6.369  11.453  0.00  0.00    +0.000 A 
ATOM      4  N   UNL     1      46.105   7.184  11.963  0.00  0.00    +0.000 NA
ATOM      5  C   UNL     1      46.792   6.719  13.037  0.00  0.00    +0.000 A 
ATOM      6  C   UNL     1      46.582   5.486  13.656  0.00  0.00    +0.000 A 
ATOM      7  C   UNL     1      45.578   4.687  13.087  0.00  0.00    +0.000 A 
BRANCH   6   8
ATOM      8  C   UNL     1      47.355   5.047  14.835  0.00  0.00    +0.000 A 
ATOM      9  C   UNL     1      47.165   3.796  15.439  0.00  0.00    +0.000 A 
ATOM     10  C   UNL     1      47.924   3.416  16.546  0.00  0.00    +0.000 A 
ATOM     11  C   UNL     1      48.873   4.299  17.028  0.00  0.00    +0.000 A 
ATOM     12  N   UNL     1      49.098   5.513  16.492  0.00  0.00    +0.000 NA
ATOM     13  C   UNL     1      48.335   5.854  15.423  0.00  0.00    +0.000 A 
ENDBRANCH   6   8
ENDBRANCH   1   2
BRANCH   1  14
ATOM     14  O   UNL     1      43.639   4.566   9.948  0.00  0.00    +0.000 OA
BRANCH  14  18
ATOM     15  C   UNL     1      46.362   2.413   7.737  0.00  0.00    +0.000 A 
ATOM     16  C   UNL     1      45.586   1.762   8.697  0.00  0.00    +0.000 A 
ATOM     17  C   UNL     1      44.669   2.502   9.446  0.00  0.00    +0.000 A 
ATOM     18  C   UNL     1      44.564   3.865   9.204  0.00  0.00    +0.000 A 
ATOM     19  N   UNL     1      45.313   4.520   8.290  0.00  0.00    +0.000 NA
ATOM     20  C   UNL     1      46.203   3.782   7.585  0.00  0.00    +0.000 A 
BRANCH  15  22
ATOM     21  N   UNL     1      48.456   2.441   6.503  0.00  0.00    +0.000 N 
ATOM     22  C   UNL     1      47.353   1.728   6.882  0.00  0.00    +0.000 C 
ATOM     23  O   UNL     1      47.216   0.556   6.564  0.00  0.00    +0.000 OA
ATOM     24  H   UNL     1      49.178   1.918   6.025  0.00  0.00    +0.000 HD
ATOM     25  H   UNL     1      48.728   3.303   6.955  0.00  0.00    +0.000 HD
ENDBRANCH  15  22
ENDBRANCH  14  18
ENDBRANCH   1  14
TORSDOF 5
ENDMDL
MODEL 4
REMARK VINA RESULT:    -8.046      1.351      1.781
REMARK INTER + INTRA:         -11.168
REMARK INTER:                 -10.547
REMARK INTRA:                  -0.621
REMARK UNBOUND:                -0.770
REMARK  Name = 
REMARK  5 active torsions:
REMARK  status: ('A' for Active; 'I' for Inactive)
REMARK    1  A    between atoms: C_2  and  C_4
REMARK    2  A    between atoms: C_7  and  O_8
REMARK    3  A    between atoms: O_8  and  C_9
REMARK    4  A    between atoms: C_9  and  C_10
REMARK    5  A    between atoms: C_14  and  C_15
REMARK                            x       y       z     vdW  Elec       q    Type
REMARK                         _______ _______ _______ _____ _____    ______ ____
ROOT
ATOM      1  C   UNL     1      44.175   3.453  11.465  0.00  0.00    +0.000 C 
ENDROOT
BRANCH   1   2
ATOM      2  C   UNL     1      44.564   4.902  11.585  0.00  0.00    +0.000 A 
ATOM      3  C   UNL     1      43.628   5.899  11.341  0.00  0.00    +0.000 A 
ATOM      4  N   UNL     1      43.880   7.218  11.465  0.00  0.00    +0.000 NA
ATOM      5  C   UNL     1      45.132   7.562  11.859  0.00  0.00    +0.000 A 
ATOM      6  C   UNL     1      46.158   6.664  12.161  0.00  0.00    +0.000 A 
ATOM      7  C   UNL     1      45.832   5.306  12.023  0.00  0.00    +0.000 A 
BRANCH   6   8
ATOM      8  C   UNL     1      47.495   7.106  12.603  0.00  0.00    +0.000 A 
ATOM      9  C   UNL     1      48.139   8.225  12.055  0.00  0.00    +0.000 A 
ATOM     10  C   UNL     1      49.400   8.615  12.508  0.00  0.00    +0.000 A 
ATOM     11  C   UNL     1      49.995   7.878  13.515  0.00  0.00    +0.000 A 
ATOM     12  N   UNL     1      49.427   6.794  14.076  0.00  0.00    +0.000 NA
ATOM     13  C   UNL     1      48.205   6.437  13.605  0.00  0.00    +0.000 A 
ENDBRANCH   6   8
ENDBRANCH   1   2
BRANCH   1  14
ATOM     14  O   UNL     1      43.609   3.189  10.176  0.00  0.00    +0.000 OA
BRANCH  14  18
ATOM     15  C   UNL     1      46.523   2.569   7.336  0.00  0.00    +0.000 A 
ATOM     16  C   UNL     1      45.927   3.827   7.448  0.00  0.00    +0.000 A 
ATOM     17  C   UNL     1      44.936   4.025   8.411  0.00  0.00    +0.000 A 
ATOM     18  C   UNL     1      44.580   2.958   9.224  0.00  0.00    +0.000 A 
ATOM     19  N   UNL     1      45.132   1.729   9.126  0.00  0.00    +0.000 NA
ATOM     20  C   UNL     1      46.083   1.558   8.177  0.00  0.00    +0.000 A 
BRANCH  15  22
ATOM     21  N   UNL     1      47.714   3.075   5.278  0.00  0.00    +0.000 N 
ATOM     22  C   UNL     1      47.587   2.251   6.362  0.00  0.00    +0.000 C 
ATOM     23  O   UNL     1      48.352   1.315   6.540  0.00  0.00    +0.000 OA
ATOM     24  H   UNL     1      48.523   2.914   4.693  0.00  0.00    +0.000 HD
ATOM     25  H   UNL     1      47.284   3.989   5.237  0.00  0.00    +0.000 HD
ENDBRANCH  15  22
ENDBRANCH  14  18
ENDBRANCH   1  14
TORSDOF 5
ENDMDL
MODEL 5
REMARK VINA RESULT:    -7.841      2.575      6.500
REMARK INTER + INTRA:         -10.903
REMARK INTER:                 -10.164
REMARK INTRA:                  -0.739
REMARK UNBOUND:                -0.770
REMARK  Name = 
REMARK  5 active torsions:
REMARK  status: ('A' for Active; 'I' for Inactive)
REMARK    1  A    between atoms: C_2  and  C_4
REMARK    2  A    between atoms: C_7  and  O_8
REMARK    3  A    between atoms: O_8  and  C_9
REMARK    4  A    between atoms: C_9  and  C_10
REMARK    5  A    between atoms: C_14  and  C_15
REMARK                            x       y       z     vdW  Elec       q    Type
REMARK                         _______ _______ _______ _____ _____    ______ ____
ROOT
ATOM      1  C   UNL     1      43.515   6.088  11.107  0.00  0.00    +0.000 C 
ENDROOT
BRANCH   1   2
ATOM      2  C   UNL     1      43.811   4.666  10.712  0.00  0.00    +0.000 A 
ATOM      3  C   UNL     1      43.181   3.615  11.365  0.00  0.00    +0.000 A 
ATOM      4  N   UNL     1      43.358   2.316  11.048  0.00  0.00    +0.000 NA
ATOM      5  C   UNL     1      44.204   2.051  10.021  0.00  0.00    +0.000 A 
ATOM      6  C   UNL     1      44.879   3.011   9.265  0.00  0.00    +0.000 A 
ATOM      7  C   UNL     1      44.648   4.344   9.636  0.00  0.00    +0.000 A 
BRANCH   6   8
ATOM      8  C   UNL     1      45.774   2.655   8.147  0.00  0.00    +0.000 A 
ATOM      9  C   UNL     1      46.090   3.553   7.118  0.00  0.00    +0.000 A 
ATOM     10  C   UNL     1      46.949   3.180   6.083  0.00  0.00    +0.000 A 
ATOM     11  C   UNL     1      47.486   1.906   6.101  0.00  0.00    +0.000 A 
ATOM     12  N   UNL     1      47.217   1.000   7.059  0.00  0.00    +0.000 NA
ATOM     13  C   UNL     1      46.371   1.394   8.045  0.00  0.00    +0.000 A 
ENDBRANCH   6   8
ENDBRANCH   1   2
BRANCH   1  14
ATOM     14  O   UNL     1      43.783   6.290  12.500  0.00  0.00    +0.000 OA
BRANCH  14  18
ATOM     15  C   UNL     1      47.808   6.742  13.230  0.00  0.00    +0.000 A 
ATOM     16  C   UNL     1      47.175   5.548  13.579  0.00  0.00    +0.000 A 
ATOM     17  C   UNL     1      45.808   5.407  13.332  0.00  0.00    +0.000 A 
ATOM     18  C   UNL     1      45.129   6.465  12.745  0.00  0.00    +0.000 A 
ATOM     19  N   UNL     1      45.716   7.635  12.411  0.00  0.00    +0.000 NA
ATOM     20  C   UNL     1      47.040   7.752  12.671  0.00  0.00    +0.000 A 
BRANCH  15  22
ATOM     21  N   UNL     1      49.991   7.329  12.336  0.00  0.00    +0.000 N 
ATOM     22  C   UNL     1      49.249   6.995  13.435  0.00  0.00    +0.000 C 
ATOM     23  O   UNL     1      49.749   6.953  14.550  0.00  0.00    +0.000 OA
ATOM     24  H   UNL     1      50.944   7.619  12.518  0.00  0.00    +0.000 HD
ATOM     25  H   UNL     1      49.572   7.628  11.467  0.00  0.00    +0.000 HD
ENDBRANCH  15  22
ENDBRANCH  14  18
ENDBRANCH   1  14
TORSDOF 5
ENDMDL
MODEL 6
REMARK VINA RESULT:    -7.383      2.572      6.542
REMARK INTER + INTRA:         -10.310
REMARK INTER:                  -9.509
REMARK INTRA:                  -0.801
REMARK UNBOUND:                -0.770
REMARK  Name = 
REMARK  5 active torsions:
REMARK  status: ('A' for Active; 'I' for Inactive)
REMARK    1  A    between atoms: C_2  and  C_4
REMARK    2  A    between atoms: C_7  and  O_8
REMARK    3  A    between atoms: O_8  and  C_9
REMARK    4  A    between atoms: C_9  and  C_10
REMARK    5  A    between atoms: C_14  and  C_15
REMARK                            x       y       z     vdW  Elec       q    Type
REMARK                         _______ _______ _______ _____ _____    ______ ____
ROOT
ATOM      1  C   UNL     1      44.169   6.364  11.655  0.00  0.00    +0.000 C 
ENDROOT
BRANCH   1   2
ATOM      2  C   UNL     1      44.172   4.953  11.132  0.00  0.00    +0.000 A 
ATOM      3  C   UNL     1      43.321   4.003  11.682  0.00  0.00    +0.000 A 
ATOM      4  N   UNL     1      43.232   2.729  11.247  0.00  0.00    +0.000 NA
ATOM      5  C   UNL     1      44.029   2.387  10.203  0.00  0.00    +0.000 A 
ATOM      6  C   UNL     1      44.907   3.247   9.543  0.00  0.00    +0.000 A 
ATOM      7  C   UNL     1      44.949   4.561  10.035  0.00  0.00    +0.000 A 
BRANCH   6   8
ATOM      8  C   UNL     1      45.735   2.813   8.400  0.00  0.00    +0.000 A 
ATOM      9  C   UNL     1      46.243   1.511   8.288  0.00  0.00    +0.000 A 
ATOM     10  C   UNL     1      47.014   1.139   7.186  0.00  0.00    +0.000 A 
ATOM     11  C   UNL     1      47.256   2.081   6.203  0.00  0.00    +0.000 A 
ATOM     12  N   UNL     1      46.797   3.345   6.258  0.00  0.00    +0.000 NA
ATOM     13  C   UNL     1      46.060   3.676   7.348  0.00  0.00    +0.000 A 
ENDBRANCH   6   8
ENDBRANCH   1   2
BRANCH   1  14
ATOM     14  O   UNL     1      44.925   6.453  12.868  0.00  0.00    +0.000 OA
BRANCH  14  18
ATOM     15  C   UNL     1      48.765   7.773  12.195  0.00  0.00    +0.000 A 
ATOM     16  C   UNL     1      48.558   6.497  12.723  0.00  0.00    +0.000 A 
ATOM     17  C   UNL     1      47.252   6.061  12.953  0.00  0.00    +0.000 A 
ATOM     18  C   UNL     1      46.204   6.918  12.645  0.00  0.00    +0.000 A 
ATOM     19  N   UNL     1      46.380   8.161  12.147  0.00  0.00    +0.000 NA
ATOM     20  C   UNL     1      47.656   8.566  11.943  0.00  0.00    +0.000 A 
BRANCH  15  22
ATOM     21  N   UNL     1      51.123   7.445  11.704  0.00  0.00    +0.000 N 
ATOM     22  C   UNL     1      50.101   8.331  11.903  0.00  0.00    +0.000 C 
ATOM     23  O   UNL     1      50.277   9.536  11.798  0.00  0.00    +0.000 OA
ATOM     24  H   UNL     1      51.997   7.842  11.384  0.00  0.00    +0.000 HD
ATOM     25  H   UNL     1      50.964   6.464  11.523  0.00  0.00    +0.000 HD
ENDBRANCH  15  22
ENDBRANCH  14  18
ENDBRANCH   1  14
TORSDOF 5
ENDMDL
MODEL 7
REMARK VINA RESULT:    -7.290      2.671      7.268
REMARK INTER + INTRA:         -10.191
REMARK INTER:                  -9.882
REMARK INTRA:                  -0.309
REMARK UNBOUND:                -0.770
REMARK  Name = 
REMARK  5 active torsions:
REMARK  status: ('A' for Active; 'I' for Inactive)
REMARK    1  A    between atoms: C_2  and  C_4
REMARK    2  A    between atoms: C_7  and  O_8
REMARK    3  A    between atoms: O_8  and  C_9
REMARK    4  A    between atoms: C_9  and  C_10
REMARK    5  A    between atoms: C_14  and  C_15
REMARK                            x       y       z     vdW  Elec       q    Type
REMARK                         _______ _______ _______ _____ _____    ______ ____
ROOT
ATOM      1  C   UNL     1      45.253   6.465  11.408  0.00  0.00    +0.000 C 
ENDROOT
BRANCH   1   2
ATOM      2  C   UNL     1      44.922   5.127  10.804  0.00  0.00    +0.000 A 
ATOM      3  C   UNL     1      43.844   4.393  11.280  0.00  0.00    +0.000 A 
ATOM      4  N   UNL     1      43.455   3.207  10.770  0.00  0.00    +0.000 NA
ATOM      5  C   UNL     1      44.175   2.730   9.724  0.00  0.00    +0.000 A 
ATOM      6  C   UNL     1      45.262   3.375   9.132  0.00  0.00    +0.000 A 
ATOM      7  C   UNL     1      45.614   4.609   9.701  0.00  0.00    +0.000 A 
BRANCH   6   8
ATOM      8  C   UNL     1      45.994   2.807   7.983  0.00  0.00    +0.000 A 
ATOM      9  C   UNL     1      46.246   3.538   6.814  0.00  0.00    +0.000 A 
ATOM     10  C   UNL     1      46.951   2.966   5.753  0.00  0.00    +0.000 A 
ATOM     11  C   UNL     1      47.400   1.666   5.886  0.00  0.00    +0.000 A 
ATOM     12  N   UNL     1      47.186   0.915   6.983  0.00  0.00    +0.000 NA
ATOM     13  C   UNL     1      46.490   1.499   7.991  0.00  0.00    +0.000 A 
ENDBRANCH   6   8
ENDBRANCH   1   2
BRANCH   1  14
ATOM     14  O   UNL     1      46.669   6.603  11.580  0.00  0.00    +0.000 OA
BRANCH  14  18
ATOM     15  C   UNL     1      47.900   5.467  15.339  0.00  0.00    +0.000 A 
ATOM     16  C   UNL     1      48.372   6.661  14.791  0.00  0.00    +0.000 A 
ATOM     17  C   UNL     1      47.952   7.035  13.513  0.00  0.00    +0.000 A 
ATOM     18  C   UNL     1      47.077   6.199  12.834  0.00  0.00    +0.000 A 
ATOM     19  N   UNL     1      46.618   5.032  13.337  0.00  0.00    +0.000 NA
ATOM     20  C   UNL     1      47.048   4.686  14.573  0.00  0.00    +0.000 A 
BRANCH  15  22
ATOM     21  N   UNL     1      47.543   5.451  17.744  0.00  0.00    +0.000 N 
ATOM     22  C   UNL     1      48.269   4.981  16.684  0.00  0.00    +0.000 C 
ATOM     23  O   UNL     1      49.158   4.157  16.841  0.00  0.00    +0.000 OA
ATOM     24  H   UNL     1      47.730   5.013  18.636  0.00  0.00    +0.000 HD
ATOM     25  H   UNL     1      46.652   5.914  17.630  0.00  0.00    +0.000 HD
ENDBRANCH  15  22
ENDBRANCH  14  18
ENDBRANCH   1  14
TORSDOF 5
ENDMDL
MODEL 8
REMARK VINA RESULT:    -6.821      2.887      6.959
REMARK INTER + INTRA:          -9.585
REMARK INTER:                  -8.965
REMARK INTRA:                  -0.620
REMARK UNBOUND:                -0.770
REMARK  Name = 
REMARK  5 active torsions:
REMARK  status: ('A' for Active; 'I' for Inactive)
REMARK    1  A    between atoms: C_2  and  C_4
REMARK    2  A    between atoms: C_7  and  O_8
REMARK    3  A    between atoms: O_8  and  C_9
REMARK    4  A    between atoms: C_9  and  C_10
REMARK    5  A    between atoms: C_14  and  C_15
REMARK                            x       y       z     vdW  Elec       q    Type
REMARK                         _______ _______ _______ _____ _____    ______ ____
ROOT
ATOM      1  C   UNL     1      45.361   4.742  13.325  0.00  0.00    +0.000 C 
ENDROOT
BRANCH   1   2
ATOM      2  C   UNL     1      44.851   3.827  12.245  0.00  0.00    +0.000 A 
ATOM      3  C   UNL     1      43.644   3.159  12.407  0.00  0.00    +0.000 A 
ATOM      4  N   UNL     1      43.096   2.353  11.474  0.00  0.00    +0.000 NA
ATOM      5  C   UNL     1      43.785   2.212  10.314  0.00  0.00    +0.000 A 
ATOM      6  C   UNL     1      44.992   2.844  10.010  0.00  0.00    +0.000 A 
ATOM      7  C   UNL     1      45.507   3.676  11.016  0.00  0.00    +0.000 A 
BRANCH   6   8
ATOM      8  C   UNL     1      45.682   2.659   8.719  0.00  0.00    +0.000 A 
ATOM      9  C   UNL     1      45.872   3.708   7.808  0.00  0.00    +0.000 A 
ATOM     10  C   UNL     1      46.539   3.493   6.601  0.00  0.00    +0.000 A 
ATOM     11  C   UNL     1      47.015   2.224   6.329  0.00  0.00    +0.000 A 
ATOM     12  N   UNL     1      46.860   1.178   7.163  0.00  0.00    +0.000 NA
ATOM     13  C   UNL     1      46.199   1.421   8.323  0.00  0.00    +0.000 A 
ENDBRANCH   6   8
ENDBRANCH   1   2
BRANCH   1  14
ATOM     14  O   UNL     1      46.627   5.300  12.955  0.00  0.00    +0.000 OA
BRANCH  14  18
ATOM     15  C   UNL     1      46.416   9.322  12.106  0.00  0.00    +0.000 A 
ATOM     16  C   UNL     1      47.652   8.674  12.070  0.00  0.00    +0.000 A 
ATOM     17  C   UNL     1      47.714   7.310  12.365  0.00  0.00    +0.000 A 
ATOM     18  C   UNL     1      46.536   6.649  12.684  0.00  0.00    +0.000 A 
ATOM     19  N   UNL     1      45.331   7.256  12.739  0.00  0.00    +0.000 NA
ATOM     20  C   UNL     1      45.298   8.581  12.460  0.00  0.00    +0.000 A 
BRANCH  15  22
ATOM     21  N   UNL     1      47.276  11.409  11.206  0.00  0.00    +0.000 N 
ATOM     22  C   UNL     1      46.233  10.755  11.802  0.00  0.00    +0.000 C 
ATOM     23  O   UNL     1      45.176  11.324  12.032  0.00  0.00    +0.000 OA
ATOM     24  H   UNL     1      47.086  12.353  10.894  0.00  0.00    +0.000 HD
ATOM     25  H   UNL     1      48.045  10.921  10.769  0.00  0.00    +0.000 HD
ENDBRANCH  15  22
ENDBRANCH  14  18
ENDBRANCH   1  14
TORSDOF 5
ENDMDL
MODEL 9
REMARK VINA RESULT:    -6.410      4.078      8.293
REMARK INTER + INTRA:          -9.054
REMARK INTER:                  -8.434
REMARK INTRA:                  -0.620
REMARK UNBOUND:                -0.770
REMARK  Name = 
REMARK  5 active torsions:
REMARK  status: ('A' for Active; 'I' for Inactive)
REMARK    1  A    between atoms: C_2  and  C_4
REMARK    2  A    between atoms: C_7  and  O_8
REMARK    3  A    between atoms: O_8  and  C_9
REMARK    4  A    between atoms: C_9  and  C_10
REMARK    5  A    between atoms: C_14  and  C_15
REMARK                            x       y       z     vdW  Elec       q    Type
REMARK                         _______ _______ _______ _____ _____    ______ ____
ROOT
ATOM      1  C   UNL     1      47.989   7.484  13.877  0.00  0.00    +0.000 C 
ENDROOT
BRANCH   1   2
ATOM      2  C   UNL     1      46.791   7.410  12.968  0.00  0.00    +0.000 A 
ATOM      3  C   UNL     1      45.968   8.516  12.807  0.00  0.00    +0.000 A 
ATOM      4  N   UNL     1      44.900   8.548  11.984  0.00  0.00    +0.000 NA
ATOM      5  C   UNL     1      44.644   7.418  11.278  0.00  0.00    +0.000 A 
ATOM      6  C   UNL     1      45.403   6.248  11.325  0.00  0.00    +0.000 A 
ATOM      7  C   UNL     1      46.506   6.279  12.193  0.00  0.00    +0.000 A 
BRANCH   6   8
ATOM      8  C   UNL     1      45.078   5.057  10.516  0.00  0.00    +0.000 A 
ATOM      9  C   UNL     1      45.584   4.863   9.223  0.00  0.00    +0.000 A 
ATOM     10  C   UNL     1      45.260   3.717   8.495  0.00  0.00    +0.000 A 
ATOM     11  C   UNL     1      44.436   2.775   9.082  0.00  0.00    +0.000 A 
ATOM     12  N   UNL     1      43.919   2.908  10.318  0.00  0.00    +0.000 NA
ATOM     13  C   UNL     1      44.247   4.038  10.994  0.00  0.00    +0.000 A 
ENDBRANCH   6   8
ENDBRANCH   1   2
BRANCH   1  14
ATOM     14  O   UNL     1      48.527   6.176  14.108  0.00  0.00    +0.000 OA
BRANCH  14  18
ATOM     15  C   UNL     1      48.490   5.249  18.118  0.00  0.00    +0.000 A 
ATOM     16  C   UNL     1      49.094   6.433  17.690  0.00  0.00    +0.000 A 
ATOM     17  C   UNL     1      49.105   6.736  16.327  0.00  0.00    +0.000 A 
ATOM     18  C   UNL     1      48.513   5.843  15.446  0.00  0.00    +0.000 A 
ATOM     19  N   UNL     1      47.934   4.685  15.834  0.00  0.00    +0.000 NA
ATOM     20  C   UNL     1      47.945   4.408  17.159  0.00  0.00    +0.000 A 
BRANCH  15  22
ATOM     21  N   UNL     1      48.407   3.494  19.797  0.00  0.00    +0.000 N 
ATOM     22  C   UNL     1      48.410   4.836  19.534  0.00  0.00    +0.000 C 
ATOM     23  O   UNL     1      48.393   5.659  20.437  0.00  0.00    +0.000 OA
ATOM     24  H   UNL     1      48.478   3.235  20.773  0.00  0.00    +0.000 HD
ATOM     25  H   UNL     1      48.683   2.805  19.112  0.00  0.00    +0.000 HD
ENDBRANCH  15  22
ENDBRANCH  14  18
ENDBRANCH   1  14
TORSDOF 5
ENDMDL
