MODEL 1
REMARK VINA RESULT:    -8.693      0.000      0.000
REMARK INTER + INTRA:         -11.881
REMARK INTER:                 -10.726
REMARK INTRA:                  -1.155
REMARK UNBOUND:                -1.155
REMARK  Name = 
REMARK  4 active torsions:
REMARK  status: ('A' for Active; 'I' for Inactive)
REMARK    1  A    between atoms: C_2  and  C_4
REMARK    2  A    between atoms: N_8  and  C_9
REMARK    3  A    between atoms: C_9  and  C_10
REMARK    4  A    between atoms: C_14  and  C_15
REMARK                            x       y       z     vdW  Elec       q    Type
REMARK                         _______ _______ _______ _____ _____    ______ ____
ROOT
ATOM      1  C   UNL     1      43.821   5.008  11.271  0.00  0.00    +0.000 C 
ATOM      2  C   UNL     1      42.431   5.342  11.786  0.00  0.00    +0.000 C 
ATOM      3  C   UNL     1      43.197   6.364  11.014  0.00  0.00    +0.000 C 
ENDROOT
BRANCH   1   8
ATOM      4  C   UNL     1      46.634   2.791   7.477  0.00  0.00    +0.000 A 
ATOM      5  C   UNL     1      46.434   4.152   7.686  0.00  0.00    +0.000 A 
ATOM      6  C   UNL     1      45.548   4.566   8.686  0.00  0.00    +0.000 A 
ATOM      7  C   UNL     1      44.877   3.609   9.434  0.00  0.00    +0.000 A 
ATOM      8  N   UNL     1      43.817   3.906  10.291  0.00  0.00    +0.000 N 
ATOM      9  N   UNL     1      45.100   2.286   9.270  0.00  0.00    +0.000 NA
ATOM     10  C   UNL     1      45.967   1.904   8.302  0.00  0.00    +0.000 A 
ATOM     11  H   UNL     1      43.575   2.999  10.691  0.00  0.00    +0.000 HD
BRANCH   4  13
ATOM     12  N   UNL     1      47.741   3.036   5.320  0.00  0.00    +0.000 N 
ATOM     13  C   UNL     1      47.468   2.236   6.387  0.00  0.00    +0.000 C 
ATOM     14  O   UNL     1      47.915   1.095   6.440  0.00  0.00    +0.000 OA
ATOM     15  H   UNL     1      48.366   2.656   4.615  0.00  0.00    +0.000 HD
ATOM     16  H   UNL     1      47.582   4.029   5.319  0.00  0.00    +0.000 HD
ENDBRANCH   4  13
ENDBRANCH   1   8
BRANCH   1  17
ATOM     17  C   UNL     1      45.007   4.922  12.224  0.00  0.00    +0.000 A 
ATOM     18  C   UNL     1      45.313   3.725  12.891  0.00  0.00    +0.000 A 
ATOM     19  C   UNL     1      46.540   3.547  13.526  0.00  0.00    +0.000 A 
ATOM     20  C   UNL     1      47.482   4.578  13.525  0.00  0.00    +0.000 A 
ATOM     21  C   UNL     1      47.204   5.814  12.922  0.00  0.00    +0.000 A 
ATOM     22  C   UNL     1      45.949   5.967  12.304  0.00  0.00    +0.000 A 
BRANCH  21  23
ATOM     23  C   UNL     1      48.220   6.882  12.838  0.00  0.00    +0.000 A 
ATOM     24  C   UNL     1      48.349   7.688  11.698  0.00  0.00    +0.000 A 
ATOM     25  C   UNL     1      49.271   8.729  11.667  0.00  0.00    +0.000 A 
ATOM     26  C   UNL     1      50.056   8.948  12.783  0.00  0.00    +0.000 A 
ATOM     27  N   UNL     1      49.979   8.202  13.904  0.00  0.00    +0.000 NA
ATOM     28  C   UNL     1      49.071   7.192  13.901  0.00  0.00    +0.000 A 
ENDBRANCH  21  23
ENDBRANCH   1  17
TORSDOF 4
ENDMDL
MODEL 2
REMARK VINA RESULT:    -8.554      1.904      2.928
REMARK INTER + INTRA:         -11.709
REMARK INTER:                 -11.240
REMARK INTRA:                  -0.470
REMARK UNBOUND:                -1.155
REMARK  Name = 
REMARK  4 active torsions:
REMARK  status: ('A' for Active; 'I' for Inactive)
REMARK    1  A    between atoms: C_2  and  C_4
REMARK    2  A    between atoms: N_8  and  C_9
REMARK    3  A    between atoms: C_9  and  C_10
REMARK    4  A    between atoms: C_14  and  C_15
REMARK                            x       y       z     vdW  Elec       q    Type
REMARK                         _______ _______ _______ _____ _____    ______ ____
ROOT
ATOM      1  C   UNL     1      43.893   5.023  11.392  0.00  0.00    +0.000 C 
ATOM      2  C   UNL     1      42.737   5.020  12.378  0.00  0.00    +0.000 C 
ATOM      3  C   UNL     1      42.833   6.105  11.357  0.00  0.00    +0.000 C 
ENDROOT
BRANCH   1   8
ATOM      4  C   UNL     1      46.490   2.735   7.488  0.00  0.00    +0.000 A 
ATOM      5  C   UNL     1      46.187   4.087   7.614  0.00  0.00    +0.000 A 
ATOM      6  C   UNL     1      45.375   4.509   8.672  0.00  0.00    +0.000 A 
ATOM      7  C   UNL     1      44.878   3.566   9.561  0.00  0.00    +0.000 A 
ATOM      8  N   UNL     1      43.890   3.844  10.506  0.00  0.00    +0.000 N 
ATOM      9  N   UNL     1      45.205   2.258   9.474  0.00  0.00    +0.000 NA
ATOM     10  C   UNL     1      45.999   1.869   8.447  0.00  0.00    +0.000 A 
ATOM     11  H   UNL     1      43.777   2.958  10.998  0.00  0.00    +0.000 HD
BRANCH   4  13
ATOM     12  N   UNL     1      47.380   2.908   5.225  0.00  0.00    +0.000 N 
ATOM     13  C   UNL     1      47.255   2.162   6.357  0.00  0.00    +0.000 C 
ATOM     14  O   UNL     1      47.773   1.052   6.431  0.00  0.00    +0.000 OA
ATOM     15  H   UNL     1      47.961   2.521   4.487  0.00  0.00    +0.000 HD
ATOM     16  H   UNL     1      47.161   3.888   5.184  0.00  0.00    +0.000 HD
ENDBRANCH   4  13
ENDBRANCH   1   8
BRANCH   1  17
ATOM     17  C   UNL     1      45.300   5.398  11.840  0.00  0.00    +0.000 A 
ATOM     18  C   UNL     1      46.007   6.435  11.210  0.00  0.00    +0.000 A 
ATOM     19  C   UNL     1      47.155   6.977  11.784  0.00  0.00    +0.000 A 
ATOM     20  C   UNL     1      47.634   6.474  12.995  0.00  0.00    +0.000 A 
ATOM     21  C   UNL     1      46.999   5.401  13.636  0.00  0.00    +0.000 A 
ATOM     22  C   UNL     1      45.851   4.865  13.023  0.00  0.00    +0.000 A 
BRANCH  21  23
ATOM     23  C   UNL     1      47.442   4.914  14.957  0.00  0.00    +0.000 A 
ATOM     24  C   UNL     1      48.226   5.705  15.809  0.00  0.00    +0.000 A 
ATOM     25  C   UNL     1      48.579   5.248  17.074  0.00  0.00    +0.000 A 
ATOM     26  C   UNL     1      48.142   3.998  17.470  0.00  0.00    +0.000 A 
ATOM     27  N   UNL     1      47.391   3.192  16.692  0.00  0.00    +0.000 NA
ATOM     28  C   UNL     1      47.066   3.667  15.462  0.00  0.00    +0.000 A 
ENDBRANCH  21  23
ENDBRANCH   1  17
TORSDOF 4
ENDMDL
MODEL 3
REMARK VINA RESULT:    -6.756      3.880      8.259
REMARK INTER + INTRA:          -9.491
REMARK INTER:                  -8.462
REMARK INTRA:                  -1.029
REMARK UNBOUND:                -1.155
REMARK  Name = 
REMARK  4 active torsions:
REMARK  status: ('A' for Active; 'I' for Inactive)
REMARK    1  A    between atoms: C_2  and  C_4
REMARK    2  A    between atoms: N_8  and  C_9
REMARK    3  A    between atoms: C_9  and  C_10
REMARK    4  A    between atoms: C_14  and  C_15
REMARK                            x       y       z     vdW  Elec       q    Type
REMARK                         _______ _______ _______ _____ _____    ______ ____
ROOT
ATOM      1  C   UNL     1      48.851   7.885  12.571  0.00  0.00    +0.000 C 
ATOM      2  C   UNL     1      49.810   8.077  11.408  0.00  0.00    +0.000 C 
ATOM      3  C   UNL     1      49.431   9.247  12.254  0.00  0.00    +0.000 C 
ENDROOT
BRANCH   1   8
ATOM      4  C   UNL     1      48.528   6.724  17.648  0.00  0.00    +0.000 A 
ATOM      5  C   UNL     1      48.575   7.993  17.080  0.00  0.00    +0.000 A 
ATOM      6  C   UNL     1      48.783   8.117  15.702  0.00  0.00    +0.000 A 
ATOM      7  C   UNL     1      48.954   6.971  14.938  0.00  0.00    +0.000 A 
ATOM      8  N   UNL     1      49.387   6.988  13.612  0.00  0.00    +0.000 N 
ATOM      9  N   UNL     1      48.863   5.734  15.473  0.00  0.00    +0.000 NA
ATOM     10  C   UNL     1      48.653   5.633  16.808  0.00  0.00    +0.000 A 
ATOM     11  H   UNL     1      49.383   6.003  13.349  0.00  0.00    +0.000 HD
BRANCH   4  13
ATOM     12  N   UNL     1      47.613   5.451  19.514  0.00  0.00    +0.000 N 
ATOM     13  C   UNL     1      48.412   6.474  19.102  0.00  0.00    +0.000 C 
ATOM     14  O   UNL     1      49.021   7.155  19.920  0.00  0.00    +0.000 OA
ATOM     15  H   UNL     1      47.598   5.259  20.511  0.00  0.00    +0.000 HD
ATOM     16  H   UNL     1      47.262   4.741  18.894  0.00  0.00    +0.000 HD
ENDBRANCH   4  13
ENDBRANCH   1   8
BRANCH   1  17
ATOM     17  C   UNL     1      47.364   7.654  12.327  0.00  0.00    +0.000 A 
ATOM     18  C   UNL     1      46.430   8.684  12.521  0.00  0.00    +0.000 A 
ATOM     19  C   UNL     1      45.130   8.580  12.032  0.00  0.00    +0.000 A 
ATOM     20  C   UNL     1      44.730   7.426  11.355  0.00  0.00    +0.000 A 
ATOM     21  C   UNL     1      45.606   6.344  11.185  0.00  0.00    +0.000 A 
ATOM     22  C   UNL     1      46.907   6.474  11.705  0.00  0.00    +0.000 A 
BRANCH  21  23
ATOM     23  C   UNL     1      45.225   5.154  10.399  0.00  0.00    +0.000 A 
ATOM     24  C   UNL     1      45.661   4.973   9.078  0.00  0.00    +0.000 A 
ATOM     25  C   UNL     1      45.340   3.813   8.380  0.00  0.00    +0.000 A 
ATOM     26  C   UNL     1      44.584   2.847   9.016  0.00  0.00    +0.000 A 
ATOM     27  N   UNL     1      44.134   2.970  10.282  0.00  0.00    +0.000 NA
ATOM     28  C   UNL     1      44.461   4.114  10.935  0.00  0.00    +0.000 A 
ENDBRANCH  21  23
ENDBRANCH   1  17
TORSDOF 4
ENDMDL
MODEL 4
REMARK VINA RESULT:    -6.636      1.217      2.066
REMARK INTER + INTRA:          -9.343
REMARK INTER:                  -9.531
REMARK INTRA:                   0.188
REMARK UNBOUND:                -1.155
REMARK  Name = 
REMARK  4 active torsions:
REMARK  status: ('A' for Active; 'I' for Inactive)
REMARK    1  A    between atoms: C_2  and  C_4
REMARK    2  A    between atoms: N_8  and  C_9
REMARK    3  A    between atoms: C_9  and  C_10
REMARK    4  A    between atoms: C_14  and  C_15
REMARK                            x       y       z     vdW  Elec       q    Type
REMARK                         _______ _______ _______ _____ _____    ______ ____
ROOT
ATOM      1  C   UNL     1      43.963   4.550  11.790  0.00  0.00    +0.000 C 
ATOM      2  C   UNL     1      44.327   3.678  12.980  0.00  0.00    +0.000 C 
ATOM      3  C   UNL     1      43.025   4.409  12.972  0.00  0.00    +0.000 C 
ENDROOT
BRANCH   1   8
ATOM      4  C   UNL     1      46.490   3.185   7.434  0.00  0.00    +0.000 A 
ATOM      5  C   UNL     1      46.460   4.444   8.026  0.00  0.00    +0.000 A 
ATOM      6  C   UNL     1      45.629   4.659   9.131  0.00  0.00    +0.000 A 
ATOM      7  C   UNL     1      44.842   3.616   9.599  0.00  0.00    +0.000 A 
ATOM      8  N   UNL     1      43.825   3.782  10.539  0.00  0.00    +0.000 N 
ATOM      9  N   UNL     1      44.900   2.379   9.060  0.00  0.00    +0.000 NA
ATOM     10  C   UNL     1      45.716   2.187   7.995  0.00  0.00    +0.000 A 
ATOM     11  H   UNL     1      43.471   2.835  10.674  0.00  0.00    +0.000 HD
BRANCH   4  13
ATOM     12  N   UNL     1      48.542   2.455   6.342  0.00  0.00    +0.000 N 
ATOM     13  C   UNL     1      47.252   2.868   6.206  0.00  0.00    +0.000 C 
ATOM     14  O   UNL     1      46.743   2.962   5.093  0.00  0.00    +0.000 OA
ATOM     15  H   UNL     1      49.025   2.183   5.490  0.00  0.00    +0.000 HD
ATOM     16  H   UNL     1      48.939   2.163   7.219  0.00  0.00    +0.000 HD
ENDBRANCH   4  13
ENDBRANCH   1   8
BRANCH   1  17
ATOM     17  C   UNL     1      44.652   5.890  11.565  0.00  0.00    +0.000 A 
ATOM     18  C   UNL     1      43.912   7.037  11.233  0.00  0.00    +0.000 A 
ATOM     19  C   UNL     1      44.479   8.307  11.310  0.00  0.00    +0.000 A 
ATOM     20  C   UNL     1      45.812   8.455  11.700  0.00  0.00    +0.000 A 
ATOM     21  C   UNL     1      46.611   7.338  11.986  0.00  0.00    +0.000 A 
ATOM     22  C   UNL     1      46.013   6.068  11.884  0.00  0.00    +0.000 A 
BRANCH  21  23
ATOM     23  C   UNL     1      47.994   7.480  12.481  0.00  0.00    +0.000 A 
ATOM     24  C   UNL     1      48.962   8.201  11.766  0.00  0.00    +0.000 A 
ATOM     25  C   UNL     1      50.242   8.373  12.283  0.00  0.00    +0.000 A 
ATOM     26  C   UNL     1      50.537   7.818  13.514  0.00  0.00    +0.000 A 
ATOM     27  N   UNL     1      49.648   7.112  14.243  0.00  0.00    +0.000 NA
ATOM     28  C   UNL     1      48.409   6.959  13.709  0.00  0.00    +0.000 A 
ENDBRANCH  21  23
ENDBRANCH   1  17
TORSDOF 4
ENDMDL
MODEL 5
REMARK VINA RESULT:    -6.550      2.833      6.908
REMARK INTER + INTRA:          -9.237
REMARK INTER:                  -8.190
REMARK INTRA:                  -1.046
REMARK UNBOUND:                -1.155
REMARK  Name = 
REMARK  4 active torsions:
REMARK  status: ('A' for Active; 'I' for Inactive)
REMARK    1  A    between atoms: C_2  and  C_4
REMARK    2  A    between atoms: N_8  and  C_9
REMARK    3  A    between atoms: C_9  and  C_10
REMARK    4  A    between atoms: C_14  and  C_15
REMARK                            x       y       z     vdW  Elec       q    Type
REMARK                         _______ _______ _______ _____ _____    ______ ____
ROOT
ATOM      1  C   UNL     1      46.067   4.940  13.344  0.00  0.00    +0.000 C 
ATOM      2  C   UNL     1      46.020   4.079  14.595  0.00  0.00    +0.000 C 
ATOM      3  C   UNL     1      47.191   3.979  13.675  0.00  0.00    +0.000 C 
ENDROOT
BRANCH   1   8
ATOM      4  C   UNL     1      48.148   9.466  11.792  0.00  0.00    +0.000 A 
ATOM      5  C   UNL     1      48.798   8.242  11.910  0.00  0.00    +0.000 A 
ATOM      6  C   UNL     1      48.110   7.154  12.459  0.00  0.00    +0.000 A 
ATOM      7  C   UNL     1      46.802   7.327  12.887  0.00  0.00    +0.000 A 
ATOM      8  N   UNL     1      46.108   6.383  13.645  0.00  0.00    +0.000 N 
ATOM      9  N   UNL     1      46.147   8.499  12.733  0.00  0.00    +0.000 NA
ATOM     10  C   UNL     1      46.827   9.540  12.192  0.00  0.00    +0.000 A 
ATOM     11  H   UNL     1      45.188   6.806  13.765  0.00  0.00    +0.000 HD
BRANCH   4  13
ATOM     12  N   UNL     1      49.819  11.219  12.068  0.00  0.00    +0.000 N 
ATOM     13  C   UNL     1      48.802  10.707  11.320  0.00  0.00    +0.000 C 
ATOM     14  O   UNL     1      48.455  11.260  10.282  0.00  0.00    +0.000 OA
ATOM     15  H   UNL     1      50.294  12.035  11.692  0.00  0.00    +0.000 HD
ATOM     16  H   UNL     1      50.278  10.705  12.800  0.00  0.00    +0.000 HD
ENDBRANCH   4  13
ENDBRANCH   1   8
BRANCH   1  17
ATOM     17  C   UNL     1      45.174   4.631  12.148  0.00  0.00    +0.000 A 
ATOM     18  C   UNL     1      43.934   5.269  11.988  0.00  0.00    +0.000 A 
ATOM     19  C   UNL     1      43.249   5.219  10.776  0.00  0.00    +0.000 A 
ATOM     20  C   UNL     1      43.784   4.507   9.701  0.00  0.00    +0.000 A 
ATOM     21  C   UNL     1      44.992   3.804   9.825  0.00  0.00    +0.000 A 
ATOM     22  C   UNL     1      45.651   3.861  11.068  0.00  0.00    +0.000 A 
BRANCH  21  23
ATOM     23  C   UNL     1      45.613   3.118   8.675  0.00  0.00    +0.000 A 
ATOM     24  C   UNL     1      46.045   3.822   7.542  0.00  0.00    +0.000 A 
ATOM     25  C   UNL     1      46.683   3.161   6.499  0.00  0.00    +0.000 A 
ATOM     26  C   UNL     1      46.880   1.797   6.603  0.00  0.00    +0.000 A 
ATOM     27  N   UNL     1      46.481   1.069   7.666  0.00  0.00    +0.000 NA
ATOM     28  C   UNL     1      45.858   1.743   8.666  0.00  0.00    +0.000 A 
ENDBRANCH  21  23
ENDBRANCH   1  17
TORSDOF 4
ENDMDL
MODEL 6
REMARK VINA RESULT:    -6.300      3.212      5.579
REMARK INTER + INTRA:          -8.928
REMARK INTER:                  -8.439
REMARK INTRA:                  -0.489
REMARK UNBOUND:                -1.155
REMARK  Name = 
REMARK  4 active torsions:
REMARK  status: ('A' for Active; 'I' for Inactive)
REMARK    1  A    between atoms: C_2  and  C_4
REMARK    2  A    between atoms: N_8  and  C_9
REMARK    3  A    between atoms: C_9  and  C_10
REMARK    4  A    between atoms: C_14  and  C_15
REMARK                            x       y       z     vdW  Elec       q    Type
REMARK                         _______ _______ _______ _____ _____    ______ ____
ROOT
ATOM      1  C   UNL     1      47.300   8.432  13.187  0.00  0.00    +0.000 C 
ATOM      2  C   UNL     1      47.313   9.793  12.510  0.00  0.00    +0.000 C 
ATOM      3  C   UNL     1      48.105   8.671  11.926  0.00  0.00    +0.000 C 
ENDROOT
BRANCH   1   8
ATOM      4  C   UNL     1      44.620   4.257  11.571  0.00  0.00    +0.000 A 
ATOM      5  C   UNL     1      45.546   4.993  10.838  0.00  0.00    +0.000 A 
ATOM      6  C   UNL     1      46.083   6.161  11.393  0.00  0.00    +0.000 A 
ATOM      7  C   UNL     1      45.665   6.564  12.654  0.00  0.00    +0.000 A 
ATOM      8  N   UNL     1      45.961   7.814  13.199  0.00  0.00    +0.000 N 
ATOM      9  N   UNL     1      44.802   5.831  13.391  0.00  0.00    +0.000 NA
ATOM     10  C   UNL     1      44.299   4.700  12.840  0.00  0.00    +0.000 A 
ATOM     11  H   UNL     1      45.533   7.776  14.123  0.00  0.00    +0.000 HD
BRANCH   4  13
ATOM     12  N   UNL     1      44.496   2.371  10.033  0.00  0.00    +0.000 N 
ATOM     13  C   UNL     1      43.914   3.065  11.049  0.00  0.00    +0.000 C 
ATOM     14  O   UNL     1      42.841   2.699  11.518  0.00  0.00    +0.000 OA
ATOM     15  H   UNL     1      44.025   1.522   9.734  0.00  0.00    +0.000 HD
ATOM     16  H   UNL     1      45.454   2.498   9.755  0.00  0.00    +0.000 HD
ENDBRANCH   4  13
ENDBRANCH   1   8
BRANCH   1  17
ATOM     17  C   UNL     1      48.048   8.202  14.494  0.00  0.00    +0.000 A 
ATOM     18  C   UNL     1      48.257   9.253  15.402  0.00  0.00    +0.000 A 
ATOM     19  C   UNL     1      48.672   9.005  16.708  0.00  0.00    +0.000 A 
ATOM     20  C   UNL     1      48.908   7.695  17.129  0.00  0.00    +0.000 A 
ATOM     21  C   UNL     1      48.769   6.614  16.246  0.00  0.00    +0.000 A 
ATOM     22  C   UNL     1      48.365   6.899  14.928  0.00  0.00    +0.000 A 
BRANCH  21  23
ATOM     23  C   UNL     1      48.933   5.217  16.696  0.00  0.00    +0.000 A 
ATOM     24  C   UNL     1      47.941   4.251  16.476  0.00  0.00    +0.000 A 
ATOM     25  C   UNL     1      48.145   2.928  16.854  0.00  0.00    +0.000 A 
ATOM     26  C   UNL     1      49.344   2.590  17.452  0.00  0.00    +0.000 A 
ATOM     27  N   UNL     1      50.330   3.478  17.693  0.00  0.00    +0.000 NA
ATOM     28  C   UNL     1      50.099   4.761  17.315  0.00  0.00    +0.000 A 
ENDBRANCH  21  23
ENDBRANCH   1  17
TORSDOF 4
ENDMDL
