MODEL 1
REMARK VINA RESULT:    -8.304      0.000      0.000
REMARK INTER + INTRA:         -10.443
REMARK INTER:                  -9.761
REMARK INTRA:                  -0.683
REMARK UNBOUND:                -0.683
REMARK  Name = 
REMARK  3 active torsions:
REMARK  status: ('A' for Active; 'I' for Inactive)
REMARK    1  A    between atoms: C_2  and  C_4
REMARK    2  A    between atoms: N_8  and  C_9
REMARK    3  A    between atoms: C_9  and  C_10
REMARK                            x       y       z     vdW  Elec       q    Type
REMARK                         _______ _______ _______ _____ _____    ______ ____
ROOT
ATOM      1  C   UNL     1      46.543   2.670   7.521  0.00  0.00    +0.000 A 
ATOM      2  C   UNL     1      46.364   4.041   7.691  0.00  0.00    +0.000 A 
ATOM      3  C   UNL     1      45.543   4.504   8.730  0.00  0.00    +0.000 A 
ATOM      4  C   UNL     1      44.912   3.581   9.560  0.00  0.00    +0.000 A 
ATOM      5  N   UNL     1      43.964   3.912  10.519  0.00  0.00    +0.000 N 
ATOM      6  N   UNL     1      45.091   2.247   9.398  0.00  0.00    +0.000 NA
ATOM      7  C   UNL     1      45.888   1.817   8.391  0.00  0.00    +0.000 A 
ATOM      8  H   UNL     1      43.672   3.027  10.934  0.00  0.00    +0.000 HD
ENDROOT
BRANCH   1  10
ATOM      9  N   UNL     1      47.492   2.871   5.304  0.00  0.00    +0.000 N 
ATOM     10  C   UNL     1      47.360   2.105   6.430  0.00  0.00    +0.000 C 
ATOM     11  O   UNL     1      47.910   1.016   6.533  0.00  0.00    +0.000 OA
ATOM     12  H   UNL     1      48.118   2.523   4.588  0.00  0.00    +0.000 HD
ATOM     13  H   UNL     1      47.253   3.851   5.286  0.00  0.00    +0.000 HD
ENDBRANCH   1  10
BRANCH   5  14
ATOM     14  C   UNL     1      43.953   5.067  11.422  0.00  0.00    +0.000 C 
ATOM     15  C   UNL     1      42.624   5.177  12.173  0.00  0.00    +0.000 C 
ATOM     16  C   UNL     1      43.070   6.299  11.302  0.00  0.00    +0.000 C 
BRANCH  14  17
ATOM     17  C   UNL     1      45.259   5.325  12.171  0.00  0.00    +0.000 A 
ATOM     18  C   UNL     1      45.996   6.502  11.925  0.00  0.00    +0.000 A 
ATOM     19  C   UNL     1      47.053   6.881  12.753  0.00  0.00    +0.000 A 
ATOM     20  C   UNL     1      47.412   6.063  13.816  0.00  0.00    +0.000 A 
ATOM     21  F   UNL     1      48.374   6.460  14.657  0.00  0.00    +0.000 F 
ATOM     22  C   UNL     1      46.762   4.856  14.038  0.00  0.00    +0.000 A 
ATOM     23  C   UNL     1      45.699   4.486  13.212  0.00  0.00    +0.000 A 
ENDBRANCH  14  17
ENDBRANCH   5  14
TORSDOF 3
ENDMDL
MODEL 2
REMARK VINA RESULT:    -7.048      3.894      6.591
REMARK INTER + INTRA:          -8.966
REMARK INTER:                  -8.503
REMARK INTRA:                  -0.463
REMARK UNBOUND:                -0.683
REMARK  Name = 
REMARK  3 active torsions:
REMARK  status: ('A' for Active; 'I' for Inactive)
REMARK    1  A    between atoms: C_2  and  C_4
REMARK    2  A    between atoms: N_8  and  C_9
REMARK    3  A    between atoms: C_9  and  C_10
REMARK                            x       y       z     vdW  Elec       q    Type
REMARK                         _______ _______ _______ _____ _____    ______ ____
ROOT
ATOM      1  C   UNL     1      47.924   6.346  14.177  0.00  0.00    +0.000 A 
ATOM      2  C   UNL     1      47.088   5.266  14.452  0.00  0.00    +0.000 A 
ATOM      3  C   UNL     1      46.158   4.853  13.487  0.00  0.00    +0.000 A 
ATOM      4  C   UNL     1      46.080   5.542  12.279  0.00  0.00    +0.000 A 
ATOM      5  N   UNL     1      45.104   5.324  11.316  0.00  0.00    +0.000 N 
ATOM      6  N   UNL     1      46.898   6.590  12.010  0.00  0.00    +0.000 NA
ATOM      7  C   UNL     1      47.791   6.974  12.953  0.00  0.00    +0.000 A 
ATOM      8  H   UNL     1      45.297   5.996  10.572  0.00  0.00    +0.000 HD
ENDROOT
BRANCH   1  10
ATOM      9  N   UNL     1      48.394   7.547  16.225  0.00  0.00    +0.000 N 
ATOM     10  C   UNL     1      48.901   6.863  15.155  0.00  0.00    +0.000 C 
ATOM     11  O   UNL     1      50.103   6.671  15.028  0.00  0.00    +0.000 OA
ATOM     12  H   UNL     1      49.054   7.831  16.938  0.00  0.00    +0.000 HD
ATOM     13  H   UNL     1      47.416   7.515  16.474  0.00  0.00    +0.000 HD
ENDBRANCH   1  10
BRANCH   5  14
ATOM     14  C   UNL     1      44.530   4.048  10.880  0.00  0.00    +0.000 C 
ATOM     15  C   UNL     1      43.024   3.993  11.144  0.00  0.00    +0.000 C 
ATOM     16  C   UNL     1      43.917   2.982  11.774  0.00  0.00    +0.000 C 
BRANCH  14  17
ATOM     17  C   UNL     1      45.080   3.497   9.566  0.00  0.00    +0.000 A 
ATOM     18  C   UNL     1      45.581   4.377   8.584  0.00  0.00    +0.000 A 
ATOM     19  C   UNL     1      46.303   3.903   7.488  0.00  0.00    +0.000 A 
ATOM     20  C   UNL     1      46.496   2.536   7.340  0.00  0.00    +0.000 A 
ATOM     21  F   UNL     1      47.252   2.083   6.332  0.00  0.00    +0.000 F 
ATOM     22  C   UNL     1      45.946   1.636   8.243  0.00  0.00    +0.000 A 
ATOM     23  C   UNL     1      45.233   2.116   9.343  0.00  0.00    +0.000 A 
ENDBRANCH  14  17
ENDBRANCH   5  14
TORSDOF 3
ENDMDL
MODEL 3
REMARK VINA RESULT:    -6.923      3.977      6.476
REMARK INTER + INTRA:          -8.819
REMARK INTER:                  -8.895
REMARK INTRA:                   0.076
REMARK UNBOUND:                -0.683
REMARK  Name = 
REMARK  3 active torsions:
REMARK  status: ('A' for Active; 'I' for Inactive)
REMARK    1  A    between atoms: C_2  and  C_4
REMARK    2  A    between atoms: N_8  and  C_9
REMARK    3  A    between atoms: C_9  and  C_10
REMARK                            x       y       z     vdW  Elec       q    Type
REMARK                         _______ _______ _______ _____ _____    ______ ____
ROOT
ATOM      1  C   UNL     1      47.866   5.818  14.706  0.00  0.00    +0.000 A 
ATOM      2  C   UNL     1      47.444   6.171  13.426  0.00  0.00    +0.000 A 
ATOM      3  C   UNL     1      46.639   5.284  12.698  0.00  0.00    +0.000 A 
ATOM      4  C   UNL     1      46.289   4.061  13.266  0.00  0.00    +0.000 A 
ATOM      5  N   UNL     1      45.628   3.045  12.589  0.00  0.00    +0.000 N 
ATOM      6  N   UNL     1      46.695   3.720  14.514  0.00  0.00    +0.000 NA
ATOM      7  C   UNL     1      47.472   4.590  15.203  0.00  0.00    +0.000 A 
ATOM      8  H   UNL     1      45.545   2.278  13.257  0.00  0.00    +0.000 HD
ENDROOT
BRANCH   1  10
ATOM      9  N   UNL     1      48.235   7.892  15.897  0.00  0.00    +0.000 N 
ATOM     10  C   UNL     1      48.746   6.681  15.518  0.00  0.00    +0.000 C 
ATOM     11  O   UNL     1      49.868   6.324  15.854  0.00  0.00    +0.000 OA
ATOM     12  H   UNL     1      48.804   8.450  16.522  0.00  0.00    +0.000 HD
ATOM     13  H   UNL     1      47.251   8.107  15.838  0.00  0.00    +0.000 HD
ENDBRANCH   1  10
BRANCH   5  14
ATOM     14  C   UNL     1      44.530   3.163  11.625  0.00  0.00    +0.000 C 
ATOM     15  C   UNL     1      43.388   4.016  12.180  0.00  0.00    +0.000 C 
ATOM     16  C   UNL     1      43.125   2.606  11.785  0.00  0.00    +0.000 C 
BRANCH  14  17
ATOM     17  C   UNL     1      44.954   3.337  10.168  0.00  0.00    +0.000 A 
ATOM     18  C   UNL     1      45.263   4.619   9.668  0.00  0.00    +0.000 A 
ATOM     19  C   UNL     1      45.879   4.783   8.427  0.00  0.00    +0.000 A 
ATOM     20  C   UNL     1      46.155   3.665   7.651  0.00  0.00    +0.000 A 
ATOM     21  F   UNL     1      46.813   3.812   6.495  0.00  0.00    +0.000 F 
ATOM     22  C   UNL     1      45.789   2.395   8.075  0.00  0.00    +0.000 A 
ATOM     23  C   UNL     1      45.182   2.235   9.322  0.00  0.00    +0.000 A 
ENDBRANCH  14  17
ENDBRANCH   5  14
TORSDOF 3
ENDMDL
MODEL 4
REMARK VINA RESULT:    -6.396      4.059      6.429
REMARK INTER + INTRA:          -8.201
REMARK INTER:                  -7.653
REMARK INTRA:                  -0.547
REMARK UNBOUND:                -0.683
REMARK  Name = 
REMARK  3 active torsions:
REMARK  status: ('A' for Active; 'I' for Inactive)
REMARK    1  A    between atoms: C_2  and  C_4
REMARK    2  A    between atoms: N_8  and  C_9
REMARK    3  A    between atoms: C_9  and  C_10
REMARK                            x       y       z     vdW  Elec       q    Type
REMARK                         _______ _______ _______ _____ _____    ______ ____
ROOT
ATOM      1  C   UNL     1      48.430   7.600  13.165  0.00  0.00    +0.000 A 
ATOM      2  C   UNL     1      48.000   6.346  13.593  0.00  0.00    +0.000 A 
ATOM      3  C   UNL     1      46.776   5.842  13.130  0.00  0.00    +0.000 A 
ATOM      4  C   UNL     1      46.008   6.615  12.262  0.00  0.00    +0.000 A 
ATOM      5  N   UNL     1      44.719   6.292  11.859  0.00  0.00    +0.000 N 
ATOM      6  N   UNL     1      46.429   7.834  11.841  0.00  0.00    +0.000 NA
ATOM      7  C   UNL     1      47.615   8.303  12.297  0.00  0.00    +0.000 A 
ATOM      8  H   UNL     1      44.419   7.059  11.257  0.00  0.00    +0.000 HD
ENDROOT
BRANCH   1  10
ATOM      9  N   UNL     1      50.539   7.401  14.333  0.00  0.00    +0.000 N 
ATOM     10  C   UNL     1      49.686   8.212  13.637  0.00  0.00    +0.000 C 
ATOM     11  O   UNL     1      49.963   9.381  13.400  0.00  0.00    +0.000 OA
ATOM     12  H   UNL     1      51.437   7.795  14.587  0.00  0.00    +0.000 HD
ATOM     13  H   UNL     1      50.448   6.396  14.336  0.00  0.00    +0.000 HD
ENDBRANCH   1  10
BRANCH   5  14
ATOM     14  C   UNL     1      44.182   4.972  11.515  0.00  0.00    +0.000 C 
ATOM     15  C   UNL     1      42.655   4.948  11.614  0.00  0.00    +0.000 C 
ATOM     16  C   UNL     1      43.460   4.019  12.454  0.00  0.00    +0.000 C 
BRANCH  14  17
ATOM     17  C   UNL     1      44.867   4.271  10.344  0.00  0.00    +0.000 A 
ATOM     18  C   UNL     1      44.796   2.868  10.219  0.00  0.00    +0.000 A 
ATOM     19  C   UNL     1      45.199   2.224   9.048  0.00  0.00    +0.000 A 
ATOM     20  C   UNL     1      45.718   2.975   8.002  0.00  0.00    +0.000 A 
ATOM     21  F   UNL     1      46.034   2.370   6.851  0.00  0.00    +0.000 F 
ATOM     22  C   UNL     1      45.880   4.349   8.123  0.00  0.00    +0.000 A 
ATOM     23  C   UNL     1      45.466   4.989   9.293  0.00  0.00    +0.000 A 
ENDBRANCH  14  17
ENDBRANCH   5  14
TORSDOF 3
ENDMDL
MODEL 5
REMARK VINA RESULT:    -5.746      4.193      6.256
REMARK INTER + INTRA:          -7.437
REMARK INTER:                  -7.205
REMARK INTRA:                  -0.232
REMARK UNBOUND:                -0.683
REMARK  Name = 
REMARK  3 active torsions:
REMARK  status: ('A' for Active; 'I' for Inactive)
REMARK    1  A    between atoms: C_2  and  C_4
REMARK    2  A    between atoms: N_8  and  C_9
REMARK    3  A    between atoms: C_9  and  C_10
REMARK                            x       y       z     vdW  Elec       q    Type
REMARK                         _______ _______ _______ _____ _____    ______ ____
ROOT
ATOM      1  C   UNL     1      45.739   5.146  11.925  0.00  0.00    +0.000 A 
ATOM      2  C   UNL     1      46.636   6.139  12.310  0.00  0.00    +0.000 A 
ATOM      3  C   UNL     1      47.194   6.102  13.596  0.00  0.00    +0.000 A 
ATOM      4  C   UNL     1      46.827   5.079  14.467  0.00  0.00    +0.000 A 
ATOM      5  N   UNL     1      47.192   5.023  15.805  0.00  0.00    +0.000 N 
ATOM      6  N   UNL     1      45.957   4.109  14.090  0.00  0.00    +0.000 NA
ATOM      7  C   UNL     1      45.430   4.160  12.843  0.00  0.00    +0.000 A 
ATOM      8  H   UNL     1      46.749   4.182  16.176  0.00  0.00    +0.000 HD
ENDROOT
BRANCH   1  10
ATOM      9  N   UNL     1      45.838   5.554   9.542  0.00  0.00    +0.000 N 
ATOM     10  C   UNL     1      45.083   5.138  10.603  0.00  0.00    +0.000 C 
ATOM     11  O   UNL     1      43.928   4.758  10.460  0.00  0.00    +0.000 OA
ATOM     12  H   UNL     1      45.417   5.472   8.624  0.00  0.00    +0.000 HD
ATOM     13  H   UNL     1      46.842   5.643   9.594  0.00  0.00    +0.000 HD
ENDBRANCH   1  10
BRANCH   5  14
ATOM     14  C   UNL     1      48.481   5.375  16.409  0.00  0.00    +0.000 C 
ATOM     15  C   UNL     1      48.366   6.628  17.280  0.00  0.00    +0.000 C 
ATOM     16  C   UNL     1      49.301   6.622  16.122  0.00  0.00    +0.000 C 
BRANCH  14  17
ATOM     17  C   UNL     1      49.317   4.196  16.900  0.00  0.00    +0.000 A 
ATOM     18  C   UNL     1      48.862   2.875  16.710  0.00  0.00    +0.000 A 
ATOM     19  C   UNL     1      49.700   1.781  16.926  0.00  0.00    +0.000 A 
ATOM     20  C   UNL     1      50.996   1.995  17.376  0.00  0.00    +0.000 A 
ATOM     21  F   UNL     1      51.827   0.954  17.511  0.00  0.00    +0.000 F 
ATOM     22  C   UNL     1      51.452   3.277  17.653  0.00  0.00    +0.000 A 
ATOM     23  C   UNL     1      50.612   4.369  17.426  0.00  0.00    +0.000 A 
ENDBRANCH  14  17
ENDBRANCH   5  14
TORSDOF 3
ENDMDL
MODEL 6
REMARK VINA RESULT:    -5.549      3.338      5.285
REMARK INTER + INTRA:          -7.205
REMARK INTER:                  -7.078
REMARK INTRA:                  -0.127
REMARK UNBOUND:                -0.683
REMARK  Name = 
REMARK  3 active torsions:
REMARK  status: ('A' for Active; 'I' for Inactive)
REMARK    1  A    between atoms: C_2  and  C_4
REMARK    2  A    between atoms: N_8  and  C_9
REMARK    3  A    between atoms: C_9  and  C_10
REMARK                            x       y       z     vdW  Elec       q    Type
REMARK                         _______ _______ _______ _____ _____    ______ ____
ROOT
ATOM      1  C   UNL     1      44.983   4.734  11.119  0.00  0.00    +0.000 A 
ATOM      2  C   UNL     1      45.749   5.825  10.716  0.00  0.00    +0.000 A 
ATOM      3  C   UNL     1      46.503   6.527  11.668  0.00  0.00    +0.000 A 
ATOM      4  C   UNL     1      46.458   6.125  13.001  0.00  0.00    +0.000 A 
ATOM      5  N   UNL     1      47.036   6.827  14.049  0.00  0.00    +0.000 N 
ATOM      6  N   UNL     1      45.716   5.059  13.392  0.00  0.00    +0.000 NA
ATOM      7  C   UNL     1      44.995   4.393  12.459  0.00  0.00    +0.000 A 
ATOM      8  H   UNL     1      46.806   6.302  14.893  0.00  0.00    +0.000 HD
ENDROOT
BRANCH   1  10
ATOM      9  N   UNL     1      44.157   4.365   8.875  0.00  0.00    +0.000 N 
ATOM     10  C   UNL     1      44.135   3.971  10.184  0.00  0.00    +0.000 C 
ATOM     11  O   UNL     1      43.461   3.019  10.556  0.00  0.00    +0.000 OA
ATOM     12  H   UNL     1      43.641   3.793   8.218  0.00  0.00    +0.000 HD
ATOM     13  H   UNL     1      44.869   4.979   8.507  0.00  0.00    +0.000 HD
ENDBRANCH   1  10
BRANCH   5  14
ATOM     14  C   UNL     1      48.327   7.523  14.072  0.00  0.00    +0.000 C 
ATOM     15  C   UNL     1      48.164   9.013  13.765  0.00  0.00    +0.000 C 
ATOM     16  C   UNL     1      49.022   8.173  12.886  0.00  0.00    +0.000 C 
BRANCH  14  17
ATOM     17  C   UNL     1      49.286   7.087  15.177  0.00  0.00    +0.000 A 
ATOM     18  C   UNL     1      48.846   6.215  16.194  0.00  0.00    +0.000 A 
ATOM     19  C   UNL     1      49.748   5.612  17.072  0.00  0.00    +0.000 A 
ATOM     20  C   UNL     1      51.100   5.908  16.967  0.00  0.00    +0.000 A 
ATOM     21  F   UNL     1      51.976   5.274  17.756  0.00  0.00    +0.000 F 
ATOM     22  C   UNL     1      51.559   6.825  16.031  0.00  0.00    +0.000 A 
ATOM     23  C   UNL     1      50.654   7.418  15.149  0.00  0.00    +0.000 A 
ENDBRANCH  14  17
ENDBRANCH   5  14
TORSDOF 3
ENDMDL
MODEL 7
REMARK VINA RESULT:    -5.476      3.482      5.412
REMARK INTER + INTRA:          -7.119
REMARK INTER:                  -6.862
REMARK INTRA:                  -0.257
REMARK UNBOUND:                -0.683
REMARK  Name = 
REMARK  3 active torsions:
REMARK  status: ('A' for Active; 'I' for Inactive)
REMARK    1  A    between atoms: C_2  and  C_4
REMARK    2  A    between atoms: N_8  and  C_9
REMARK    3  A    between atoms: C_9  and  C_10
REMARK                            x       y       z     vdW  Elec       q    Type
REMARK                         _______ _______ _______ _____ _____    ______ ____
ROOT
ATOM      1  C   UNL     1      44.784   4.426  11.883  0.00  0.00    +0.000 A 
ATOM      2  C   UNL     1      44.898   5.786  12.162  0.00  0.00    +0.000 A 
ATOM      3  C   UNL     1      45.845   6.219  13.100  0.00  0.00    +0.000 A 
ATOM      4  C   UNL     1      46.644   5.277  13.744  0.00  0.00    +0.000 A 
ATOM      5  N   UNL     1      47.504   5.568  14.794  0.00  0.00    +0.000 N 
ATOM      6  N   UNL     1      46.536   3.954  13.469  0.00  0.00    +0.000 NA
ATOM      7  C   UNL     1      45.616   3.554  12.558  0.00  0.00    +0.000 A 
ATOM      8  H   UNL     1      47.918   4.676  15.067  0.00  0.00    +0.000 HD
ENDROOT
BRANCH   1  10
ATOM      9  N   UNL     1      43.763   4.450   9.689  0.00  0.00    +0.000 N 
ATOM     10  C   UNL     1      43.786   3.891  10.937  0.00  0.00    +0.000 C 
ATOM     11  O   UNL     1      43.031   2.978  11.245  0.00  0.00    +0.000 OA
ATOM     12  H   UNL     1      43.136   4.029   9.013  0.00  0.00    +0.000 HD
ATOM     13  H   UNL     1      44.515   5.025   9.340  0.00  0.00    +0.000 HD
ENDBRANCH   1  10
BRANCH   5  14
ATOM     14  C   UNL     1      48.369   6.741  14.959  0.00  0.00    +0.000 C 
ATOM     15  C   UNL     1      49.566   6.430  15.860  0.00  0.00    +0.000 C 
ATOM     16  C   UNL     1      48.614   7.507  16.248  0.00  0.00    +0.000 C 
BRANCH  14  17
ATOM     17  C   UNL     1      48.577   7.582  13.702  0.00  0.00    +0.000 A 
ATOM     18  C   UNL     1      48.116   8.913  13.655  0.00  0.00    +0.000 A 
ATOM     19  C   UNL     1      48.496   9.777  12.628  0.00  0.00    +0.000 A 
ATOM     20  C   UNL     1      49.313   9.305  11.609  0.00  0.00    +0.000 A 
ATOM     21  F   UNL     1      49.743  10.149  10.664  0.00  0.00    +0.000 F 
ATOM     22  C   UNL     1      49.719   7.977  11.579  0.00  0.00    +0.000 A 
ATOM     23  C   UNL     1      49.343   7.120  12.614  0.00  0.00    +0.000 A 
ENDBRANCH  14  17
ENDBRANCH   5  14
TORSDOF 3
ENDMDL
