MODEL 1
REMARK VINA RESULT:    -8.742      0.000      0.000
REMARK INTER + INTRA:         -12.655
REMARK INTER:                 -11.808
REMARK INTRA:                  -0.847
REMARK UNBOUND:                -0.847
REMARK  Name = 
REMARK  7 active torsions:
REMARK  status: ('A' for Active; 'I' for Inactive)
REMARK    1  A    between atoms: C_2  and  C_21
REMARK    2  A    between atoms: N_3  and  C_4
REMARK    3  A    between atoms: C_4  and  C_5
REMARK    4  A    between atoms: C_8  and  C_9
REMARK    5  A    between atoms: C_9  and  O_10
REMARK    6  A    between atoms: C_9  and  C_11
REMARK    7  A    between atoms: C_16  and  O_17
REMARK                            x       y       z     vdW  Elec       q    Type
REMARK                         _______ _______ _______ _____ _____    ______ ____
ROOT
ATOM      1  C   UNL     1      46.048   7.723  12.883  0.00  0.00    +0.000 A 
ATOM      2  C   UNL     1      45.877   6.372  13.194  0.00  0.00    +0.000 A 
ATOM      3  C   UNL     1      44.890   5.620  12.565  0.00  0.00    +0.000 A 
ATOM      4  C   UNL     1      44.051   6.193  11.594  0.00  0.00    +0.000 A 
ATOM      5  C   UNL     1      44.195   7.558  11.308  0.00  0.00    +0.000 A 
ATOM      6  C   UNL     1      45.185   8.317  11.950  0.00  0.00    +0.000 A 
ENDROOT
BRANCH   1   7
ATOM      7  C   UNL     1      47.214   8.466  13.476  0.00  0.00    +0.000 C 
BRANCH   7  10
ATOM      8  O   UNL     1      49.373   6.629  13.869  0.00  0.00    +0.000 OA
ATOM      9  C   UNL     1      48.653   6.944  14.811  0.00  0.00    +0.000 C 
ATOM     10  N   UNL     1      47.635   7.858  14.713  0.00  0.00    +0.000 N 
ATOM     11  H   UNL     1      47.056   8.040  15.519  0.00  0.00    +0.000 HD
BRANCH   9  12
ATOM     12  C   UNL     1      48.853   6.392  16.155  0.00  0.00    +0.000 A 
ATOM     13  C   UNL     1      49.557   7.094  17.121  0.00  0.00    +0.000 A 
ATOM     14  S   UNL     1      49.614   6.291  18.629  0.00  0.00    +0.000 S 
ATOM     15  C   UNL     1      48.744   4.959  18.021  0.00  0.00    +0.000 A 
ATOM     16  N   UNL     1      48.432   3.899  18.811  0.00  0.00    +0.000 NA
ATOM     17  C   UNL     1      47.791   2.952  18.205  0.00  0.00    +0.000 A 
ATOM     18  N   UNL     1      47.447   2.966  16.878  0.00  0.00    +0.000 N 
ATOM     19  C   UNL     1      47.725   4.021  16.046  0.00  0.00    +0.000 A 
ATOM     20  O   UNL     1      47.366   4.013  14.874  0.00  0.00    +0.000 OA
ATOM     21  C   UNL     1      48.422   5.122  16.685  0.00  0.00    +0.000 A 
ATOM     22  H   UNL     1      46.951   2.193  16.461  0.00  0.00    +0.000 HD
ENDBRANCH   9  12
ENDBRANCH   7  10
ENDBRANCH   1   7
BRANCH   4  23
ATOM     23  C   UNL     1      43.186   5.255  10.783  0.00  0.00    +0.000 C 
BRANCH  23  24
ATOM     24  C   UNL     1      43.691   3.809  10.608  0.00  0.00    +0.000 C 
ATOM     25  O   UNL     1      43.242   2.902  11.318  0.00  0.00    +0.000 OA
ATOM     26  N   UNL     1      44.574   3.546   9.581  0.00  0.00    +0.000 N 
ATOM     27  C   UNL     1      44.833   2.183   9.152  0.00  0.00    +0.000 C 
ATOM     28  C   UNL     1      45.927   2.281   8.100  0.00  0.00    +0.000 C 
ATOM     29  C   UNL     1      45.852   3.724   7.606  0.00  0.00    +0.000 C 
ATOM     30  C   UNL     1      45.364   4.502   8.826  0.00  0.00    +0.000 C 
BRANCH  29  31
ATOM     31  O   UNL     1      47.113   4.175   7.140  0.00  0.00    +0.000 OA
ATOM     32  H   UNL     1      47.588   3.419   6.750  0.00  0.00    +0.000 HD
ENDBRANCH  29  31
ENDBRANCH  23  24
BRANCH  23  33
ATOM     33  O   UNL     1      41.910   5.235  11.435  0.00  0.00    +0.000 OA
ATOM     34  H   UNL     1      41.926   4.442  12.004  0.00  0.00    +0.000 HD
ENDBRANCH  23  33
ENDBRANCH   4  23
TORSDOF 7
ENDMDL
MODEL 2
REMARK VINA RESULT:    -8.176      1.864      2.413
REMARK INTER + INTRA:         -11.891
REMARK INTER:                 -10.952
REMARK INTRA:                  -0.939
REMARK UNBOUND:                -0.847
REMARK  Name = 
REMARK  7 active torsions:
REMARK  status: ('A' for Active; 'I' for Inactive)
REMARK    1  A    between atoms: C_2  and  C_21
REMARK    2  A    between atoms: N_3  and  C_4
REMARK    3  A    between atoms: C_4  and  C_5
REMARK    4  A    between atoms: C_8  and  C_9
REMARK    5  A    between atoms: C_9  and  O_10
REMARK    6  A    between atoms: C_9  and  C_11
REMARK    7  A    between atoms: C_16  and  O_17
REMARK                            x       y       z     vdW  Elec       q    Type
REMARK                         _______ _______ _______ _____ _____    ______ ____
ROOT
ATOM      1  C   UNL     1      46.629   6.913  13.214  0.00  0.00    +0.000 A 
ATOM      2  C   UNL     1      46.265   5.585  13.449  0.00  0.00    +0.000 A 
ATOM      3  C   UNL     1      45.181   5.020  12.783  0.00  0.00    +0.000 A 
ATOM      4  C   UNL     1      44.435   5.763  11.853  0.00  0.00    +0.000 A 
ATOM      5  C   UNL     1      44.774   7.107  11.645  0.00  0.00    +0.000 A 
ATOM      6  C   UNL     1      45.862   7.678  12.322  0.00  0.00    +0.000 A 
ENDROOT
BRANCH   1   7
ATOM      7  C   UNL     1      47.889   7.446  13.840  0.00  0.00    +0.000 C 
BRANCH   7  10
ATOM      8  O   UNL     1      50.230   6.696  15.305  0.00  0.00    +0.000 OA
ATOM      9  C   UNL     1      49.131   6.670  15.847  0.00  0.00    +0.000 C 
ATOM     10  N   UNL     1      47.973   7.067  15.228  0.00  0.00    +0.000 N 
ATOM     11  H   UNL     1      47.095   6.981  15.720  0.00  0.00    +0.000 HD
BRANCH   9  12
ATOM     12  C   UNL     1      48.965   6.247  17.243  0.00  0.00    +0.000 A 
ATOM     13  C   UNL     1      49.291   4.962  17.646  0.00  0.00    +0.000 A 
ATOM     14  S   UNL     1      49.078   4.708  19.323  0.00  0.00    +0.000 S 
ATOM     15  C   UNL     1      48.495   6.292  19.550  0.00  0.00    +0.000 A 
ATOM     16  N   UNL     1      48.134   6.743  20.780  0.00  0.00    +0.000 NA
ATOM     17  C   UNL     1      47.687   7.957  20.793  0.00  0.00    +0.000 A 
ATOM     18  N   UNL     1      47.557   8.754  19.686  0.00  0.00    +0.000 N 
ATOM     19  C   UNL     1      47.925   8.349  18.427  0.00  0.00    +0.000 A 
ATOM     20  O   UNL     1      47.830   9.106  17.467  0.00  0.00    +0.000 OA
ATOM     21  C   UNL     1      48.457   7.001  18.362  0.00  0.00    +0.000 A 
ATOM     22  H   UNL     1      47.197   9.693  19.760  0.00  0.00    +0.000 HD
ENDBRANCH   9  12
ENDBRANCH   7  10
ENDBRANCH   1   7
BRANCH   4  23
ATOM     23  C   UNL     1      43.445   5.007  10.995  0.00  0.00    +0.000 C 
BRANCH  23  24
ATOM     24  C   UNL     1      43.826   3.571  10.584  0.00  0.00    +0.000 C 
ATOM     25  O   UNL     1      43.318   2.602  11.162  0.00  0.00    +0.000 OA
ATOM     26  N   UNL     1      44.662   3.402   9.501  0.00  0.00    +0.000 N 
ATOM     27  C   UNL     1      44.799   2.106   8.859  0.00  0.00    +0.000 C 
ATOM     28  C   UNL     1      45.876   2.281   7.799  0.00  0.00    +0.000 C 
ATOM     29  C   UNL     1      45.910   3.784   7.534  0.00  0.00    +0.000 C 
ATOM     30  C   UNL     1      45.513   4.399   8.875  0.00  0.00    +0.000 C 
BRANCH  29  31
ATOM     31  O   UNL     1      47.193   4.202   7.101  0.00  0.00    +0.000 OA
ATOM     32  H   UNL     1      47.866   3.729   7.623  0.00  0.00    +0.000 HD
ENDBRANCH  29  31
ENDBRANCH  23  24
BRANCH  23  33
ATOM     33  O   UNL     1      42.222   4.978  11.741  0.00  0.00    +0.000 OA
ATOM     34  H   UNL     1      42.210   4.106  12.179  0.00  0.00    +0.000 HD
ENDBRANCH  23  33
ENDBRANCH   4  23
TORSDOF 7
ENDMDL
MODEL 3
REMARK VINA RESULT:    -7.571      2.636      3.156
REMARK INTER + INTRA:         -11.074
REMARK INTER:                 -10.131
REMARK INTRA:                  -0.943
REMARK UNBOUND:                -0.847
REMARK  Name = 
REMARK  7 active torsions:
REMARK  status: ('A' for Active; 'I' for Inactive)
REMARK    1  A    between atoms: C_2  and  C_21
REMARK    2  A    between atoms: N_3  and  C_4
REMARK    3  A    between atoms: C_4  and  C_5
REMARK    4  A    between atoms: C_8  and  C_9
REMARK    5  A    between atoms: C_9  and  O_10
REMARK    6  A    between atoms: C_9  and  C_11
REMARK    7  A    between atoms: C_16  and  O_17
REMARK                            x       y       z     vdW  Elec       q    Type
REMARK                         _______ _______ _______ _____ _____    ______ ____
ROOT
ATOM      1  C   UNL     1      48.101   6.659  14.741  0.00  0.00    +0.000 A 
ATOM      2  C   UNL     1      47.621   7.381  13.646  0.00  0.00    +0.000 A 
ATOM      3  C   UNL     1      46.579   6.882  12.871  0.00  0.00    +0.000 A 
ATOM      4  C   UNL     1      45.975   5.651  13.174  0.00  0.00    +0.000 A 
ATOM      5  C   UNL     1      46.481   4.905  14.249  0.00  0.00    +0.000 A 
ATOM      6  C   UNL     1      47.537   5.406  15.024  0.00  0.00    +0.000 A 
ENDROOT
BRANCH   1   7
ATOM      7  C   UNL     1      49.128   7.292  15.639  0.00  0.00    +0.000 C 
BRANCH   7  10
ATOM      8  O   UNL     1      49.663   6.387  18.301  0.00  0.00    +0.000 OA
ATOM      9  C   UNL     1      50.342   5.980  17.364  0.00  0.00    +0.000 C 
ATOM     10  N   UNL     1      50.112   6.325  16.057  0.00  0.00    +0.000 N 
ATOM     11  H   UNL     1      50.736   5.986  15.339  0.00  0.00    +0.000 HD
BRANCH   9  12
ATOM     12  C   UNL     1      51.450   5.038  17.563  0.00  0.00    +0.000 A 
ATOM     13  C   UNL     1      52.742   5.487  17.785  0.00  0.00    +0.000 A 
ATOM     14  S   UNL     1      53.858   4.221  18.051  0.00  0.00    +0.000 S 
ATOM     15  C   UNL     1      52.658   3.034  17.825  0.00  0.00    +0.000 A 
ATOM     16  N   UNL     1      52.945   1.710  17.930  0.00  0.00    +0.000 NA
ATOM     17  C   UNL     1      51.940   0.927  17.708  0.00  0.00    +0.000 A 
ATOM     18  N   UNL     1      50.678   1.349  17.378  0.00  0.00    +0.000 N 
ATOM     19  C   UNL     1      50.337   2.675  17.279  0.00  0.00    +0.000 A 
ATOM     20  O   UNL     1      49.187   3.014  17.020  0.00  0.00    +0.000 OA
ATOM     21  C   UNL     1      51.426   3.596  17.544  0.00  0.00    +0.000 A 
ATOM     22  H   UNL     1      49.934   0.688  17.212  0.00  0.00    +0.000 HD
ENDBRANCH   9  12
ENDBRANCH   7  10
ENDBRANCH   1   7
BRANCH   4  23
ATOM     23  C   UNL     1      44.696   5.306  12.446  0.00  0.00    +0.000 C 
BRANCH  23  24
ATOM     24  C   UNL     1      44.563   3.869  11.903  0.00  0.00    +0.000 C 
ATOM     25  O   UNL     1      44.181   2.955  12.644  0.00  0.00    +0.000 OA
ATOM     26  N   UNL     1      44.784   3.656  10.558  0.00  0.00    +0.000 N 
ATOM     27  C   UNL     1      44.364   2.421   9.919  0.00  0.00    +0.000 C 
ATOM     28  C   UNL     1      44.873   2.501   8.489  0.00  0.00    +0.000 C 
ATOM     29  C   UNL     1      45.084   3.993   8.242  0.00  0.00    +0.000 C 
ATOM     30  C   UNL     1      45.450   4.542   9.620  0.00  0.00    +0.000 C 
BRANCH  29  31
ATOM     31  O   UNL     1      46.099   4.217   7.278  0.00  0.00    +0.000 OA
ATOM     32  H   UNL     1      45.774   3.920   6.410  0.00  0.00    +0.000 HD
ENDBRANCH  29  31
ENDBRANCH  23  24
BRANCH  23  33
ATOM     33  O   UNL     1      43.634   5.561  13.375  0.00  0.00    +0.000 OA
ATOM     34  H   UNL     1      44.033   5.444  14.257  0.00  0.00    +0.000 HD
ENDBRANCH  23  33
ENDBRANCH   4  23
TORSDOF 7
ENDMDL
MODEL 4
REMARK VINA RESULT:    -7.378      1.523      2.004
REMARK INTER + INTRA:         -10.813
REMARK INTER:                  -9.568
REMARK INTRA:                  -1.245
REMARK UNBOUND:                -0.847
REMARK  Name = 
REMARK  7 active torsions:
REMARK  status: ('A' for Active; 'I' for Inactive)
REMARK    1  A    between atoms: C_2  and  C_21
REMARK    2  A    between atoms: N_3  and  C_4
REMARK    3  A    between atoms: C_4  and  C_5
REMARK    4  A    between atoms: C_8  and  C_9
REMARK    5  A    between atoms: C_9  and  O_10
REMARK    6  A    between atoms: C_9  and  C_11
REMARK    7  A    between atoms: C_16  and  O_17
REMARK                            x       y       z     vdW  Elec       q    Type
REMARK                         _______ _______ _______ _____ _____    ______ ____
ROOT
ATOM      1  C   UNL     1      48.117   8.168  13.366  0.00  0.00    +0.000 A 
ATOM      2  C   UNL     1      46.841   8.727  13.484  0.00  0.00    +0.000 A 
ATOM      3  C   UNL     1      45.788   8.255  12.708  0.00  0.00    +0.000 A 
ATOM      4  C   UNL     1      45.973   7.201  11.798  0.00  0.00    +0.000 A 
ATOM      5  C   UNL     1      47.260   6.665  11.648  0.00  0.00    +0.000 A 
ATOM      6  C   UNL     1      48.324   7.147  12.426  0.00  0.00    +0.000 A 
ENDROOT
BRANCH   1   7
ATOM      7  C   UNL     1      49.195   8.604  14.320  0.00  0.00    +0.000 C 
BRANCH   7  10
ATOM      8  O   UNL     1      47.996   9.130  16.864  0.00  0.00    +0.000 OA
ATOM      9  C   UNL     1      48.657   8.111  16.694  0.00  0.00    +0.000 C 
ATOM     10  N   UNL     1      49.216   7.764  15.490  0.00  0.00    +0.000 N 
ATOM     11  H   UNL     1      49.783   6.931  15.431  0.00  0.00    +0.000 HD
BRANCH   9  12
ATOM     12  C   UNL     1      48.872   7.139  17.772  0.00  0.00    +0.000 A 
ATOM     13  C   UNL     1      49.365   7.533  19.006  0.00  0.00    +0.000 A 
ATOM     14  S   UNL     1      49.477   6.249  20.128  0.00  0.00    +0.000 S 
ATOM     15  C   UNL     1      48.920   5.118  18.982  0.00  0.00    +0.000 A 
ATOM     16  N   UNL     1      48.767   3.807  19.300  0.00  0.00    +0.000 NA
ATOM     17  C   UNL     1      48.361   3.065  18.321  0.00  0.00    +0.000 A 
ATOM     18  N   UNL     1      48.107   3.515  17.052  0.00  0.00    +0.000 N 
ATOM     19  C   UNL     1      48.230   4.833  16.689  0.00  0.00    +0.000 A 
ATOM     20  O   UNL     1      47.955   5.203  15.552  0.00  0.00    +0.000 OA
ATOM     21  C   UNL     1      48.660   5.713  17.759  0.00  0.00    +0.000 A 
ATOM     22  H   UNL     1      47.796   2.885  16.328  0.00  0.00    +0.000 HD
ENDBRANCH   9  12
ENDBRANCH   7  10
ENDBRANCH   1   7
BRANCH   4  23
ATOM     23  C   UNL     1      44.735   6.584  11.187  0.00  0.00    +0.000 C 
BRANCH  23  24
ATOM     24  C   UNL     1      44.545   5.065  11.369  0.00  0.00    +0.000 C 
ATOM     25  O   UNL     1      44.165   4.609  12.454  0.00  0.00    +0.000 OA
ATOM     26  N   UNL     1      44.713   4.250  10.269  0.00  0.00    +0.000 N 
ATOM     27  C   UNL     1      44.239   2.877  10.277  0.00  0.00    +0.000 C 
ATOM     28  C   UNL     1      44.700   2.271   8.961  0.00  0.00    +0.000 C 
ATOM     29  C   UNL     1      44.942   3.473   8.052  0.00  0.00    +0.000 C 
ATOM     30  C   UNL     1      45.370   4.578   9.016  0.00  0.00    +0.000 C 
BRANCH  29  31
ATOM     31  O   UNL     1      45.928   3.189   7.074  0.00  0.00    +0.000 OA
ATOM     32  H   UNL     1      45.492   3.117   6.206  0.00  0.00    +0.000 HD
ENDBRANCH  29  31
ENDBRANCH  23  24
BRANCH  23  33
ATOM     33  O   UNL     1      43.623   7.273  11.773  0.00  0.00    +0.000 OA
ATOM     34  H   UNL     1      42.847   6.712  11.584  0.00  0.00    +0.000 HD
ENDBRANCH  23  33
ENDBRANCH   4  23
TORSDOF 7
ENDMDL
MODEL 5
REMARK VINA RESULT:    -7.306      3.632      5.000
REMARK INTER + INTRA:         -10.716
REMARK INTER:                  -9.860
REMARK INTRA:                  -0.855
REMARK UNBOUND:                -0.847
REMARK  Name = 
REMARK  7 active torsions:
REMARK  status: ('A' for Active; 'I' for Inactive)
REMARK    1  A    between atoms: C_2  and  C_21
REMARK    2  A    between atoms: N_3  and  C_4
REMARK    3  A    between atoms: C_4  and  C_5
REMARK    4  A    between atoms: C_8  and  C_9
REMARK    5  A    between atoms: C_9  and  O_10
REMARK    6  A    between atoms: C_9  and  C_11
REMARK    7  A    between atoms: C_16  and  O_17
REMARK                            x       y       z     vdW  Elec       q    Type
REMARK                         _______ _______ _______ _____ _____    ______ ____
ROOT
ATOM      1  C   UNL     1      46.199   7.891  12.947  0.00  0.00    +0.000 A 
ATOM      2  C   UNL     1      45.220   8.367  12.072  0.00  0.00    +0.000 A 
ATOM      3  C   UNL     1      44.400   7.482  11.379  0.00  0.00    +0.000 A 
ATOM      4  C   UNL     1      44.525   6.093  11.549  0.00  0.00    +0.000 A 
ATOM      5  C   UNL     1      45.533   5.612  12.397  0.00  0.00    +0.000 A 
ATOM      6  C   UNL     1      46.364   6.505  13.089  0.00  0.00    +0.000 A 
ENDROOT
BRANCH   1   7
ATOM      7  C   UNL     1      46.969   8.875  13.786  0.00  0.00    +0.000 C 
BRANCH   7  10
ATOM      8  O   UNL     1      47.463  10.893  11.818  0.00  0.00    +0.000 OA
ATOM      9  C   UNL     1      48.373  10.158  12.189  0.00  0.00    +0.000 C 
ATOM     10  N   UNL     1      48.226   9.206  13.165  0.00  0.00    +0.000 N 
ATOM     11  H   UNL     1      49.007   8.608  13.393  0.00  0.00    +0.000 HD
BRANCH   9  12
ATOM     12  C   UNL     1      49.729  10.268  11.639  0.00  0.00    +0.000 A 
ATOM     13  C   UNL     1      50.299  11.504  11.378  0.00  0.00    +0.000 A 
ATOM     14  S   UNL     1      51.904  11.397  10.801  0.00  0.00    +0.000 S 
ATOM     15  C   UNL     1      51.866   9.694  10.833  0.00  0.00    +0.000 A 
ATOM     16  N   UNL     1      52.946   8.957  10.466  0.00  0.00    +0.000 NA
ATOM     17  C   UNL     1      52.761   7.677  10.518  0.00  0.00    +0.000 A 
ATOM     18  N   UNL     1      51.589   7.071  10.892  0.00  0.00    +0.000 N 
ATOM     19  C   UNL     1      50.479   7.774  11.288  0.00  0.00    +0.000 A 
ATOM     20  O   UNL     1      49.462   7.195  11.654  0.00  0.00    +0.000 OA
ATOM     21  C   UNL     1      50.644   9.216  11.271  0.00  0.00    +0.000 A 
ATOM     22  H   UNL     1      51.505   6.067  10.908  0.00  0.00    +0.000 HD
ENDBRANCH   9  12
ENDBRANCH   7  10
ENDBRANCH   1   7
BRANCH   4  23
ATOM     23  C   UNL     1      43.439   5.221  10.962  0.00  0.00    +0.000 C 
BRANCH  23  24
ATOM     24  C   UNL     1      43.804   3.753  10.662  0.00  0.00    +0.000 C 
ATOM     25  O   UNL     1      43.299   2.837  11.323  0.00  0.00    +0.000 OA
ATOM     26  N   UNL     1      44.622   3.491   9.583  0.00  0.00    +0.000 N 
ATOM     27  C   UNL     1      44.741   2.147   9.045  0.00  0.00    +0.000 C 
ATOM     28  C   UNL     1      45.801   2.228   7.958  0.00  0.00    +0.000 C 
ATOM     29  C   UNL     1      45.841   3.704   7.573  0.00  0.00    +0.000 C 
ATOM     30  C   UNL     1      45.469   4.428   8.866  0.00  0.00    +0.000 C 
BRANCH  29  31
ATOM     31  O   UNL     1      47.120   4.076   7.088  0.00  0.00    +0.000 OA
ATOM     32  H   UNL     1      47.313   4.982   7.388  0.00  0.00    +0.000 HD
ENDBRANCH  29  31
ENDBRANCH  23  24
BRANCH  23  33
ATOM     33  O   UNL     1      42.356   5.257  11.899  0.00  0.00    +0.000 OA
ATOM     34  H   UNL     1      41.947   6.136  11.784  0.00  0.00    +0.000 HD
ENDBRANCH  23  33
ENDBRANCH   4  23
TORSDOF 7
ENDMDL
MODEL 6
REMARK VINA RESULT:    -7.173      2.688      8.032
REMARK INTER + INTRA:         -10.536
REMARK INTER:                  -9.507
REMARK INTRA:                  -1.028
REMARK UNBOUND:                -0.847
REMARK  Name = 
REMARK  7 active torsions:
REMARK  status: ('A' for Active; 'I' for Inactive)
REMARK    1  A    between atoms: C_2  and  C_21
REMARK    2  A    between atoms: N_3  and  C_4
REMARK    3  A    between atoms: C_4  and  C_5
REMARK    4  A    between atoms: C_8  and  C_9
REMARK    5  A    between atoms: C_9  and  O_10
REMARK    6  A    between atoms: C_9  and  C_11
REMARK    7  A    between atoms: C_16  and  O_17
REMARK                            x       y       z     vdW  Elec       q    Type
REMARK                         _______ _______ _______ _____ _____    ______ ____
ROOT
ATOM      1  C   UNL     1      48.199   8.071  13.070  0.00  0.00    +0.000 A 
ATOM      2  C   UNL     1      49.089   7.075  13.482  0.00  0.00    +0.000 A 
ATOM      3  C   UNL     1      49.571   7.053  14.787  0.00  0.00    +0.000 A 
ATOM      4  C   UNL     1      49.169   8.019  15.724  0.00  0.00    +0.000 A 
ATOM      5  C   UNL     1      48.308   9.042  15.303  0.00  0.00    +0.000 A 
ATOM      6  C   UNL     1      47.828   9.067  13.985  0.00  0.00    +0.000 A 
ENDROOT
BRANCH   1   7
ATOM      7  C   UNL     1      47.589   7.981  11.698  0.00  0.00    +0.000 C 
BRANCH   7  10
ATOM      8  O   UNL     1      44.740   7.712  11.757  0.00  0.00    +0.000 OA
ATOM      9  C   UNL     1      45.450   6.718  11.648  0.00  0.00    +0.000 C 
ATOM     10  N   UNL     1      46.818   6.771  11.557  0.00  0.00    +0.000 N 
ATOM     11  H   UNL     1      47.344   5.911  11.509  0.00  0.00    +0.000 HD
BRANCH   9  12
ATOM     12  C   UNL     1      44.883   5.367  11.558  0.00  0.00    +0.000 A 
ATOM     13  C   UNL     1      44.226   4.793  12.635  0.00  0.00    +0.000 A 
ATOM     14  S   UNL     1      43.593   3.243  12.288  0.00  0.00    +0.000 S 
ATOM     15  C   UNL     1      44.224   3.273  10.706  0.00  0.00    +0.000 A 
ATOM     16  N   UNL     1      44.030   2.237   9.849  0.00  0.00    +0.000 NA
ATOM     17  C   UNL     1      44.589   2.391   8.692  0.00  0.00    +0.000 A 
ATOM     18  N   UNL     1      45.334   3.480   8.322  0.00  0.00    +0.000 N 
ATOM     19  C   UNL     1      45.542   4.557   9.147  0.00  0.00    +0.000 A 
ATOM     20  O   UNL     1      46.181   5.532   8.765  0.00  0.00    +0.000 OA
ATOM     21  C   UNL     1      44.913   4.445  10.450  0.00  0.00    +0.000 A 
ATOM     22  H   UNL     1      45.749   3.540   7.405  0.00  0.00    +0.000 HD
ENDBRANCH   9  12
ENDBRANCH   7  10
ENDBRANCH   1   7
BRANCH   4  23
ATOM     23  C   UNL     1      49.535   7.777  17.172  0.00  0.00    +0.000 C 
BRANCH  23  24
ATOM     24  C   UNL     1      50.209   6.432  17.509  0.00  0.00    +0.000 C 
ATOM     25  O   UNL     1      51.435   6.368  17.655  0.00  0.00    +0.000 OA
ATOM     26  N   UNL     1      49.402   5.337  17.739  0.00  0.00    +0.000 N 
ATOM     27  C   UNL     1      49.929   4.141  18.374  0.00  0.00    +0.000 C 
ATOM     28  C   UNL     1      48.797   3.126  18.351  0.00  0.00    +0.000 C 
ATOM     29  C   UNL     1      47.533   3.968  18.192  0.00  0.00    +0.000 C 
ATOM     30  C   UNL     1      48.001   5.180  17.388  0.00  0.00    +0.000 C 
BRANCH  29  31
ATOM     31  O   UNL     1      46.509   3.241  17.536  0.00  0.00    +0.000 OA
ATOM     32  H   UNL     1      45.668   3.401  18.002  0.00  0.00    +0.000 HD
ENDBRANCH  29  31
ENDBRANCH  23  24
BRANCH  23  33
ATOM     33  O   UNL     1      50.409   8.850  17.541  0.00  0.00    +0.000 OA
ATOM     34  H   UNL     1      50.285   9.530  16.852  0.00  0.00    +0.000 HD
ENDBRANCH  23  33
ENDBRANCH   4  23
TORSDOF 7
ENDMDL
MODEL 7
REMARK VINA RESULT:    -6.794      2.477      3.223
REMARK INTER + INTRA:         -10.024
REMARK INTER:                  -8.886
REMARK INTRA:                  -1.138
REMARK UNBOUND:                -0.847
REMARK  Name = 
REMARK  7 active torsions:
REMARK  status: ('A' for Active; 'I' for Inactive)
REMARK    1  A    between atoms: C_2  and  C_21
REMARK    2  A    between atoms: N_3  and  C_4
REMARK    3  A    between atoms: C_4  and  C_5
REMARK    4  A    between atoms: C_8  and  C_9
REMARK    5  A    between atoms: C_9  and  O_10
REMARK    6  A    between atoms: C_9  and  C_11
REMARK    7  A    between atoms: C_16  and  O_17
REMARK                            x       y       z     vdW  Elec       q    Type
REMARK                         _______ _______ _______ _____ _____    ______ ____
ROOT
ATOM      1  C   UNL     1      48.331   8.023  13.511  0.00  0.00    +0.000 A 
ATOM      2  C   UNL     1      47.057   8.507  13.818  0.00  0.00    +0.000 A 
ATOM      3  C   UNL     1      45.974   8.222  12.993  0.00  0.00    +0.000 A 
ATOM      4  C   UNL     1      46.129   7.432  11.841  0.00  0.00    +0.000 A 
ATOM      5  C   UNL     1      47.413   6.978  11.509  0.00  0.00    +0.000 A 
ATOM      6  C   UNL     1      48.506   7.274  12.338  0.00  0.00    +0.000 A 
ENDROOT
BRANCH   1   7
ATOM      7  C   UNL     1      49.448   8.230  14.498  0.00  0.00    +0.000 C 
BRANCH   7  10
ATOM      8  O   UNL     1      48.610   7.443  17.119  0.00  0.00    +0.000 OA
ATOM      9  C   UNL     1      49.358   6.720  16.468  0.00  0.00    +0.000 C 
ATOM     10  N   UNL     1      49.758   7.003  15.187  0.00  0.00    +0.000 N 
ATOM     11  H   UNL     1      50.408   6.384  14.725  0.00  0.00    +0.000 HD
BRANCH   9  12
ATOM     12  C   UNL     1      49.860   5.448  17.000  0.00  0.00    +0.000 A 
ATOM     13  C   UNL     1      48.994   4.421  17.341  0.00  0.00    +0.000 A 
ATOM     14  S   UNL     1      49.799   3.013  17.880  0.00  0.00    +0.000 S 
ATOM     15  C   UNL     1      51.325   3.752  17.723  0.00  0.00    +0.000 A 
ATOM     16  N   UNL     1      52.469   3.080  18.016  0.00  0.00    +0.000 NA
ATOM     17  C   UNL     1      53.549   3.777  17.873  0.00  0.00    +0.000 A 
ATOM     18  N   UNL     1      53.586   5.089  17.477  0.00  0.00    +0.000 N 
ATOM     19  C   UNL     1      52.459   5.803  17.153  0.00  0.00    +0.000 A 
ATOM     20  O   UNL     1      52.536   6.963  16.765  0.00  0.00    +0.000 OA
ATOM     21  C   UNL     1      51.221   5.056  17.273  0.00  0.00    +0.000 A 
ATOM     22  H   UNL     1      54.462   5.582  17.388  0.00  0.00    +0.000 HD
ENDBRANCH   9  12
ENDBRANCH   7  10
ENDBRANCH   1   7
BRANCH   4  23
ATOM     23  C   UNL     1      44.870   6.961  11.148  0.00  0.00    +0.000 C 
BRANCH  23  24
ATOM     24  C   UNL     1      44.461   5.490  11.359  0.00  0.00    +0.000 C 
ATOM     25  O   UNL     1      43.901   5.143  12.406  0.00  0.00    +0.000 OA
ATOM     26  N   UNL     1      44.646   4.605  10.317  0.00  0.00    +0.000 N 
ATOM     27  C   UNL     1      43.996   3.306  10.318  0.00  0.00    +0.000 C 
ATOM     28  C   UNL     1      44.522   2.580   9.089  0.00  0.00    +0.000 C 
ATOM     29  C   UNL     1      45.024   3.693   8.174  0.00  0.00    +0.000 C 
ATOM     30  C   UNL     1      45.480   4.783   9.142  0.00  0.00    +0.000 C 
BRANCH  29  31
ATOM     31  O   UNL     1      46.071   3.237   7.334  0.00  0.00    +0.000 OA
ATOM     32  H   UNL     1      46.417   2.402   7.696  0.00  0.00    +0.000 HD
ENDBRANCH  29  31
ENDBRANCH  23  24
BRANCH  23  33
ATOM     33  O   UNL     1      43.820   7.817  11.617  0.00  0.00    +0.000 OA
ATOM     34  H   UNL     1      42.999   7.302  11.498  0.00  0.00    +0.000 HD
ENDBRANCH  23  33
ENDBRANCH   4  23
TORSDOF 7
ENDMDL
MODEL 8
REMARK VINA RESULT:    -6.760      4.813      7.847
REMARK INTER + INTRA:          -9.978
REMARK INTER:                  -9.033
REMARK INTRA:                  -0.945
REMARK UNBOUND:                -0.847
REMARK  Name = 
REMARK  7 active torsions:
REMARK  status: ('A' for Active; 'I' for Inactive)
REMARK    1  A    between atoms: C_2  and  C_21
REMARK    2  A    between atoms: N_3  and  C_4
REMARK    3  A    between atoms: C_4  and  C_5
REMARK    4  A    between atoms: C_8  and  C_9
REMARK    5  A    between atoms: C_9  and  O_10
REMARK    6  A    between atoms: C_9  and  C_11
REMARK    7  A    between atoms: C_16  and  O_17
REMARK                            x       y       z     vdW  Elec       q    Type
REMARK                         _______ _______ _______ _____ _____    ______ ____
ROOT
ATOM      1  C   UNL     1      48.042   8.406  12.218  0.00  0.00    +0.000 A 
ATOM      2  C   UNL     1      48.896   7.310  12.069  0.00  0.00    +0.000 A 
ATOM      3  C   UNL     1      50.188   7.481  11.582  0.00  0.00    +0.000 A 
ATOM      4  C   UNL     1      50.671   8.755  11.241  0.00  0.00    +0.000 A 
ATOM      5  C   UNL     1      49.804   9.851  11.352  0.00  0.00    +0.000 A 
ATOM      6  C   UNL     1      48.499   9.676  11.835  0.00  0.00    +0.000 A 
ENDROOT
BRANCH   1   7
ATOM      7  C   UNL     1      46.706   8.205  12.880  0.00  0.00    +0.000 C 
BRANCH   7  10
ATOM      8  O   UNL     1      44.490   7.674  11.150  0.00  0.00    +0.000 OA
ATOM      9  C   UNL     1      45.049   6.752  11.734  0.00  0.00    +0.000 C 
ATOM     10  N   UNL     1      46.150   6.921  12.535  0.00  0.00    +0.000 N 
ATOM     11  H   UNL     1      46.536   6.124  13.020  0.00  0.00    +0.000 HD
BRANCH   9  12
ATOM     12  C   UNL     1      44.607   5.361  11.588  0.00  0.00    +0.000 A 
ATOM     13  C   UNL     1      43.918   4.716  12.603  0.00  0.00    +0.000 A 
ATOM     14  S   UNL     1      43.448   3.125  12.193  0.00  0.00    +0.000 S 
ATOM     15  C   UNL     1      44.196   3.232  10.667  0.00  0.00    +0.000 A 
ATOM     16  N   UNL     1      44.158   2.198   9.788  0.00  0.00    +0.000 NA
ATOM     17  C   UNL     1      44.790   2.416   8.680  0.00  0.00    +0.000 A 
ATOM     18  N   UNL     1      45.467   3.569   8.380  0.00  0.00    +0.000 N 
ATOM     19  C   UNL     1      45.518   4.647   9.229  0.00  0.00    +0.000 A 
ATOM     20  O   UNL     1      46.101   5.677   8.908  0.00  0.00    +0.000 OA
ATOM     21  C   UNL     1      44.801   4.462  10.477  0.00  0.00    +0.000 A 
ATOM     22  H   UNL     1      45.946   3.678   7.499  0.00  0.00    +0.000 HD
ENDBRANCH   9  12
ENDBRANCH   7  10
ENDBRANCH   1   7
BRANCH   4  23
ATOM     23  C   UNL     1      52.153   8.885  10.965  0.00  0.00    +0.000 C 
BRANCH  23  24
ATOM     24  C   UNL     1      52.565   9.397   9.571  0.00  0.00    +0.000 C 
ATOM     25  O   UNL     1      52.762  10.604   9.384  0.00  0.00    +0.000 OA
ATOM     26  N   UNL     1      52.801   8.470   8.578  0.00  0.00    +0.000 N 
ATOM     27  C   UNL     1      53.498   8.842   7.359  0.00  0.00    +0.000 C 
ATOM     28  C   UNL     1      53.466   7.608   6.470  0.00  0.00    +0.000 C 
ATOM     29  C   UNL     1      53.226   6.449   7.434  0.00  0.00    +0.000 C 
ATOM     30  C   UNL     1      52.399   7.074   8.557  0.00  0.00    +0.000 C 
BRANCH  29  31
ATOM     31  O   UNL     1      52.556   5.377   6.795  0.00  0.00    +0.000 OA
ATOM     32  H   UNL     1      53.017   5.176   5.961  0.00  0.00    +0.000 HD
ENDBRANCH  29  31
ENDBRANCH  23  24
BRANCH  23  33
ATOM     33  O   UNL     1      52.662   9.775  11.966  0.00  0.00    +0.000 OA
ATOM     34  H   UNL     1      51.909   9.945  12.564  0.00  0.00    +0.000 HD
ENDBRANCH  23  33
ENDBRANCH   4  23
TORSDOF 7
ENDMDL
