MODEL 1
REMARK VINA RESULT:    -8.625      0.000      0.000
REMARK INTER + INTRA:         -13.035
REMARK INTER:                 -12.155
REMARK INTRA:                  -0.880
REMARK UNBOUND:                -0.880
REMARK  Name = 
REMARK  8 active torsions:
REMARK  status: ('A' for Active; 'I' for Inactive)
REMARK    1  A    between atoms: C_1  and  C_2
REMARK    2  A    between atoms: C_2  and  N_3
REMARK    3  A    between atoms: C_2  and  C_25
REMARK    4  A    between atoms: N_3  and  C_4
REMARK    5  A    between atoms: C_4  and  C_5
REMARK    6  A    between atoms: C_8  and  C_9
REMARK    7  A    between atoms: C_9  and  N_10
REMARK    8  A    between atoms: C_11  and  C_13
REMARK                            x       y       z     vdW  Elec       q    Type
REMARK                         _______ _______ _______ _____ _____    ______ ____
ROOT
ATOM      1  C   UNL     1      44.210   6.599  11.736  0.00  0.00    +0.000 A 
ATOM      2  C   UNL     1      44.516   7.925  11.394  0.00  0.00    +0.000 A 
ATOM      3  C   UNL     1      45.585   8.589  12.000  0.00  0.00    +0.000 A 
ATOM      4  C   UNL     1      46.373   7.937  12.955  0.00  0.00    +0.000 A 
ATOM      5  C   UNL     1      46.050   6.623  13.320  0.00  0.00    +0.000 A 
ATOM      6  C   UNL     1      44.982   5.959  12.713  0.00  0.00    +0.000 A 
ENDROOT
BRANCH   1   7
ATOM      7  C   UNL     1      43.019   5.905  11.116  0.00  0.00    +0.000 C 
BRANCH   7   8
ATOM      8  N   UNL     1      43.414   5.010  10.028  0.00  0.00    +0.000 NA
ATOM      9  H   UNL     1      43.900   5.562   9.320  0.00  0.00    +0.000 HD
BRANCH   8  11
ATOM     10  C   UNL     1      43.531   2.733  11.049  0.00  0.00    +0.000 C 
ATOM     11  C   UNL     1      44.303   3.925  10.468  0.00  0.00    +0.000 C 
BRANCH  11  12
ATOM     12  C   UNL     1      45.177   3.465   9.304  0.00  0.00    +0.000 A 
ATOM     13  C   UNL     1      45.417   2.097   9.094  0.00  0.00    +0.000 A 
ATOM     14  C   UNL     1      46.211   1.667   8.027  0.00  0.00    +0.000 A 
ATOM     15  C   UNL     1      46.772   2.599   7.158  0.00  0.00    +0.000 A 
ATOM     16 CL   UNL     1      47.753   2.068   5.847  0.00  0.00    +0.000 Cl
ATOM     17  C   UNL     1      46.548   3.960   7.348  0.00  0.00    +0.000 A 
ATOM     18  C   UNL     1      45.756   4.390   8.417  0.00  0.00    +0.000 A 
ENDBRANCH  11  12
ENDBRANCH   8  11
ENDBRANCH   7   8
ENDBRANCH   1   7
BRANCH   4  19
ATOM     19  C   UNL     1      47.520   8.647  13.623  0.00  0.00    +0.000 C 
BRANCH  19  20
ATOM     20  N   UNL     1      47.847   8.026  14.882  0.00  0.00    +0.000 N 
ATOM     21  C   UNL     1      48.815   7.061  14.964  0.00  0.00    +0.000 C 
ATOM     22  O   UNL     1      49.469   6.711  13.985  0.00  0.00    +0.000 OA
ATOM     23  H   UNL     1      47.185   8.145  15.642  0.00  0.00    +0.000 HD
BRANCH  21  24
ATOM     24  C   UNL     1      49.078   6.507  16.297  0.00  0.00    +0.000 A 
ATOM     25  C   UNL     1      49.819   7.245  17.210  0.00  0.00    +0.000 A 
ATOM     26  S   UNL     1      49.985   6.490  18.728  0.00  0.00    +0.000 S 
ATOM     27  C   UNL     1      49.115   5.125  18.205  0.00  0.00    +0.000 A 
ATOM     28  N   UNL     1      48.905   4.069  19.036  0.00  0.00    +0.000 NA
ATOM     29  C   UNL     1      48.258   3.089  18.502  0.00  0.00    +0.000 A 
ATOM     30  N   UNL     1      47.795   3.073  17.211  0.00  0.00    +0.000 N 
ATOM     31  C   UNL     1      47.959   4.126  16.345  0.00  0.00    +0.000 A 
ATOM     32  O   UNL     1      47.497   4.092  15.209  0.00  0.00    +0.000 OA
ATOM     33  C   UNL     1      48.690   5.250  16.894  0.00  0.00    +0.000 A 
ATOM     34  H   UNL     1      47.287   2.276  16.861  0.00  0.00    +0.000 HD
ENDBRANCH  21  24
ENDBRANCH  19  20
ENDBRANCH   4  19
TORSDOF 7
ENDMDL
MODEL 2
REMARK VINA RESULT:    -8.414      1.329      1.727
REMARK INTER + INTRA:         -12.737
REMARK INTER:                 -11.605
REMARK INTRA:                  -1.132
REMARK UNBOUND:                -0.880
REMARK  Name = 
REMARK  8 active torsions:
REMARK  status: ('A' for Active; 'I' for Inactive)
REMARK    1  A    between atoms: C_1  and  C_2
REMARK    2  A    between atoms: C_2  and  N_3
REMARK    3  A    between atoms: C_2  and  C_25
REMARK    4  A    between atoms: N_3  and  C_4
REMARK    5  A    between atoms: C_4  and  C_5
REMARK    6  A    between atoms: C_8  and  C_9
REMARK    7  A    between atoms: C_9  and  N_10
REMARK    8  A    between atoms: C_11  and  C_13
REMARK                            x       y       z     vdW  Elec       q    Type
REMARK                         _______ _______ _______ _____ _____    ______ ____
ROOT
ATOM      1  C   UNL     1      44.604   6.172  11.847  0.00  0.00    +0.000 A 
ATOM      2  C   UNL     1      44.904   5.438  13.004  0.00  0.00    +0.000 A 
ATOM      3  C   UNL     1      46.140   5.583  13.640  0.00  0.00    +0.000 A 
ATOM      4  C   UNL     1      47.096   6.471  13.134  0.00  0.00    +0.000 A 
ATOM      5  C   UNL     1      46.809   7.182  11.961  0.00  0.00    +0.000 A 
ATOM      6  C   UNL     1      45.574   7.038  11.326  0.00  0.00    +0.000 A 
ENDROOT
BRANCH   1   7
ATOM      7  C   UNL     1      43.287   5.971  11.133  0.00  0.00    +0.000 C 
BRANCH   7   8
ATOM      8  N   UNL     1      43.370   4.919  10.119  0.00  0.00    +0.000 NA
ATOM      9  H   UNL     1      43.737   5.332   9.260  0.00  0.00    +0.000 HD
BRANCH   8  11
ATOM     10  C   UNL     1      43.456   2.594  11.029  0.00  0.00    +0.000 C 
ATOM     11  C   UNL     1      44.245   3.806  10.514  0.00  0.00    +0.000 C 
BRANCH  11  12
ATOM     12  C   UNL     1      45.127   3.395   9.337  0.00  0.00    +0.000 A 
ATOM     13  C   UNL     1      45.403   2.039   9.097  0.00  0.00    +0.000 A 
ATOM     14  C   UNL     1      46.204   1.654   8.018  0.00  0.00    +0.000 A 
ATOM     15  C   UNL     1      46.736   2.620   7.168  0.00  0.00    +0.000 A 
ATOM     16 CL   UNL     1      47.726   2.144   5.842  0.00  0.00    +0.000 Cl
ATOM     17  C   UNL     1      46.475   3.970   7.388  0.00  0.00    +0.000 A 
ATOM     18  C   UNL     1      45.677   4.355   8.468  0.00  0.00    +0.000 A 
ENDBRANCH  11  12
ENDBRANCH   8  11
ENDBRANCH   7   8
ENDBRANCH   1   7
BRANCH   4  19
ATOM     19  C   UNL     1      48.435   6.625  13.804  0.00  0.00    +0.000 C 
BRANCH  19  20
ATOM     20  N   UNL     1      48.299   6.595  15.238  0.00  0.00    +0.000 N 
ATOM     21  C   UNL     1      49.177   7.267  16.047  0.00  0.00    +0.000 C 
ATOM     22  O   UNL     1      50.088   7.952  15.589  0.00  0.00    +0.000 OA
ATOM     23  H   UNL     1      47.698   5.876  15.631  0.00  0.00    +0.000 HD
BRANCH  21  24
ATOM     24  C   UNL     1      48.936   7.179  17.492  0.00  0.00    +0.000 A 
ATOM     25  C   UNL     1      48.654   8.334  18.209  0.00  0.00    +0.000 A 
ATOM     26  S   UNL     1      48.343   8.056  19.861  0.00  0.00    +0.000 S 
ATOM     27  C   UNL     1      48.626   6.388  19.689  0.00  0.00    +0.000 A 
ATOM     28  N   UNL     1      48.540   5.550  20.757  0.00  0.00    +0.000 NA
ATOM     29  C   UNL     1      48.808   4.316  20.493  0.00  0.00    +0.000 A 
ATOM     30  N   UNL     1      49.149   3.843  19.251  0.00  0.00    +0.000 N 
ATOM     31  C   UNL     1      49.220   4.645  18.138  0.00  0.00    +0.000 A 
ATOM     32  O   UNL     1      49.490   4.179  17.036  0.00  0.00    +0.000 OA
ATOM     33  C   UNL     1      48.938   6.044  18.385  0.00  0.00    +0.000 A 
ATOM     34  H   UNL     1      49.336   2.862  19.113  0.00  0.00    +0.000 HD
ENDBRANCH  21  24
ENDBRANCH  19  20
ENDBRANCH   4  19
TORSDOF 7
ENDMDL
MODEL 3
REMARK VINA RESULT:    -8.280      1.870      2.667
REMARK INTER + INTRA:         -12.549
REMARK INTER:                 -11.542
REMARK INTRA:                  -1.007
REMARK UNBOUND:                -0.880
REMARK  Name = 
REMARK  8 active torsions:
REMARK  status: ('A' for Active; 'I' for Inactive)
REMARK    1  A    between atoms: C_1  and  C_2
REMARK    2  A    between atoms: C_2  and  N_3
REMARK    3  A    between atoms: C_2  and  C_25
REMARK    4  A    between atoms: N_3  and  C_4
REMARK    5  A    between atoms: C_4  and  C_5
REMARK    6  A    between atoms: C_8  and  C_9
REMARK    7  A    between atoms: C_9  and  N_10
REMARK    8  A    between atoms: C_11  and  C_13
REMARK                            x       y       z     vdW  Elec       q    Type
REMARK                         _______ _______ _______ _____ _____    ______ ____
ROOT
ATOM      1  C   UNL     1      44.531   6.239  11.950  0.00  0.00    +0.000 A 
ATOM      2  C   UNL     1      44.948   5.413  13.004  0.00  0.00    +0.000 A 
ATOM      3  C   UNL     1      46.158   5.652  13.661  0.00  0.00    +0.000 A 
ATOM      4  C   UNL     1      46.969   6.727  13.280  0.00  0.00    +0.000 A 
ATOM      5  C   UNL     1      46.567   7.534  12.208  0.00  0.00    +0.000 A 
ATOM      6  C   UNL     1      45.358   7.296  11.552  0.00  0.00    +0.000 A 
ENDROOT
BRANCH   1   7
ATOM      7  C   UNL     1      43.248   5.942  11.208  0.00  0.00    +0.000 C 
BRANCH   7   8
ATOM      8  N   UNL     1      43.451   4.969  10.133  0.00  0.00    +0.000 NA
ATOM      9  H   UNL     1      43.885   5.450   9.344  0.00  0.00    +0.000 HD
BRANCH   8  11
ATOM     10  C   UNL     1      43.510   2.658  11.079  0.00  0.00    +0.000 C 
ATOM     11  C   UNL     1      44.312   3.845  10.528  0.00  0.00    +0.000 C 
BRANCH  11  12
ATOM     12  C   UNL     1      45.160   3.398   9.340  0.00  0.00    +0.000 A 
ATOM     13  C   UNL     1      45.693   4.347   8.452  0.00  0.00    +0.000 A 
ATOM     14  C   UNL     1      46.476   3.946   7.365  0.00  0.00    +0.000 A 
ATOM     15  C   UNL     1      46.735   2.594   7.156  0.00  0.00    +0.000 A 
ATOM     16 CL   UNL     1      47.696   2.103   5.816  0.00  0.00    +0.000 Cl
ATOM     17  C   UNL     1      46.217   1.638   8.025  0.00  0.00    +0.000 A 
ATOM     18  C   UNL     1      45.432   2.038   9.109  0.00  0.00    +0.000 A 
ENDBRANCH  11  12
ENDBRANCH   8  11
ENDBRANCH   7   8
ENDBRANCH   1   7
BRANCH   4  19
ATOM     19  C   UNL     1      48.279   6.987  13.974  0.00  0.00    +0.000 C 
BRANCH  19  20
ATOM     20  N   UNL     1      48.185   6.692  15.381  0.00  0.00    +0.000 N 
ATOM     21  C   UNL     1      49.305   6.444  16.130  0.00  0.00    +0.000 C 
ATOM     22  O   UNL     1      50.433   6.499  15.648  0.00  0.00    +0.000 OA
ATOM     23  H   UNL     1      47.270   6.436  15.739  0.00  0.00    +0.000 HD
BRANCH  21  24
ATOM     24  C   UNL     1      49.093   6.170  17.555  0.00  0.00    +0.000 A 
ATOM     25  C   UNL     1      49.479   4.944  18.080  0.00  0.00    +0.000 A 
ATOM     26  S   UNL     1      49.219   4.805  19.758  0.00  0.00    +0.000 S 
ATOM     27  C   UNL     1      48.535   6.360  19.836  0.00  0.00    +0.000 A 
ATOM     28  N   UNL     1      48.075   6.863  21.013  0.00  0.00    +0.000 NA
ATOM     29  C   UNL     1      47.553   8.040  20.924  0.00  0.00    +0.000 A 
ATOM     30  N   UNL     1      47.456   8.763  19.762  0.00  0.00    +0.000 N 
ATOM     31  C   UNL     1      47.931   8.308  18.557  0.00  0.00    +0.000 A 
ATOM     32  O   UNL     1      47.863   8.999  17.545  0.00  0.00    +0.000 OA
ATOM     33  C   UNL     1      48.518   6.985  18.601  0.00  0.00    +0.000 A 
ATOM     34  H   UNL     1      47.044   9.683  19.767  0.00  0.00    +0.000 HD
ENDBRANCH  21  24
ENDBRANCH  19  20
ENDBRANCH   4  19
TORSDOF 7
ENDMDL
MODEL 4
REMARK VINA RESULT:    -7.980      2.911      3.962
REMARK INTER + INTRA:         -12.126
REMARK INTER:                 -10.881
REMARK INTRA:                  -1.245
REMARK UNBOUND:                -0.880
REMARK  Name = 
REMARK  8 active torsions:
REMARK  status: ('A' for Active; 'I' for Inactive)
REMARK    1  A    between atoms: C_1  and  C_2
REMARK    2  A    between atoms: C_2  and  N_3
REMARK    3  A    between atoms: C_2  and  C_25
REMARK    4  A    between atoms: N_3  and  C_4
REMARK    5  A    between atoms: C_4  and  C_5
REMARK    6  A    between atoms: C_8  and  C_9
REMARK    7  A    between atoms: C_9  and  N_10
REMARK    8  A    between atoms: C_11  and  C_13
REMARK                            x       y       z     vdW  Elec       q    Type
REMARK                         _______ _______ _______ _____ _____    ______ ____
ROOT
ATOM      1  C   UNL     1      46.843   4.575  14.070  0.00  0.00    +0.000 A 
ATOM      2  C   UNL     1      46.892   3.896  15.297  0.00  0.00    +0.000 A 
ATOM      3  C   UNL     1      47.611   4.420  16.375  0.00  0.00    +0.000 A 
ATOM      4  C   UNL     1      48.288   5.639  16.247  0.00  0.00    +0.000 A 
ATOM      5  C   UNL     1      48.264   6.303  15.013  0.00  0.00    +0.000 A 
ATOM      6  C   UNL     1      47.545   5.779  13.937  0.00  0.00    +0.000 A 
ENDROOT
BRANCH   1   7
ATOM      7  C   UNL     1      46.109   3.975  12.893  0.00  0.00    +0.000 C 
BRANCH   7   8
ATOM      8  N   UNL     1      45.267   4.961  12.214  0.00  0.00    +0.000 NA
ATOM      9  H   UNL     1      45.868   5.551  11.636  0.00  0.00    +0.000 HD
BRANCH   8  11
ATOM     10  C   UNL     1      43.088   5.311  11.044  0.00  0.00    +0.000 C 
ATOM     11  C   UNL     1      44.243   4.349  11.355  0.00  0.00    +0.000 C 
BRANCH  11  12
ATOM     12  C   UNL     1      44.880   3.858  10.057  0.00  0.00    +0.000 A 
ATOM     13  C   UNL     1      45.506   4.766   9.187  0.00  0.00    +0.000 A 
ATOM     14  C   UNL     1      46.097   4.324   7.999  0.00  0.00    +0.000 A 
ATOM     15  C   UNL     1      46.069   2.971   7.671  0.00  0.00    +0.000 A 
ATOM     16 CL   UNL     1      46.793   2.429   6.207  0.00  0.00    +0.000 Cl
ATOM     17  C   UNL     1      45.453   2.055   8.519  0.00  0.00    +0.000 A 
ATOM     18  C   UNL     1      44.860   2.497   9.705  0.00  0.00    +0.000 A 
ENDBRANCH  11  12
ENDBRANCH   8  11
ENDBRANCH   7   8
ENDBRANCH   1   7
BRANCH   4  19
ATOM     19  C   UNL     1      49.074   6.207  17.397  0.00  0.00    +0.000 C 
BRANCH  19  20
ATOM     20  N   UNL     1      50.093   5.284  17.830  0.00  0.00    +0.000 N 
ATOM     21  C   UNL     1      51.367   5.350  17.331  0.00  0.00    +0.000 C 
ATOM     22  O   UNL     1      51.706   6.215  16.528  0.00  0.00    +0.000 OA
ATOM     23  H   UNL     1      49.784   4.448  18.317  0.00  0.00    +0.000 HD
BRANCH  21  24
ATOM     24  C   UNL     1      52.328   4.371  17.852  0.00  0.00    +0.000 A 
ATOM     25  C   UNL     1      53.493   4.816  18.461  0.00  0.00    +0.000 A 
ATOM     26  S   UNL     1      54.474   3.558  19.063  0.00  0.00    +0.000 S 
ATOM     27  C   UNL     1      53.400   2.372  18.486  0.00  0.00    +0.000 A 
ATOM     28  N   UNL     1      53.663   1.048  18.659  0.00  0.00    +0.000 NA
ATOM     29  C   UNL     1      52.781   0.257  18.147  0.00  0.00    +0.000 A 
ATOM     30  N   UNL     1      51.656   0.672  17.481  0.00  0.00    +0.000 N 
ATOM     31  C   UNL     1      51.336   1.996  17.307  0.00  0.00    +0.000 A 
ATOM     32  O   UNL     1      50.300   2.330  16.741  0.00  0.00    +0.000 OA
ATOM     33  C   UNL     1      52.300   2.927  17.856  0.00  0.00    +0.000 A 
ATOM     34  H   UNL     1      51.003  -0.002  17.114  0.00  0.00    +0.000 HD
ENDBRANCH  21  24
ENDBRANCH  19  20
ENDBRANCH   4  19
TORSDOF 7
ENDMDL
MODEL 5
REMARK VINA RESULT:    -7.666      1.864      2.497
REMARK INTER + INTRA:         -11.683
REMARK INTER:                 -11.011
REMARK INTRA:                  -0.672
REMARK UNBOUND:                -0.880
REMARK  Name = 
REMARK  8 active torsions:
REMARK  status: ('A' for Active; 'I' for Inactive)
REMARK    1  A    between atoms: C_1  and  C_2
REMARK    2  A    between atoms: C_2  and  N_3
REMARK    3  A    between atoms: C_2  and  C_25
REMARK    4  A    between atoms: N_3  and  C_4
REMARK    5  A    between atoms: C_4  and  C_5
REMARK    6  A    between atoms: C_8  and  C_9
REMARK    7  A    between atoms: C_9  and  N_10
REMARK    8  A    between atoms: C_11  and  C_13
REMARK                            x       y       z     vdW  Elec       q    Type
REMARK                         _______ _______ _______ _____ _____    ______ ____
ROOT
ATOM      1  C   UNL     1      44.465   6.406  12.019  0.00  0.00    +0.000 A 
ATOM      2  C   UNL     1      45.181   5.530  12.850  0.00  0.00    +0.000 A 
ATOM      3  C   UNL     1      46.400   5.918  13.413  0.00  0.00    +0.000 A 
ATOM      4  C   UNL     1      46.921   7.193  13.161  0.00  0.00    +0.000 A 
ATOM      5  C   UNL     1      46.221   8.057  12.308  0.00  0.00    +0.000 A 
ATOM      6  C   UNL     1      45.003   7.669  11.746  0.00  0.00    +0.000 A 
ENDROOT
BRANCH   1   7
ATOM      7  C   UNL     1      43.175   5.960  11.370  0.00  0.00    +0.000 C 
BRANCH   7   8
ATOM      8  N   UNL     1      43.413   5.041  10.256  0.00  0.00    +0.000 NA
ATOM      9  H   UNL     1      43.877   5.558   9.508  0.00  0.00    +0.000 HD
BRANCH   8  11
ATOM     10  C   UNL     1      43.432   2.703  11.136  0.00  0.00    +0.000 C 
ATOM     11  C   UNL     1      44.255   3.894  10.626  0.00  0.00    +0.000 C 
BRANCH  11  12
ATOM     12  C   UNL     1      45.107   3.469   9.432  0.00  0.00    +0.000 A 
ATOM     13  C   UNL     1      45.336   2.108   9.173  0.00  0.00    +0.000 A 
ATOM     14  C   UNL     1      46.110   1.710   8.079  0.00  0.00    +0.000 A 
ATOM     15  C   UNL     1      46.661   2.668   7.232  0.00  0.00    +0.000 A 
ATOM     16 CL   UNL     1      47.616   2.176   5.888  0.00  0.00    +0.000 Cl
ATOM     17  C   UNL     1      46.446   4.023   7.471  0.00  0.00    +0.000 A 
ATOM     18  C   UNL     1      45.675   4.420   8.566  0.00  0.00    +0.000 A 
ENDBRANCH  11  12
ENDBRANCH   8  11
ENDBRANCH   7   8
ENDBRANCH   1   7
BRANCH   4  19
ATOM     19  C   UNL     1      48.238   7.616  13.753  0.00  0.00    +0.000 C 
BRANCH  19  20
ATOM     20  N   UNL     1      48.699   6.656  14.724  0.00  0.00    +0.000 N 
ATOM     21  C   UNL     1      49.387   7.053  15.840  0.00  0.00    +0.000 C 
ATOM     22  O   UNL     1      49.607   8.237  16.081  0.00  0.00    +0.000 OA
ATOM     23  H   UNL     1      48.716   5.682  14.439  0.00  0.00    +0.000 HD
BRANCH  21  24
ATOM     24  C   UNL     1      49.797   5.994  16.769  0.00  0.00    +0.000 A 
ATOM     25  C   UNL     1      48.827   5.275  17.456  0.00  0.00    +0.000 A 
ATOM     26  S   UNL     1      49.462   4.045  18.449  0.00  0.00    +0.000 S 
ATOM     27  C   UNL     1      51.059   4.461  18.037  0.00  0.00    +0.000 A 
ATOM     28  N   UNL     1      52.116   3.791  18.570  0.00  0.00    +0.000 NA
ATOM     29  C   UNL     1      53.270   4.229  18.196  0.00  0.00    +0.000 A 
ATOM     30  N   UNL     1      53.463   5.275  17.330  0.00  0.00    +0.000 N 
ATOM     31  C   UNL     1      52.427   5.962  16.745  0.00  0.00    +0.000 A 
ATOM     32  O   UNL     1      52.638   6.867  15.944  0.00  0.00    +0.000 OA
ATOM     33  C   UNL     1      51.108   5.515  17.141  0.00  0.00    +0.000 A 
ATOM     34  H   UNL     1      54.395   5.559  17.072  0.00  0.00    +0.000 HD
ENDBRANCH  21  24
ENDBRANCH  19  20
ENDBRANCH   4  19
TORSDOF 7
ENDMDL
MODEL 6
REMARK VINA RESULT:    -7.541      3.472      8.271
REMARK INTER + INTRA:         -11.508
REMARK INTER:                  -9.620
REMARK INTRA:                  -1.888
REMARK UNBOUND:                -0.880
REMARK  Name = 
REMARK  8 active torsions:
REMARK  status: ('A' for Active; 'I' for Inactive)
REMARK    1  A    between atoms: C_1  and  C_2
REMARK    2  A    between atoms: C_2  and  N_3
REMARK    3  A    between atoms: C_2  and  C_25
REMARK    4  A    between atoms: N_3  and  C_4
REMARK    5  A    between atoms: C_4  and  C_5
REMARK    6  A    between atoms: C_8  and  C_9
REMARK    7  A    between atoms: C_9  and  N_10
REMARK    8  A    between atoms: C_11  and  C_13
REMARK                            x       y       z     vdW  Elec       q    Type
REMARK                         _______ _______ _______ _____ _____    ______ ____
ROOT
ATOM      1  C   UNL     1      49.163   8.308  16.062  0.00  0.00    +0.000 A 
ATOM      2  C   UNL     1      49.666   7.255  15.284  0.00  0.00    +0.000 A 
ATOM      3  C   UNL     1      49.262   7.094  13.956  0.00  0.00    +0.000 A 
ATOM      4  C   UNL     1      48.354   7.989  13.380  0.00  0.00    +0.000 A 
ATOM      5  C   UNL     1      47.829   9.024  14.165  0.00  0.00    +0.000 A 
ATOM      6  C   UNL     1      48.233   9.185  15.492  0.00  0.00    +0.000 A 
ENDROOT
BRANCH   1   7
ATOM      7  C   UNL     1      49.563   8.445  17.514  0.00  0.00    +0.000 C 
BRANCH   7   8
ATOM      8  N   UNL     1      48.445   8.164  18.416  0.00  0.00    +0.000 NA
ATOM      9  H   UNL     1      47.631   7.920  17.851  0.00  0.00    +0.000 HD
BRANCH   8  11
ATOM     10  C   UNL     1      47.682   6.969  20.473  0.00  0.00    +0.000 C 
ATOM     11  C   UNL     1      48.719   7.058  19.345  0.00  0.00    +0.000 C 
BRANCH  11  12
ATOM     12  C   UNL     1      48.775   5.738  18.580  0.00  0.00    +0.000 A 
ATOM     13  C   UNL     1      49.983   5.031  18.474  0.00  0.00    +0.000 A 
ATOM     14  C   UNL     1      50.042   3.818  17.779  0.00  0.00    +0.000 A 
ATOM     15  C   UNL     1      48.893   3.301  17.186  0.00  0.00    +0.000 A 
ATOM     16 CL   UNL     1      48.968   1.811  16.328  0.00  0.00    +0.000 Cl
ATOM     17  C   UNL     1      47.685   3.987  17.278  0.00  0.00    +0.000 A 
ATOM     18  C   UNL     1      47.628   5.200  17.970  0.00  0.00    +0.000 A 
ENDBRANCH  11  12
ENDBRANCH   8  11
ENDBRANCH   7   8
ENDBRANCH   1   7
BRANCH   4  19
ATOM     19  C   UNL     1      47.903   7.818  11.954  0.00  0.00    +0.000 C 
BRANCH  19  20
ATOM     20  N   UNL     1      47.154   6.598  11.793  0.00  0.00    +0.000 N 
ATOM     21  C   UNL     1      45.785   6.597  11.831  0.00  0.00    +0.000 C 
ATOM     22  O   UNL     1      45.138   7.633  11.964  0.00  0.00    +0.000 OA
ATOM     23  H   UNL     1      47.663   5.725  11.898  0.00  0.00    +0.000 HD
BRANCH  21  24
ATOM     24  C   UNL     1      45.123   5.301  11.642  0.00  0.00    +0.000 A 
ATOM     25  C   UNL     1      44.456   4.713  12.707  0.00  0.00    +0.000 A 
ATOM     26  S   UNL     1      43.694   3.241  12.310  0.00  0.00    +0.000 S 
ATOM     27  C   UNL     1      44.272   3.311  10.712  0.00  0.00    +0.000 A 
ATOM     28  N   UNL     1      43.990   2.321   9.822  0.00  0.00    +0.000 NA
ATOM     29  C   UNL     1      44.516   2.485   8.655  0.00  0.00    +0.000 A 
ATOM     30  N   UNL     1      45.295   3.555   8.296  0.00  0.00    +0.000 N 
ATOM     31  C   UNL     1      45.584   4.591   9.151  0.00  0.00    +0.000 A 
ATOM     32  O   UNL     1      46.251   5.552   8.782  0.00  0.00    +0.000 OA
ATOM     33  C   UNL     1      45.024   4.450  10.479  0.00  0.00    +0.000 A 
ATOM     34  H   UNL     1      45.667   3.625   7.361  0.00  0.00    +0.000 HD
ENDBRANCH  21  24
ENDBRANCH  19  20
ENDBRANCH   4  19
TORSDOF 7
ENDMDL
MODEL 7
REMARK VINA RESULT:    -7.355      5.455      6.971
REMARK INTER + INTRA:         -11.244
REMARK INTER:                  -9.897
REMARK INTRA:                  -1.347
REMARK UNBOUND:                -0.880
REMARK  Name = 
REMARK  8 active torsions:
REMARK  status: ('A' for Active; 'I' for Inactive)
REMARK    1  A    between atoms: C_1  and  C_2
REMARK    2  A    between atoms: C_2  and  N_3
REMARK    3  A    between atoms: C_2  and  C_25
REMARK    4  A    between atoms: N_3  and  C_4
REMARK    5  A    between atoms: C_4  and  C_5
REMARK    6  A    between atoms: C_8  and  C_9
REMARK    7  A    between atoms: C_9  and  N_10
REMARK    8  A    between atoms: C_11  and  C_13
REMARK                            x       y       z     vdW  Elec       q    Type
REMARK                         _______ _______ _______ _____ _____    ______ ____
ROOT
ATOM      1  C   UNL     1      47.246   6.599  12.954  0.00  0.00    +0.000 A 
ATOM      2  C   UNL     1      48.219   6.694  13.960  0.00  0.00    +0.000 A 
ATOM      3  C   UNL     1      49.477   7.239  13.687  0.00  0.00    +0.000 A 
ATOM      4  C   UNL     1      49.781   7.706  12.403  0.00  0.00    +0.000 A 
ATOM      5  C   UNL     1      48.820   7.584  11.390  0.00  0.00    +0.000 A 
ATOM      6  C   UNL     1      47.563   7.041  11.664  0.00  0.00    +0.000 A 
ENDROOT
BRANCH   1   7
ATOM      7  C   UNL     1      45.908   5.960  13.243  0.00  0.00    +0.000 C 
BRANCH   7   8
ATOM      8  N   UNL     1      44.973   6.121  12.128  0.00  0.00    +0.000 NA
ATOM      9  H   UNL     1      45.497   6.449  11.316  0.00  0.00    +0.000 HD
BRANCH   8  11
ATOM     10  C   UNL     1      42.760   5.035  11.723  0.00  0.00    +0.000 C 
ATOM     11  C   UNL     1      44.285   4.872  11.769  0.00  0.00    +0.000 C 
BRANCH  11  12
ATOM     12  C   UNL     1      44.798   4.366  10.423  0.00  0.00    +0.000 A 
ATOM     13  C   UNL     1      44.519   3.054  10.005  0.00  0.00    +0.000 A 
ATOM     14  C   UNL     1      44.980   2.585   8.772  0.00  0.00    +0.000 A 
ATOM     15  C   UNL     1      45.722   3.422   7.943  0.00  0.00    +0.000 A 
ATOM     16 CL   UNL     1      46.292   2.841   6.426  0.00  0.00    +0.000 Cl
ATOM     17  C   UNL     1      46.010   4.725   8.337  0.00  0.00    +0.000 A 
ATOM     18  C   UNL     1      45.552   5.193   9.572  0.00  0.00    +0.000 A 
ENDBRANCH  11  12
ENDBRANCH   8  11
ENDBRANCH   7   8
ENDBRANCH   1   7
BRANCH   4  19
ATOM     19  C   UNL     1      51.136   8.283  12.095  0.00  0.00    +0.000 C 
BRANCH  19  20
ATOM     20  N   UNL     1      51.522   7.996  10.736  0.00  0.00    +0.000 N 
ATOM     21  C   UNL     1      52.599   8.616  10.160  0.00  0.00    +0.000 C 
ATOM     22  O   UNL     1      53.301   9.409  10.781  0.00  0.00    +0.000 OA
ATOM     23  H   UNL     1      50.841   7.519  10.153  0.00  0.00    +0.000 HD
BRANCH  21  24
ATOM     24  C   UNL     1      52.910   8.238   8.777  0.00  0.00    +0.000 A 
ATOM     25  C   UNL     1      52.815   9.190   7.770  0.00  0.00    +0.000 A 
ATOM     26  S   UNL     1      53.265   8.608   6.233  0.00  0.00    +0.000 S 
ATOM     27  C   UNL     1      53.554   7.049   6.848  0.00  0.00    +0.000 A 
ATOM     28  N   UNL     1      53.958   6.039   6.031  0.00  0.00    +0.000 NA
ATOM     29  C   UNL     1      54.112   4.902   6.621  0.00  0.00    +0.000 A 
ATOM     30  N   UNL     1      53.902   4.686   7.960  0.00  0.00    +0.000 N 
ATOM     31  C   UNL     1      53.521   5.680   8.827  0.00  0.00    +0.000 A 
ATOM     32  O   UNL     1      53.382   5.458  10.026  0.00  0.00    +0.000 OA
ATOM     33  C   UNL     1      53.326   6.976   8.211  0.00  0.00    +0.000 A 
ATOM     34  H   UNL     1      54.051   3.771   8.358  0.00  0.00    +0.000 HD
ENDBRANCH  21  24
ENDBRANCH  19  20
ENDBRANCH   4  19
TORSDOF 7
ENDMDL
MODEL 8
REMARK VINA RESULT:    -7.349      3.887      8.832
REMARK INTER + INTRA:         -11.236
REMARK INTER:                  -9.040
REMARK INTRA:                  -2.196
REMARK UNBOUND:                -0.880
REMARK  Name = 
REMARK  8 active torsions:
REMARK  status: ('A' for Active; 'I' for Inactive)
REMARK    1  A    between atoms: C_1  and  C_2
REMARK    2  A    between atoms: C_2  and  N_3
REMARK    3  A    between atoms: C_2  and  C_25
REMARK    4  A    between atoms: N_3  and  C_4
REMARK    5  A    between atoms: C_4  and  C_5
REMARK    6  A    between atoms: C_8  and  C_9
REMARK    7  A    between atoms: C_9  and  N_10
REMARK    8  A    between atoms: C_11  and  C_13
REMARK                            x       y       z     vdW  Elec       q    Type
REMARK                         _______ _______ _______ _____ _____    ______ ____
ROOT
ATOM      1  C   UNL     1      50.936   4.370  18.708  0.00  0.00    +0.000 A 
ATOM      2  C   UNL     1      49.777   5.070  19.075  0.00  0.00    +0.000 A 
ATOM      3  C   UNL     1      48.542   4.758  18.501  0.00  0.00    +0.000 A 
ATOM      4  C   UNL     1      48.442   3.733  17.552  0.00  0.00    +0.000 A 
ATOM      5  C   UNL     1      49.604   3.053  17.163  0.00  0.00    +0.000 A 
ATOM      6  C   UNL     1      50.838   3.365  17.738  0.00  0.00    +0.000 A 
ENDROOT
BRANCH   1   7
ATOM      7  C   UNL     1      52.276   4.749  19.293  0.00  0.00    +0.000 C 
BRANCH   7   8
ATOM      8  N   UNL     1      52.450   6.201  19.364  0.00  0.00    +0.000 NA
ATOM      9  H   UNL     1      53.137   6.405  20.091  0.00  0.00    +0.000 HD
BRANCH   8  11
ATOM     10  C   UNL     1      53.648   5.768  17.215  0.00  0.00    +0.000 C 
ATOM     11  C   UNL     1      52.918   6.787  18.100  0.00  0.00    +0.000 C 
BRANCH  11  12
ATOM     12  C   UNL     1      51.739   7.391  17.340  0.00  0.00    +0.000 A 
ATOM     13  C   UNL     1      51.020   8.467  17.885  0.00  0.00    +0.000 A 
ATOM     14  C   UNL     1      49.943   9.029  17.193  0.00  0.00    +0.000 A 
ATOM     15  C   UNL     1      49.575   8.522  15.950  0.00  0.00    +0.000 A 
ATOM     16 CL   UNL     1      48.246   9.213  15.102  0.00  0.00    +0.000 Cl
ATOM     17  C   UNL     1      50.274   7.455  15.392  0.00  0.00    +0.000 A 
ATOM     18  C   UNL     1      51.348   6.892  16.085  0.00  0.00    +0.000 A 
ENDBRANCH  11  12
ENDBRANCH   8  11
ENDBRANCH   7   8
ENDBRANCH   1   7
BRANCH   4  19
ATOM     19  C   UNL     1      47.120   3.396  16.918  0.00  0.00    +0.000 C 
BRANCH  19  20
ATOM     20  N   UNL     1      46.760   4.377  15.926  0.00  0.00    +0.000 N 
ATOM     21  C   UNL     1      46.919   4.122  14.589  0.00  0.00    +0.000 C 
ATOM     22  O   UNL     1      47.336   3.043  14.178  0.00  0.00    +0.000 OA
ATOM     23  H   UNL     1      46.622   5.331  16.246  0.00  0.00    +0.000 HD
BRANCH  21  24
ATOM     24  C   UNL     1      46.507   5.185  13.665  0.00  0.00    +0.000 A 
ATOM     25  C   UNL     1      47.388   6.218  13.374  0.00  0.00    +0.000 A 
ATOM     26  S   UNL     1      46.781   7.338  12.243  0.00  0.00    +0.000 S 
ATOM     27  C   UNL     1      45.298   6.513  12.140  0.00  0.00    +0.000 A 
ATOM     28  N   UNL     1      44.298   6.969  11.338  0.00  0.00    +0.000 NA
ATOM     29  C   UNL     1      43.218   6.265  11.377  0.00  0.00    +0.000 A 
ATOM     30  N   UNL     1      43.049   5.140  12.145  0.00  0.00    +0.000 N 
ATOM     31  C   UNL     1      44.038   4.627  12.947  0.00  0.00    +0.000 A 
ATOM     32  O   UNL     1      43.864   3.596  13.589  0.00  0.00    +0.000 OA
ATOM     33  C   UNL     1      45.271   5.387  12.946  0.00  0.00    +0.000 A 
ATOM     34  H   UNL     1      42.179   4.632  12.120  0.00  0.00    +0.000 HD
ENDBRANCH  21  24
ENDBRANCH  19  20
ENDBRANCH   4  19
TORSDOF 7
ENDMDL
MODEL 9
REMARK VINA RESULT:    -7.255      3.882      8.407
REMARK INTER + INTRA:         -11.104
REMARK INTER:                  -9.513
REMARK INTRA:                  -1.591
REMARK UNBOUND:                -0.880
REMARK  Name = 
REMARK  8 active torsions:
REMARK  status: ('A' for Active; 'I' for Inactive)
REMARK    1  A    between atoms: C_1  and  C_2
REMARK    2  A    between atoms: C_2  and  N_3
REMARK    3  A    between atoms: C_2  and  C_25
REMARK    4  A    between atoms: N_3  and  C_4
REMARK    5  A    between atoms: C_4  and  C_5
REMARK    6  A    between atoms: C_8  and  C_9
REMARK    7  A    between atoms: C_9  and  N_10
REMARK    8  A    between atoms: C_11  and  C_13
REMARK                            x       y       z     vdW  Elec       q    Type
REMARK                         _______ _______ _______ _____ _____    ______ ____
ROOT
ATOM      1  C   UNL     1      49.937   8.468  14.026  0.00  0.00    +0.000 A 
ATOM      2  C   UNL     1      48.752   9.002  14.555  0.00  0.00    +0.000 A 
ATOM      3  C   UNL     1      47.551   8.914  13.847  0.00  0.00    +0.000 A 
ATOM      4  C   UNL     1      47.511   8.282  12.598  0.00  0.00    +0.000 A 
ATOM      5  C   UNL     1      48.700   7.774  12.056  0.00  0.00    +0.000 A 
ATOM      6  C   UNL     1      49.900   7.861  12.765  0.00  0.00    +0.000 A 
ENDROOT
BRANCH   1   7
ATOM      7  C   UNL     1      51.242   8.615  14.773  0.00  0.00    +0.000 C 
BRANCH   7   8
ATOM      8  N   UNL     1      51.772   7.322  15.209  0.00  0.00    +0.000 NA
ATOM      9  H   UNL     1      52.767   7.291  14.984  0.00  0.00    +0.000 HD
BRANCH   8  11
ATOM     10  C   UNL     1      51.224   8.366  17.411  0.00  0.00    +0.000 C 
ATOM     11  C   UNL     1      51.609   7.090  16.651  0.00  0.00    +0.000 C 
BRANCH  11  12
ATOM     12  C   UNL     1      50.563   6.003  16.888  0.00  0.00    +0.000 A 
ATOM     13  C   UNL     1      50.945   4.744  17.376  0.00  0.00    +0.000 A 
ATOM     14  C   UNL     1      49.993   3.746  17.601  0.00  0.00    +0.000 A 
ATOM     15  C   UNL     1      48.648   3.997  17.342  0.00  0.00    +0.000 A 
ATOM     16 CL   UNL     1      47.477   2.766  17.616  0.00  0.00    +0.000 Cl
ATOM     17  C   UNL     1      48.247   5.239  16.857  0.00  0.00    +0.000 A 
ATOM     18  C   UNL     1      49.200   6.236  16.629  0.00  0.00    +0.000 A 
ENDBRANCH  11  12
ENDBRANCH   8  11
ENDBRANCH   7   8
ENDBRANCH   1   7
BRANCH   4  19
ATOM     19  C   UNL     1      46.226   8.191  11.822  0.00  0.00    +0.000 C 
BRANCH  19  20
ATOM     20  N   UNL     1      45.877   6.817  11.562  0.00  0.00    +0.000 N 
ATOM     21  C   UNL     1      44.572   6.440  11.381  0.00  0.00    +0.000 C 
ATOM     22  O   UNL     1      43.653   7.254  11.394  0.00  0.00    +0.000 OA
ATOM     23  H   UNL     1      46.584   6.115  11.758  0.00  0.00    +0.000 HD
BRANCH  21  24
ATOM     24  C   UNL     1      44.332   5.018  11.108  0.00  0.00    +0.000 A 
ATOM     25  C   UNL     1      43.535   4.282  11.973  0.00  0.00    +0.000 A 
ATOM     26  S   UNL     1      43.308   2.665  11.485  0.00  0.00    +0.000 S 
ATOM     27  C   UNL     1      44.309   2.876  10.127  0.00  0.00    +0.000 A 
ATOM     28  N   UNL     1      44.557   1.847   9.274  0.00  0.00    +0.000 NA
ATOM     29  C   UNL     1      45.356   2.137   8.303  0.00  0.00    +0.000 A 
ATOM     30  N   UNL     1      45.926   3.369   8.106  0.00  0.00    +0.000 N 
ATOM     31  C   UNL     1      45.683   4.445   8.924  0.00  0.00    +0.000 A 
ATOM     32  O   UNL     1      46.179   5.543   8.693  0.00  0.00    +0.000 OA
ATOM     33  C   UNL     1      44.798   4.168  10.037  0.00  0.00    +0.000 A 
ATOM     34  H   UNL     1      46.535   3.529   7.319  0.00  0.00    +0.000 HD
ENDBRANCH  21  24
ENDBRANCH  19  20
ENDBRANCH   4  19
TORSDOF 7
ENDMDL
