MODEL 1
REMARK VINA RESULT:    -8.618      0.000      0.000
REMARK INTER + INTRA:         -13.653
REMARK INTER:                 -12.649
REMARK INTRA:                  -1.004
REMARK UNBOUND:                -1.004
REMARK  Name = 
REMARK  9 active torsions:
REMARK  status: ('A' for Active; 'I' for Inactive)
REMARK    1  A    between atoms: C_1  and  O_2
REMARK    2  A    between atoms: O_2  and  C_3
REMARK    3  A    between atoms: C_6  and  C_7
REMARK    4  A    between atoms: C_7  and  C_8
REMARK    5  A    between atoms: C_8  and  N_9
REMARK    6  A    between atoms: N_9  and  C_10
REMARK    7  A    between atoms: C_13  and  C_14
REMARK    8  A    between atoms: C_20  and  O_21
REMARK    9  A    between atoms: O_21  and  C_22
REMARK                            x       y       z     vdW  Elec       q    Type
REMARK                         _______ _______ _______ _____ _____    ______ ____
ROOT
ATOM      1  C   UNL     1      43.353   5.151  12.515  0.00  0.00    +0.000 C 
ENDROOT
BRANCH   1   5
ATOM      2  C   UNL     1      47.558   5.987  13.272  0.00  0.00    +0.000 A 
ATOM      3  C   UNL     1      46.758   6.877  12.537  0.00  0.00    +0.000 A 
ATOM      4  C   UNL     1      45.408   6.604  12.282  0.00  0.00    +0.000 A 
ATOM      5  C   UNL     1      44.823   5.427  12.748  0.00  0.00    +0.000 A 
ATOM      6  C   UNL     1      45.617   4.541  13.486  0.00  0.00    +0.000 A 
ATOM      7  C   UNL     1      46.977   4.802  13.742  0.00  0.00    +0.000 A 
BRANCH   2   9
ATOM      8  C   UNL     1      49.219   7.509  14.053  0.00  0.00    +0.000 C 
ATOM      9  O   UNL     1      48.881   6.224  13.536  0.00  0.00    +0.000 OA
ENDBRANCH   2   9
BRANCH   7  10
ATOM     10  O   UNL     1      47.551   3.833  14.532  0.00  0.00    +0.000 OA
BRANCH  10  11
ATOM     11  C   UNL     1      47.457   3.875  15.973  0.00  0.00    +0.000 C 
ATOM     12  C   UNL     1      48.303   4.910  16.741  0.00  0.00    +0.000 C 
ATOM     13  N   UNL     1      48.909   3.846  17.558  0.00  0.00    +0.000 NA
ATOM     14  C   UNL     1      48.334   2.817  16.683  0.00  0.00    +0.000 C 
ATOM     15  H   UNL     1      48.567   3.809  18.517  0.00  0.00    +0.000 HD
ENDBRANCH  10  11
ENDBRANCH   7  10
ENDBRANCH   1   5
BRANCH   1  16
ATOM     16  C   UNL     1      43.156   4.207  11.326  0.00  0.00    +0.000 C 
BRANCH  16  17
ATOM     17  N   UNL     1      43.679   4.766  10.075  0.00  0.00    +0.000 N 
ATOM     18  H   UNL     1      44.012   5.725  10.144  0.00  0.00    +0.000 HD
BRANCH  17  19
ATOM     19  C   UNL     1      44.520   3.959   9.292  0.00  0.00    +0.000 A 
ATOM     20  C   UNL     1      45.459   4.481   8.391  0.00  0.00    +0.000 A 
ATOM     21  C   UNL     1      46.337   3.653   7.686  0.00  0.00    +0.000 A 
ATOM     22  C   UNL     1      46.332   2.274   7.897  0.00  0.00    +0.000 A 
ATOM     23  C   UNL     1      45.418   1.729   8.806  0.00  0.00    +0.000 A 
ATOM     24  C   UNL     1      44.528   2.571   9.498  0.00  0.00    +0.000 A 
BRANCH  22  25
ATOM     25  C   UNL     1      47.306   1.452   7.134  0.00  0.00    +0.000 C 
ATOM     26  N   UNL     1      48.375   2.092   6.570  0.00  0.00    +0.000 N 
ATOM     27  O   UNL     1      47.144   0.248   6.965  0.00  0.00    +0.000 OA
ATOM     28  H   UNL     1      48.411   3.095   6.469  0.00  0.00    +0.000 HD
ATOM     29  H   UNL     1      48.945   1.533   5.946  0.00  0.00    +0.000 HD
ENDBRANCH  22  25
ENDBRANCH  17  19
ENDBRANCH  16  17
ENDBRANCH   1  16
TORSDOF 8
ENDMDL
MODEL 2
REMARK VINA RESULT:    -7.597      1.910      3.302
REMARK INTER + INTRA:         -12.154
REMARK INTER:                 -11.276
REMARK INTRA:                  -0.878
REMARK UNBOUND:                -1.004
REMARK  Name = 
REMARK  9 active torsions:
REMARK  status: ('A' for Active; 'I' for Inactive)
REMARK    1  A    between atoms: C_1  and  O_2
REMARK    2  A    between atoms: O_2  and  C_3
REMARK    3  A    between atoms: C_6  and  C_7
REMARK    4  A    between atoms: C_7  and  C_8
REMARK    5  A    between atoms: C_8  and  N_9
REMARK    6  A    between atoms: N_9  and  C_10
REMARK    7  A    between atoms: C_13  and  C_14
REMARK    8  A    between atoms: C_20  and  O_21
REMARK    9  A    between atoms: O_21  and  C_22
REMARK                            x       y       z     vdW  Elec       q    Type
REMARK                         _______ _______ _______ _____ _____    ______ ____
ROOT
ATOM      1  C   UNL     1      44.412   6.514  11.454  0.00  0.00    +0.000 C 
ENDROOT
BRANCH   1   5
ATOM      2  C   UNL     1      47.713   5.933  14.233  0.00  0.00    +0.000 A 
ATOM      3  C   UNL     1      46.831   4.886  13.918  0.00  0.00    +0.000 A 
ATOM      4  C   UNL     1      45.761   5.074  13.034  0.00  0.00    +0.000 A 
ATOM      5  C   UNL     1      45.539   6.318  12.446  0.00  0.00    +0.000 A 
ATOM      6  C   UNL     1      46.421   7.362  12.752  0.00  0.00    +0.000 A 
ATOM      7  C   UNL     1      47.495   7.186  13.646  0.00  0.00    +0.000 A 
BRANCH   2   9
ATOM      8  C   UNL     1      48.455   5.545  16.465  0.00  0.00    +0.000 C 
ATOM      9  O   UNL     1      48.767   5.781  15.094  0.00  0.00    +0.000 OA
ENDBRANCH   2   9
BRANCH   7  10
ATOM     10  O   UNL     1      48.267   8.319  13.757  0.00  0.00    +0.000 OA
BRANCH  10  11
ATOM     11  C   UNL     1      49.248   8.670  12.756  0.00  0.00    +0.000 C 
ATOM     12  C   UNL     1      49.814   7.558  11.851  0.00  0.00    +0.000 C 
ATOM     13  N   UNL     1      51.190   7.901  12.246  0.00  0.00    +0.000 NA
ATOM     14  C   UNL     1      50.688   8.778  13.311  0.00  0.00    +0.000 C 
ATOM     15  H   UNL     1      51.722   8.389  11.527  0.00  0.00    +0.000 HD
ENDBRANCH  10  11
ENDBRANCH   7  10
ENDBRANCH   1   5
BRANCH   1  16
ATOM     16  C   UNL     1      43.721   5.183  11.143  0.00  0.00    +0.000 C 
BRANCH  16  17
ATOM     17  N   UNL     1      43.667   4.904   9.704  0.00  0.00    +0.000 N 
ATOM     18  H   UNL     1      43.586   5.728   9.113  0.00  0.00    +0.000 HD
BRANCH  17  19
ATOM     19  C   UNL     1      44.561   3.954   9.183  0.00  0.00    +0.000 A 
ATOM     20  C   UNL     1      44.442   2.578   9.426  0.00  0.00    +0.000 A 
ATOM     21  C   UNL     1      45.300   1.652   8.827  0.00  0.00    +0.000 A 
ATOM     22  C   UNL     1      46.279   2.073   7.927  0.00  0.00    +0.000 A 
ATOM     23  C   UNL     1      46.406   3.440   7.651  0.00  0.00    +0.000 A 
ATOM     24  C   UNL     1      45.547   4.365   8.273  0.00  0.00    +0.000 A 
BRANCH  22  25
ATOM     25  C   UNL     1      47.144   1.036   7.307  0.00  0.00    +0.000 C 
ATOM     26  N   UNL     1      46.910  -0.269   7.639  0.00  0.00    +0.000 N 
ATOM     27  O   UNL     1      48.072   1.330   6.560  0.00  0.00    +0.000 OA
ATOM     28  H   UNL     1      46.337  -0.531   8.427  0.00  0.00    +0.000 HD
ATOM     29  H   UNL     1      47.596  -0.938   7.310  0.00  0.00    +0.000 HD
ENDBRANCH  22  25
ENDBRANCH  17  19
ENDBRANCH  16  17
ENDBRANCH   1  16
TORSDOF 8
ENDMDL
MODEL 3
REMARK VINA RESULT:    -7.546      2.288      3.593
REMARK INTER + INTRA:         -12.079
REMARK INTER:                 -10.912
REMARK INTRA:                  -1.167
REMARK UNBOUND:                -1.004
REMARK  Name = 
REMARK  9 active torsions:
REMARK  status: ('A' for Active; 'I' for Inactive)
REMARK    1  A    between atoms: C_1  and  O_2
REMARK    2  A    between atoms: O_2  and  C_3
REMARK    3  A    between atoms: C_6  and  C_7
REMARK    4  A    between atoms: C_7  and  C_8
REMARK    5  A    between atoms: C_8  and  N_9
REMARK    6  A    between atoms: N_9  and  C_10
REMARK    7  A    between atoms: C_13  and  C_14
REMARK    8  A    between atoms: C_20  and  O_21
REMARK    9  A    between atoms: O_21  and  C_22
REMARK                            x       y       z     vdW  Elec       q    Type
REMARK                         _______ _______ _______ _____ _____    ______ ____
ROOT
ATOM      1  C   UNL     1      43.370   5.094  12.681  0.00  0.00    +0.000 C 
ENDROOT
BRANCH   1   5
ATOM      2  C   UNL     1      47.565   6.071  13.308  0.00  0.00    +0.000 A 
ATOM      3  C   UNL     1      47.010   4.882  13.809  0.00  0.00    +0.000 A 
ATOM      4  C   UNL     1      45.658   4.572  13.619  0.00  0.00    +0.000 A 
ATOM      5  C   UNL     1      44.820   5.447  12.929  0.00  0.00    +0.000 A 
ATOM      6  C   UNL     1      45.373   6.631  12.423  0.00  0.00    +0.000 A 
ATOM      7  C   UNL     1      46.729   6.956  12.615  0.00  0.00    +0.000 A 
BRANCH   2   9
ATOM      8  C   UNL     1      49.237   7.044  14.702  0.00  0.00    +0.000 C 
ATOM      9  O   UNL     1      48.883   6.404  13.479  0.00  0.00    +0.000 OA
ENDBRANCH   2   9
BRANCH   7  10
ATOM     10  O   UNL     1      47.074   8.130  11.986  0.00  0.00    +0.000 OA
BRANCH  10  11
ATOM     11  C   UNL     1      47.013   9.403  12.667  0.00  0.00    +0.000 C 
ATOM     12  C   UNL     1      46.550  10.643  11.878  0.00  0.00    +0.000 C 
ATOM     13  N   UNL     1      47.787  11.359  12.229  0.00  0.00    +0.000 NA
ATOM     14  C   UNL     1      48.378  10.124  12.756  0.00  0.00    +0.000 C 
ATOM     15  H   UNL     1      47.664  12.089  12.930  0.00  0.00    +0.000 HD
ENDBRANCH  10  11
ENDBRANCH   7  10
ENDBRANCH   1   5
BRANCH   1  16
ATOM     16  C   UNL     1      43.130   4.776  11.202  0.00  0.00    +0.000 C 
BRANCH  16  17
ATOM     17  N   UNL     1      43.549   3.416  10.847  0.00  0.00    +0.000 N 
ATOM     18  H   UNL     1      42.801   2.725  10.849  0.00  0.00    +0.000 HD
BRANCH  17  19
ATOM     19  C   UNL     1      44.423   3.259   9.759  0.00  0.00    +0.000 A 
ATOM     20  C   UNL     1      44.974   4.341   9.058  0.00  0.00    +0.000 A 
ATOM     21  C   UNL     1      45.904   4.152   8.032  0.00  0.00    +0.000 A 
ATOM     22  C   UNL     1      46.347   2.870   7.705  0.00  0.00    +0.000 A 
ATOM     23  C   UNL     1      45.828   1.774   8.403  0.00  0.00    +0.000 A 
ATOM     24  C   UNL     1      44.880   1.975   9.424  0.00  0.00    +0.000 A 
BRANCH  22  25
ATOM     25  C   UNL     1      47.353   2.740   6.620  0.00  0.00    +0.000 C 
ATOM     26  N   UNL     1      47.070   3.322   5.416  0.00  0.00    +0.000 N 
ATOM     27  O   UNL     1      48.385   2.093   6.770  0.00  0.00    +0.000 OA
ATOM     28  H   UNL     1      46.143   3.638   5.174  0.00  0.00    +0.000 HD
ATOM     29  H   UNL     1      47.707   3.103   4.660  0.00  0.00    +0.000 HD
ENDBRANCH  22  25
ENDBRANCH  17  19
ENDBRANCH  16  17
ENDBRANCH   1  16
TORSDOF 8
ENDMDL
MODEL 4
REMARK VINA RESULT:    -7.473      1.813      3.046
REMARK INTER + INTRA:         -11.973
REMARK INTER:                 -11.147
REMARK INTRA:                  -0.825
REMARK UNBOUND:                -1.004
REMARK  Name = 
REMARK  9 active torsions:
REMARK  status: ('A' for Active; 'I' for Inactive)
REMARK    1  A    between atoms: C_1  and  O_2
REMARK    2  A    between atoms: O_2  and  C_3
REMARK    3  A    between atoms: C_6  and  C_7
REMARK    4  A    between atoms: C_7  and  C_8
REMARK    5  A    between atoms: C_8  and  N_9
REMARK    6  A    between atoms: N_9  and  C_10
REMARK    7  A    between atoms: C_13  and  C_14
REMARK    8  A    between atoms: C_20  and  O_21
REMARK    9  A    between atoms: O_21  and  C_22
REMARK                            x       y       z     vdW  Elec       q    Type
REMARK                         _______ _______ _______ _____ _____    ______ ____
ROOT
ATOM      1  C   UNL     1      45.072   6.369  11.396  0.00  0.00    +0.000 C 
ENDROOT
BRANCH   1   5
ATOM      2  C   UNL     1      47.669   5.234  14.701  0.00  0.00    +0.000 A 
ATOM      3  C   UNL     1      46.433   4.599  14.493  0.00  0.00    +0.000 A 
ATOM      4  C   UNL     1      45.591   4.972  13.437  0.00  0.00    +0.000 A 
ATOM      5  C   UNL     1      45.958   5.996  12.565  0.00  0.00    +0.000 A 
ATOM      6  C   UNL     1      47.193   6.626  12.767  0.00  0.00    +0.000 A 
ATOM      7  C   UNL     1      48.043   6.265  13.829  0.00  0.00    +0.000 A 
BRANCH   2   9
ATOM      8  C   UNL     1      47.918   4.573  16.978  0.00  0.00    +0.000 C 
ATOM      9  O   UNL     1      48.514   4.895  15.724  0.00  0.00    +0.000 OA
ENDBRANCH   2   9
BRANCH   7  10
ATOM     10  O   UNL     1      49.227   6.966  13.806  0.00  0.00    +0.000 OA
BRANCH  10  11
ATOM     11  C   UNL     1      49.416   8.163  14.592  0.00  0.00    +0.000 C 
ATOM     12  C   UNL     1      48.181   8.840  15.219  0.00  0.00    +0.000 C 
ATOM     13  N   UNL     1      48.517  10.115  14.565  0.00  0.00    +0.000 NA
ATOM     14  C   UNL     1      49.535   9.450  13.743  0.00  0.00    +0.000 C 
ATOM     15  H   UNL     1      48.894  10.822  15.195  0.00  0.00    +0.000 HD
ENDBRANCH  10  11
ENDBRANCH   7  10
ENDBRANCH   1   5
BRANCH   1  16
ATOM     16  C   UNL     1      44.012   5.293  11.148  0.00  0.00    +0.000 C 
BRANCH  16  17
ATOM     17  N   UNL     1      43.784   5.050   9.720  0.00  0.00    +0.000 N 
ATOM     18  H   UNL     1      43.713   5.890   9.151  0.00  0.00    +0.000 HD
BRANCH  17  19
ATOM     19  C   UNL     1      44.535   4.040   9.096  0.00  0.00    +0.000 A 
ATOM     20  C   UNL     1      45.542   4.306   8.156  0.00  0.00    +0.000 A 
ATOM     21  C   UNL     1      46.325   3.284   7.613  0.00  0.00    +0.000 A 
ATOM     22  C   UNL     1      46.155   1.964   8.030  0.00  0.00    +0.000 A 
ATOM     23  C   UNL     1      45.171   1.674   8.982  0.00  0.00    +0.000 A 
ATOM     24  C   UNL     1      44.376   2.709   9.510  0.00  0.00    +0.000 A 
BRANCH  22  25
ATOM     25  C   UNL     1      47.036   0.928   7.431  0.00  0.00    +0.000 C 
ATOM     26  N   UNL     1      46.688  -0.382   7.608  0.00  0.00    +0.000 N 
ATOM     27  O   UNL     1      48.069   1.222   6.838  0.00  0.00    +0.000 OA
ATOM     28  H   UNL     1      46.003  -0.672   8.289  0.00  0.00    +0.000 HD
ATOM     29  H   UNL     1      47.375  -1.064   7.307  0.00  0.00    +0.000 HD
ENDBRANCH  22  25
ENDBRANCH  17  19
ENDBRANCH  16  17
ENDBRANCH   1  16
TORSDOF 8
ENDMDL
MODEL 5
REMARK VINA RESULT:    -7.228      1.318      1.608
REMARK INTER + INTRA:         -11.612
REMARK INTER:                 -10.729
REMARK INTRA:                  -0.883
REMARK UNBOUND:                -1.004
REMARK  Name = 
REMARK  9 active torsions:
REMARK  status: ('A' for Active; 'I' for Inactive)
REMARK    1  A    between atoms: C_1  and  O_2
REMARK    2  A    between atoms: O_2  and  C_3
REMARK    3  A    between atoms: C_6  and  C_7
REMARK    4  A    between atoms: C_7  and  C_8
REMARK    5  A    between atoms: C_8  and  N_9
REMARK    6  A    between atoms: N_9  and  C_10
REMARK    7  A    between atoms: C_13  and  C_14
REMARK    8  A    between atoms: C_20  and  O_21
REMARK    9  A    between atoms: O_21  and  C_22
REMARK                            x       y       z     vdW  Elec       q    Type
REMARK                         _______ _______ _______ _____ _____    ______ ____
ROOT
ATOM      1  C   UNL     1      45.022   4.291  12.510  0.00  0.00    +0.000 C 
ENDROOT
BRANCH   1   5
ATOM      2  C   UNL     1      47.749   7.534  13.507  0.00  0.00    +0.000 A 
ATOM      3  C   UNL     1      46.678   7.728  12.618  0.00  0.00    +0.000 A 
ATOM      4  C   UNL     1      45.807   6.682  12.286  0.00  0.00    +0.000 A 
ATOM      5  C   UNL     1      45.988   5.411  12.829  0.00  0.00    +0.000 A 
ATOM      6  C   UNL     1      47.050   5.217  13.721  0.00  0.00    +0.000 A 
ATOM      7  C   UNL     1      47.937   6.258  14.055  0.00  0.00    +0.000 A 
BRANCH   2   9
ATOM      8  C   UNL     1      48.332   9.841  13.356  0.00  0.00    +0.000 C 
ATOM      9  O   UNL     1      48.619   8.535  13.850  0.00  0.00    +0.000 OA
ENDBRANCH   2   9
BRANCH   7  10
ATOM     10  O   UNL     1      48.867   5.867  14.990  0.00  0.00    +0.000 OA
BRANCH  10  11
ATOM     11  C   UNL     1      48.734   6.217  16.386  0.00  0.00    +0.000 C 
ATOM     12  C   UNL     1      49.987   6.175  17.282  0.00  0.00    +0.000 C 
ATOM     13  N   UNL     1      49.318   5.258  18.218  0.00  0.00    +0.000 NA
ATOM     14  C   UNL     1      48.217   5.057  17.269  0.00  0.00    +0.000 C 
ATOM     15  H   UNL     1      49.031   5.691  19.095  0.00  0.00    +0.000 HD
ENDBRANCH  10  11
ENDBRANCH   7  10
ENDBRANCH   1   5
BRANCH   1  16
ATOM     16  C   UNL     1      43.983   4.741  11.480  0.00  0.00    +0.000 C 
BRANCH  16  17
ATOM     17  N   UNL     1      43.619   3.670  10.546  0.00  0.00    +0.000 N 
ATOM     18  H   UNL     1      42.652   3.692  10.229  0.00  0.00    +0.000 HD
BRANCH  17  19
ATOM     19  C   UNL     1      44.518   3.364   9.512  0.00  0.00    +0.000 A 
ATOM     20  C   UNL     1      45.162   4.345   8.743  0.00  0.00    +0.000 A 
ATOM     21  C   UNL     1      46.112   4.010   7.774  0.00  0.00    +0.000 A 
ATOM     22  C   UNL     1      46.481   2.679   7.576  0.00  0.00    +0.000 A 
ATOM     23  C   UNL     1      45.868   1.682   8.344  0.00  0.00    +0.000 A 
ATOM     24  C   UNL     1      44.901   2.031   9.305  0.00  0.00    +0.000 A 
BRANCH  22  25
ATOM     25  C   UNL     1      47.514   2.392   6.547  0.00  0.00    +0.000 C 
ATOM     26  N   UNL     1      47.415   3.042   5.348  0.00  0.00    +0.000 N 
ATOM     27  O   UNL     1      48.401   1.566   6.735  0.00  0.00    +0.000 OA
ATOM     28  H   UNL     1      46.577   3.526   5.064  0.00  0.00    +0.000 HD
ATOM     29  H   UNL     1      48.049   2.727   4.623  0.00  0.00    +0.000 HD
ENDBRANCH  22  25
ENDBRANCH  17  19
ENDBRANCH  16  17
ENDBRANCH   1  16
TORSDOF 8
ENDMDL
MODEL 6
REMARK VINA RESULT:    -6.839      2.812      3.748
REMARK INTER + INTRA:         -11.042
REMARK INTER:                 -10.286
REMARK INTRA:                  -0.755
REMARK UNBOUND:                -1.004
REMARK  Name = 
REMARK  9 active torsions:
REMARK  status: ('A' for Active; 'I' for Inactive)
REMARK    1  A    between atoms: C_1  and  O_2
REMARK    2  A    between atoms: O_2  and  C_3
REMARK    3  A    between atoms: C_6  and  C_7
REMARK    4  A    between atoms: C_7  and  C_8
REMARK    5  A    between atoms: C_8  and  N_9
REMARK    6  A    between atoms: N_9  and  C_10
REMARK    7  A    between atoms: C_13  and  C_14
REMARK    8  A    between atoms: C_20  and  O_21
REMARK    9  A    between atoms: O_21  and  C_22
REMARK                            x       y       z     vdW  Elec       q    Type
REMARK                         _______ _______ _______ _____ _____    ______ ____
ROOT
ATOM      1  C   UNL     1      45.463   4.915  11.905  0.00  0.00    +0.000 C 
ENDROOT
BRANCH   1   5
ATOM      2  C   UNL     1      47.346   8.738  12.797  0.00  0.00    +0.000 A 
ATOM      3  C   UNL     1      45.949   8.590  12.814  0.00  0.00    +0.000 A 
ATOM      4  C   UNL     1      45.341   7.365  12.515  0.00  0.00    +0.000 A 
ATOM      5  C   UNL     1      46.114   6.253  12.182  0.00  0.00    +0.000 A 
ATOM      6  C   UNL     1      47.507   6.395  12.171  0.00  0.00    +0.000 A 
ATOM      7  C   UNL     1      48.128   7.625  12.462  0.00  0.00    +0.000 A 
BRANCH   2   9
ATOM      8  C   UNL     1      48.591  10.038  14.361  0.00  0.00    +0.000 C 
ATOM      9  O   UNL     1      47.970   9.923  13.082  0.00  0.00    +0.000 OA
ENDBRANCH   2   9
BRANCH   7  10
ATOM     10  O   UNL     1      49.500   7.527  12.453  0.00  0.00    +0.000 OA
BRANCH  10  11
ATOM     11  C   UNL     1      50.306   8.233  11.483  0.00  0.00    +0.000 C 
ATOM     12  C   UNL     1      51.365   7.446  10.687  0.00  0.00    +0.000 C 
ATOM     13  N   UNL     1      52.421   8.371  11.129  0.00  0.00    +0.000 NA
ATOM     14  C   UNL     1      51.509   8.981  12.103  0.00  0.00    +0.000 C 
ATOM     15  H   UNL     1      52.742   9.015  10.407  0.00  0.00    +0.000 HD
ENDBRANCH  10  11
ENDBRANCH   7  10
ENDBRANCH   1   5
BRANCH   1  16
ATOM     16  C   UNL     1      44.010   5.096  11.459  0.00  0.00    +0.000 C 
BRANCH  16  17
ATOM     17  N   UNL     1      43.847   4.948  10.009  0.00  0.00    +0.000 N 
ATOM     18  H   UNL     1      43.646   5.813   9.512  0.00  0.00    +0.000 HD
BRANCH  17  19
ATOM     19  C   UNL     1      44.763   4.134   9.322  0.00  0.00    +0.000 A 
ATOM     20  C   UNL     1      44.729   2.733   9.374  0.00  0.00    +0.000 A 
ATOM     21  C   UNL     1      45.605   1.951   8.615  0.00  0.00    +0.000 A 
ATOM     22  C   UNL     1      46.513   2.550   7.743  0.00  0.00    +0.000 A 
ATOM     23  C   UNL     1      46.554   3.946   7.657  0.00  0.00    +0.000 A 
ATOM     24  C   UNL     1      45.679   4.724   8.438  0.00  0.00    +0.000 A 
BRANCH  22  25
ATOM     25  C   UNL     1      47.400   1.661   6.948  0.00  0.00    +0.000 C 
ATOM     26  N   UNL     1      48.432   2.239   6.263  0.00  0.00    +0.000 N 
ATOM     27  O   UNL     1      47.196   0.455   6.861  0.00  0.00    +0.000 OA
ATOM     28  H   UNL     1      48.483   3.234   6.103  0.00  0.00    +0.000 HD
ATOM     29  H   UNL     1      48.934   1.632   5.626  0.00  0.00    +0.000 HD
ENDBRANCH  22  25
ENDBRANCH  17  19
ENDBRANCH  16  17
ENDBRANCH   1  16
TORSDOF 8
ENDMDL
MODEL 7
REMARK VINA RESULT:    -6.240      1.762      2.392
REMARK INTER + INTRA:         -10.163
REMARK INTER:                  -9.701
REMARK INTRA:                  -0.462
REMARK UNBOUND:                -1.004
REMARK  Name = 
REMARK  9 active torsions:
REMARK  status: ('A' for Active; 'I' for Inactive)
REMARK    1  A    between atoms: C_1  and  O_2
REMARK    2  A    between atoms: O_2  and  C_3
REMARK    3  A    between atoms: C_6  and  C_7
REMARK    4  A    between atoms: C_7  and  C_8
REMARK    5  A    between atoms: C_8  and  N_9
REMARK    6  A    between atoms: N_9  and  C_10
REMARK    7  A    between atoms: C_13  and  C_14
REMARK    8  A    between atoms: C_20  and  O_21
REMARK    9  A    between atoms: O_21  and  C_22
REMARK                            x       y       z     vdW  Elec       q    Type
REMARK                         _______ _______ _______ _____ _____    ______ ____
ROOT
ATOM      1  C   UNL     1      45.961   4.144  13.314  0.00  0.00    +0.000 C 
ENDROOT
BRANCH   1   5
ATOM      2  C   UNL     1      48.717   6.253  15.943  0.00  0.00    +0.000 A 
ATOM      3  C   UNL     1      48.480   6.692  14.629  0.00  0.00    +0.000 A 
ATOM      4  C   UNL     1      47.604   6.008  13.778  0.00  0.00    +0.000 A 
ATOM      5  C   UNL     1      46.945   4.859  14.215  0.00  0.00    +0.000 A 
ATOM      6  C   UNL     1      47.174   4.423  15.526  0.00  0.00    +0.000 A 
ATOM      7  C   UNL     1      48.059   5.098  16.387  0.00  0.00    +0.000 A 
BRANCH   2   9
ATOM      8  C   UNL     1      50.242   8.051  16.297  0.00  0.00    +0.000 C 
ATOM      9  O   UNL     1      49.570   6.898  16.798  0.00  0.00    +0.000 OA
ENDBRANCH   2   9
BRANCH   7  10
ATOM     10  O   UNL     1      48.090   4.537  17.643  0.00  0.00    +0.000 OA
BRANCH  10  11
ATOM     11  C   UNL     1      49.094   3.570  18.018  0.00  0.00    +0.000 C 
ATOM     12  C   UNL     1      50.550   3.801  17.570  0.00  0.00    +0.000 C 
ATOM     13  N   UNL     1      50.588   2.479  16.924  0.00  0.00    +0.000 NA
ATOM     14  C   UNL     1      49.138   2.330  17.094  0.00  0.00    +0.000 C 
ATOM     15  H   UNL     1      51.135   1.782  17.429  0.00  0.00    +0.000 HD
ENDBRANCH  10  11
ENDBRANCH   7  10
ENDBRANCH   1   5
BRANCH   1  16
ATOM     16  C   UNL     1      44.743   5.026  13.026  0.00  0.00    +0.000 C 
BRANCH  16  17
ATOM     17  N   UNL     1      43.857   4.443  12.012  0.00  0.00    +0.000 N 
ATOM     18  H   UNL     1      42.946   4.889  11.935  0.00  0.00    +0.000 HD
BRANCH  17  19
ATOM     19  C   UNL     1      44.408   4.127  10.760  0.00  0.00    +0.000 A 
ATOM     20  C   UNL     1      45.160   5.037  10.002  0.00  0.00    +0.000 A 
ATOM     21  C   UNL     1      45.762   4.667   8.797  0.00  0.00    +0.000 A 
ATOM     22  C   UNL     1      45.668   3.355   8.333  0.00  0.00    +0.000 A 
ATOM     23  C   UNL     1      44.940   2.421   9.080  0.00  0.00    +0.000 A 
ATOM     24  C   UNL     1      44.324   2.810  10.284  0.00  0.00    +0.000 A 
BRANCH  22  25
ATOM     25  C   UNL     1      46.350   3.020   7.057  0.00  0.00    +0.000 C 
ATOM     26  N   UNL     1      46.875   1.764   6.926  0.00  0.00    +0.000 N 
ATOM     27  O   UNL     1      46.488   3.847   6.162  0.00  0.00    +0.000 OA
ATOM     28  H   UNL     1      47.007   1.149   7.715  0.00  0.00    +0.000 HD
ATOM     29  H   UNL     1      47.449   1.610   6.105  0.00  0.00    +0.000 HD
ENDBRANCH  22  25
ENDBRANCH  17  19
ENDBRANCH  16  17
ENDBRANCH   1  16
TORSDOF 8
ENDMDL
MODEL 8
REMARK VINA RESULT:    -6.177      3.047      4.946
REMARK INTER + INTRA:         -10.070
REMARK INTER:                  -8.811
REMARK INTRA:                  -1.259
REMARK UNBOUND:                -1.004
REMARK  Name = 
REMARK  9 active torsions:
REMARK  status: ('A' for Active; 'I' for Inactive)
REMARK    1  A    between atoms: C_1  and  O_2
REMARK    2  A    between atoms: O_2  and  C_3
REMARK    3  A    between atoms: C_6  and  C_7
REMARK    4  A    between atoms: C_7  and  C_8
REMARK    5  A    between atoms: C_8  and  N_9
REMARK    6  A    between atoms: N_9  and  C_10
REMARK    7  A    between atoms: C_13  and  C_14
REMARK    8  A    between atoms: C_20  and  O_21
REMARK    9  A    between atoms: O_21  and  C_22
REMARK                            x       y       z     vdW  Elec       q    Type
REMARK                         _______ _______ _______ _____ _____    ______ ____
ROOT
ATOM      1  C   UNL     1      48.573   8.853  14.289  0.00  0.00    +0.000 C 
ENDROOT
BRANCH   1   5
ATOM      2  C   UNL     1      48.736   6.805  18.128  0.00  0.00    +0.000 A 
ATOM      3  C   UNL     1      48.346   8.152  18.034  0.00  0.00    +0.000 A 
ATOM      4  C   UNL     1      48.306   8.816  16.802  0.00  0.00    +0.000 A 
ATOM      5  C   UNL     1      48.661   8.153  15.628  0.00  0.00    +0.000 A 
ATOM      6  C   UNL     1      49.043   6.808  15.717  0.00  0.00    +0.000 A 
ATOM      7  C   UNL     1      49.096   6.134  16.951  0.00  0.00    +0.000 A 
BRANCH   2   9
ATOM      8  C   UNL     1      47.566   5.986  20.036  0.00  0.00    +0.000 C 
ATOM      9  O   UNL     1      48.788   6.129  19.317  0.00  0.00    +0.000 OA
ENDBRANCH   2   9
BRANCH   7  10
ATOM     10  O   UNL     1      49.436   4.809  16.804  0.00  0.00    +0.000 OA
BRANCH  10  11
ATOM     11  C   UNL     1      48.437   3.785  16.606  0.00  0.00    +0.000 C 
ATOM     12  C   UNL     1      46.949   4.169  16.727  0.00  0.00    +0.000 C 
ATOM     13  N   UNL     1      46.738   3.129  17.747  0.00  0.00    +0.000 NA
ATOM     14  C   UNL     1      48.185   2.915  17.860  0.00  0.00    +0.000 C 
ATOM     15  H   UNL     1      46.225   2.314  17.413  0.00  0.00    +0.000 HD
ENDBRANCH  10  11
ENDBRANCH   7  10
ENDBRANCH   1   5
BRANCH   1  16
ATOM     16  C   UNL     1      47.264   8.505  13.575  0.00  0.00    +0.000 C 
BRANCH  16  17
ATOM     17  N   UNL     1      47.468   7.599  12.441  0.00  0.00    +0.000 N 
ATOM     18  H   UNL     1      48.437   7.335  12.276  0.00  0.00    +0.000 HD
BRANCH  17  19
ATOM     19  C   UNL     1      46.585   6.518  12.293  0.00  0.00    +0.000 A 
ATOM     20  C   UNL     1      45.944   6.213  11.083  0.00  0.00    +0.000 A 
ATOM     21  C   UNL     1      45.133   5.083  10.947  0.00  0.00    +0.000 A 
ATOM     22  C   UNL     1      44.974   4.194  12.011  0.00  0.00    +0.000 A 
ATOM     23  C   UNL     1      45.618   4.464  13.224  0.00  0.00    +0.000 A 
ATOM     24  C   UNL     1      46.419   5.614  13.353  0.00  0.00    +0.000 A 
BRANCH  22  25
ATOM     25  C   UNL     1      44.117   3.000  11.794  0.00  0.00    +0.000 C 
ATOM     26  N   UNL     1      44.077   2.465  10.537  0.00  0.00    +0.000 N 
ATOM     27  O   UNL     1      43.425   2.530  12.692  0.00  0.00    +0.000 OA
ATOM     28  H   UNL     1      44.422   2.960   9.729  0.00  0.00    +0.000 HD
ATOM     29  H   UNL     1      43.385   1.740  10.389  0.00  0.00    +0.000 HD
ENDBRANCH  22  25
ENDBRANCH  17  19
ENDBRANCH  16  17
ENDBRANCH   1  16
TORSDOF 8
ENDMDL
MODEL 9
REMARK VINA RESULT:    -5.985      3.386      7.812
REMARK INTER + INTRA:          -9.788
REMARK INTER:                  -8.928
REMARK INTRA:                  -0.861
REMARK UNBOUND:                -1.004
REMARK  Name = 
REMARK  9 active torsions:
REMARK  status: ('A' for Active; 'I' for Inactive)
REMARK    1  A    between atoms: C_1  and  O_2
REMARK    2  A    between atoms: O_2  and  C_3
REMARK    3  A    between atoms: C_6  and  C_7
REMARK    4  A    between atoms: C_7  and  C_8
REMARK    5  A    between atoms: C_8  and  N_9
REMARK    6  A    between atoms: N_9  and  C_10
REMARK    7  A    between atoms: C_13  and  C_14
REMARK    8  A    between atoms: C_20  and  O_21
REMARK    9  A    between atoms: O_21  and  C_22
REMARK                            x       y       z     vdW  Elec       q    Type
REMARK                         _______ _______ _______ _____ _____    ______ ____
ROOT
ATOM      1  C   UNL     1      48.925   6.988  14.375  0.00  0.00    +0.000 C 
ENDROOT
BRANCH   1   5
ATOM      2  C   UNL     1      45.398   7.969  12.018  0.00  0.00    +0.000 A 
ATOM      3  C   UNL     1      46.122   8.963  12.697  0.00  0.00    +0.000 A 
ATOM      4  C   UNL     1      47.250   8.648  13.466  0.00  0.00    +0.000 A 
ATOM      5  C   UNL     1      47.680   7.327  13.584  0.00  0.00    +0.000 A 
ATOM      6  C   UNL     1      46.963   6.334  12.903  0.00  0.00    +0.000 A 
ATOM      7  C   UNL     1      45.824   6.639  12.134  0.00  0.00    +0.000 A 
BRANCH   2   9
ATOM      8  C   UNL     1      43.982   9.618  11.038  0.00  0.00    +0.000 C 
ATOM      9  O   UNL     1      44.291   8.244  11.261  0.00  0.00    +0.000 OA
ENDBRANCH   2   9
BRANCH   7  10
ATOM     10  O   UNL     1      45.311   5.528  11.505  0.00  0.00    +0.000 OA
BRANCH  10  11
ATOM     11  C   UNL     1      44.352   4.664  12.153  0.00  0.00    +0.000 C 
ATOM     12  C   UNL     1      44.399   3.152  11.856  0.00  0.00    +0.000 C 
ATOM     13  N   UNL     1      42.987   3.164  11.441  0.00  0.00    +0.000 NA
ATOM     14  C   UNL     1      42.974   4.631  11.452  0.00  0.00    +0.000 C 
ATOM     15  H   UNL     1      42.350   2.741  12.115  0.00  0.00    +0.000 HD
ENDBRANCH  10  11
ENDBRANCH   7  10
ENDBRANCH   1   5
BRANCH   1  16
ATOM     16  C   UNL     1      48.955   7.752  15.701  0.00  0.00    +0.000 C 
BRANCH  16  17
ATOM     17  N   UNL     1      48.501   6.932  16.830  0.00  0.00    +0.000 N 
ATOM     18  H   UNL     1      47.492   6.819  16.896  0.00  0.00    +0.000 HD
BRANCH  17  19
ATOM     19  C   UNL     1      49.194   5.740  17.099  0.00  0.00    +0.000 A 
ATOM     20  C   UNL     1      48.581   4.479  17.083  0.00  0.00    +0.000 A 
ATOM     21  C   UNL     1      49.314   3.305  17.276  0.00  0.00    +0.000 A 
ATOM     22  C   UNL     1      50.698   3.355  17.446  0.00  0.00    +0.000 A 
ATOM     23  C   UNL     1      51.338   4.600  17.447  0.00  0.00    +0.000 A 
ATOM     24  C   UNL     1      50.586   5.777  17.268  0.00  0.00    +0.000 A 
BRANCH  22  25
ATOM     25  C   UNL     1      51.422   2.070  17.624  0.00  0.00    +0.000 C 
ATOM     26  N   UNL     1      52.458   2.041  18.515  0.00  0.00    +0.000 N 
ATOM     27  O   UNL     1      51.143   1.075  16.964  0.00  0.00    +0.000 OA
ATOM     28  H   UNL     1      52.877   2.882  18.883  0.00  0.00    +0.000 HD
ATOM     29  H   UNL     1      53.016   1.195  18.516  0.00  0.00    +0.000 HD
ENDBRANCH  22  25
ENDBRANCH  17  19
ENDBRANCH  16  17
ENDBRANCH   1  16
TORSDOF 8
ENDMDL
