MODEL 1
REMARK VINA RESULT:    -8.630      0.000      0.000
REMARK INTER + INTRA:          -8.754
REMARK INTER:                 -10.143
REMARK INTRA:                   1.389
REMARK UNBOUND:                 1.389
REMARK  Name = 
REMARK  5 active torsions:
REMARK  status: ('A' for Active; 'I' for Inactive)
REMARK    1  A    between atoms: C_1  and  N_2
REMARK    2  A    between atoms: C_3  and  C_5
REMARK    3  A    between atoms: N_9  and  C_10
REMARK    4  A    between atoms: C_10  and  C_11
REMARK    5  A    between atoms: C_10  and  C_12
REMARK                            x       y       z     vdW  Elec       q    Type
REMARK                         _______ _______ _______ _____ _____    ______ ____
ROOT
ATOM      1  C   UNL     1      46.554   5.216  13.132  0.00  0.00    +0.000 A 
ATOM      2  C   UNL     1      46.768   6.206  12.175  0.00  0.00    +0.000 A 
ATOM      3  C   UNL     1      46.109   6.120  10.943  0.00  0.00    +0.000 A 
ATOM      4  C   UNL     1      45.293   5.023  10.671  0.00  0.00    +0.000 A 
ATOM      5  N   UNL     1      44.771   4.886   9.387  0.00  0.00    +0.000 N 
ATOM      6  N   UNL     1      45.053   4.083  11.603  0.00  0.00    +0.000 NA
ATOM      7  C   UNL     1      45.679   4.193  12.804  0.00  0.00    +0.000 A 
ATOM      8  H   UNL     1      44.096   5.603   9.149  0.00  0.00    +0.000 HD
ENDROOT
BRANCH   1  11
ATOM      9  C   UNL     1      47.331   4.256  16.706  0.00  0.00    +0.000 C 
ATOM     10  N   UNL     1      46.716   4.351  15.405  0.00  0.00    +0.000 N 
ATOM     11  C   UNL     1      47.268   5.151  14.428  0.00  0.00    +0.000 C 
ATOM     12  O   UNL     1      48.299   5.794  14.589  0.00  0.00    +0.000 OA
ATOM     13  H   UNL     1      45.963   3.717  15.182  0.00  0.00    +0.000 HD
ENDBRANCH   1  11
BRANCH   5  14
ATOM     14  C   UNL     1      44.438   3.533   8.935  0.00  0.00    +0.000 C 
ATOM     15  C   UNL     1      44.028   2.761  10.201  0.00  0.00    +0.000 C 
BRANCH  14  16
ATOM     16  C   UNL     1      45.599   2.913   8.162  0.00  0.00    +0.000 A 
ATOM     17  C   UNL     1      46.428   3.657   7.304  0.00  0.00    +0.000 A 
ATOM     18  C   UNL     1      47.485   3.054   6.618  0.00  0.00    +0.000 A 
ATOM     19  C   UNL     1      47.745   1.698   6.788  0.00  0.00    +0.000 A 
ATOM     20  C   UNL     1      46.962   0.949   7.663  0.00  0.00    +0.000 A 
ATOM     21  C   UNL     1      45.904   1.552   8.349  0.00  0.00    +0.000 A 
ENDBRANCH  14  16
ENDBRANCH   5  14
TORSDOF 3
ENDMDL
MODEL 2
REMARK VINA RESULT:    -8.345      2.621      6.291
REMARK INTER + INTRA:          -8.420
REMARK INTER:                  -8.993
REMARK INTRA:                   0.573
REMARK UNBOUND:                 1.389
REMARK  Name = 
REMARK  5 active torsions:
REMARK  status: ('A' for Active; 'I' for Inactive)
REMARK    1  A    between atoms: C_1  and  N_2
REMARK    2  A    between atoms: C_3  and  C_5
REMARK    3  A    between atoms: N_9  and  C_10
REMARK    4  A    between atoms: C_10  and  C_11
REMARK    5  A    between atoms: C_10  and  C_12
REMARK                            x       y       z     vdW  Elec       q    Type
REMARK                         _______ _______ _______ _____ _____    ______ ____
ROOT
ATOM      1  C   UNL     1      45.383   3.281   8.456  0.00  0.00    +0.000 A 
ATOM      2  C   UNL     1      45.059   2.121   9.156  0.00  0.00    +0.000 A 
ATOM      3  C   UNL     1      44.223   2.208  10.276  0.00  0.00    +0.000 A 
ATOM      4  C   UNL     1      43.771   3.455  10.703  0.00  0.00    +0.000 A 
ATOM      5  N   UNL     1      43.066   3.530  11.903  0.00  0.00    +0.000 N 
ATOM      6  N   UNL     1      44.049   4.574  10.012  0.00  0.00    +0.000 NA
ATOM      7  C   UNL     1      44.840   4.471   8.912  0.00  0.00    +0.000 A 
ATOM      8  H   UNL     1      42.161   3.077  11.867  0.00  0.00    +0.000 HD
ENDROOT
BRANCH   1  11
ATOM      9  C   UNL     1      47.903   2.099   5.896  0.00  0.00    +0.000 C 
ATOM     10  N   UNL     1      46.943   2.138   6.972  0.00  0.00    +0.000 N 
ATOM     11  C   UNL     1      46.331   3.323   7.319  0.00  0.00    +0.000 C 
ATOM     12  O   UNL     1      46.538   4.381   6.737  0.00  0.00    +0.000 OA
ATOM     13  H   UNL     1      46.627   1.265   7.367  0.00  0.00    +0.000 HD
ENDBRANCH   1  11
BRANCH   5  14
ATOM     14  C   UNL     1      43.106   4.801  12.631  0.00  0.00    +0.000 C 
ATOM     15  C   UNL     1      42.293   5.792  11.780  0.00  0.00    +0.000 C 
BRANCH  14  16
ATOM     16  C   UNL     1      44.545   5.230  12.904  0.00  0.00    +0.000 A 
ATOM     17  C   UNL     1      45.530   4.343  13.373  0.00  0.00    +0.000 A 
ATOM     18  C   UNL     1      46.838   4.773  13.605  0.00  0.00    +0.000 A 
ATOM     19  C   UNL     1      47.194   6.095  13.359  0.00  0.00    +0.000 A 
ATOM     20  C   UNL     1      46.245   6.983  12.857  0.00  0.00    +0.000 A 
ATOM     21  C   UNL     1      44.936   6.553  12.624  0.00  0.00    +0.000 A 
ENDBRANCH  14  16
ENDBRANCH   5  14
TORSDOF 3
ENDMDL
MODEL 3
REMARK VINA RESULT:    -8.002      2.611      7.499
REMARK INTER + INTRA:          -8.016
REMARK INTER:                  -7.545
REMARK INTRA:                  -0.472
REMARK UNBOUND:                 1.389
REMARK  Name = 
REMARK  5 active torsions:
REMARK  status: ('A' for Active; 'I' for Inactive)
REMARK    1  A    between atoms: C_1  and  N_2
REMARK    2  A    between atoms: C_3  and  C_5
REMARK    3  A    between atoms: N_9  and  C_10
REMARK    4  A    between atoms: C_10  and  C_11
REMARK    5  A    between atoms: C_10  and  C_12
REMARK                            x       y       z     vdW  Elec       q    Type
REMARK                         _______ _______ _______ _____ _____    ______ ____
ROOT
ATOM      1  C   UNL     1      45.619   4.172  12.275  0.00  0.00    +0.000 A 
ATOM      2  C   UNL     1      45.833   5.522  12.543  0.00  0.00    +0.000 A 
ATOM      3  C   UNL     1      46.592   5.885  13.661  0.00  0.00    +0.000 A 
ATOM      4  C   UNL     1      47.078   4.897  14.516  0.00  0.00    +0.000 A 
ATOM      5  N   UNL     1      47.700   5.291  15.699  0.00  0.00    +0.000 N 
ATOM      6  N   UNL     1      46.906   3.592  14.244  0.00  0.00    +0.000 NA
ATOM      7  C   UNL     1      46.189   3.253  13.141  0.00  0.00    +0.000 A 
ATOM      8  H   UNL     1      48.581   5.768  15.550  0.00  0.00    +0.000 HD
ENDROOT
BRANCH   1  11
ATOM      9  C   UNL     1      44.508   2.157   9.273  0.00  0.00    +0.000 C 
ATOM     10  N   UNL     1      45.272   2.676  10.380  0.00  0.00    +0.000 N 
ATOM     11  C   UNL     1      44.755   3.673  11.180  0.00  0.00    +0.000 C 
ATOM     12  O   UNL     1      43.636   4.147  11.022  0.00  0.00    +0.000 OA
ATOM     13  H   UNL     1      46.125   2.203  10.640  0.00  0.00    +0.000 HD
ENDBRANCH   1  11
BRANCH   5  14
ATOM     14  C   UNL     1      47.676   4.347  16.820  0.00  0.00    +0.000 C 
ATOM     15  C   UNL     1      47.060   5.118  17.999  0.00  0.00    +0.000 C 
BRANCH  14  16
ATOM     16  C   UNL     1      49.069   3.782  17.087  0.00  0.00    +0.000 A 
ATOM     17  C   UNL     1      50.128   4.563  17.580  0.00  0.00    +0.000 A 
ATOM     18  C   UNL     1      51.387   4.007  17.818  0.00  0.00    +0.000 A 
ATOM     19  C   UNL     1      51.609   2.653  17.584  0.00  0.00    +0.000 A 
ATOM     20  C   UNL     1      50.563   1.851  17.133  0.00  0.00    +0.000 A 
ATOM     21  C   UNL     1      49.303   2.407  16.895  0.00  0.00    +0.000 A 
ENDBRANCH  14  16
ENDBRANCH   5  14
TORSDOF 3
ENDMDL
MODEL 4
REMARK VINA RESULT:    -7.741      2.349      3.541
REMARK INTER + INTRA:          -7.710
REMARK INTER:                  -7.244
REMARK INTRA:                  -0.466
REMARK UNBOUND:                 1.389
REMARK  Name = 
REMARK  5 active torsions:
REMARK  status: ('A' for Active; 'I' for Inactive)
REMARK    1  A    between atoms: C_1  and  N_2
REMARK    2  A    between atoms: C_3  and  C_5
REMARK    3  A    between atoms: N_9  and  C_10
REMARK    4  A    between atoms: C_10  and  C_11
REMARK    5  A    between atoms: C_10  and  C_12
REMARK                            x       y       z     vdW  Elec       q    Type
REMARK                         _______ _______ _______ _____ _____    ______ ____
ROOT
ATOM      1  C   UNL     1      48.426   6.184  14.867  0.00  0.00    +0.000 A 
ATOM      2  C   UNL     1      47.831   5.124  15.548  0.00  0.00    +0.000 A 
ATOM      3  C   UNL     1      46.827   4.382  14.915  0.00  0.00    +0.000 A 
ATOM      4  C   UNL     1      46.401   4.744  13.639  0.00  0.00    +0.000 A 
ATOM      5  N   UNL     1      45.301   4.086  13.095  0.00  0.00    +0.000 N 
ATOM      6  N   UNL     1      46.995   5.743  12.961  0.00  0.00    +0.000 NA
ATOM      7  C   UNL     1      47.986   6.438  13.578  0.00  0.00    +0.000 A 
ATOM      8  H   UNL     1      45.477   3.109  12.892  0.00  0.00    +0.000 HD
ENDROOT
BRANCH   1  11
ATOM      9  C   UNL     1      51.615   8.176  15.272  0.00  0.00    +0.000 C 
ATOM     10  N   UNL     1      50.577   7.325  14.745  0.00  0.00    +0.000 N 
ATOM     11  C   UNL     1      49.426   7.097  15.468  0.00  0.00    +0.000 C 
ATOM     12  O   UNL     1      49.207   7.607  16.560  0.00  0.00    +0.000 OA
ATOM     13  H   UNL     1      50.648   7.018  13.786  0.00  0.00    +0.000 HD
ENDBRANCH   1  11
BRANCH   5  14
ATOM     14  C   UNL     1      44.513   4.805  12.090  0.00  0.00    +0.000 C 
ATOM     15  C   UNL     1      43.054   4.720  12.567  0.00  0.00    +0.000 C 
BRANCH  14  16
ATOM     16  C   UNL     1      44.760   4.237  10.694  0.00  0.00    +0.000 A 
ATOM     17  C   UNL     1      45.398   4.965   9.676  0.00  0.00    +0.000 A 
ATOM     18  C   UNL     1      45.611   4.407   8.412  0.00  0.00    +0.000 A 
ATOM     19  C   UNL     1      45.203   3.104   8.147  0.00  0.00    +0.000 A 
ATOM     20  C   UNL     1      44.604   2.349   9.152  0.00  0.00    +0.000 A 
ATOM     21  C   UNL     1      44.392   2.907  10.416  0.00  0.00    +0.000 A 
ENDBRANCH  14  16
ENDBRANCH   5  14
TORSDOF 3
ENDMDL
MODEL 5
REMARK VINA RESULT:    -7.420      2.688      3.632
REMARK INTER + INTRA:          -7.333
REMARK INTER:                  -6.942
REMARK INTRA:                  -0.391
REMARK UNBOUND:                 1.389
REMARK  Name = 
REMARK  5 active torsions:
REMARK  status: ('A' for Active; 'I' for Inactive)
REMARK    1  A    between atoms: C_1  and  N_2
REMARK    2  A    between atoms: C_3  and  C_5
REMARK    3  A    between atoms: N_9  and  C_10
REMARK    4  A    between atoms: C_10  and  C_11
REMARK    5  A    between atoms: C_10  and  C_12
REMARK                            x       y       z     vdW  Elec       q    Type
REMARK                         _______ _______ _______ _____ _____    ______ ____
ROOT
ATOM      1  C   UNL     1      48.670   7.186  13.453  0.00  0.00    +0.000 A 
ATOM      2  C   UNL     1      48.134   6.377  14.453  0.00  0.00    +0.000 A 
ATOM      3  C   UNL     1      47.084   5.506  14.138  0.00  0.00    +0.000 A 
ATOM      4  C   UNL     1      46.558   5.497  12.847  0.00  0.00    +0.000 A 
ATOM      5  N   UNL     1      45.420   4.733  12.600  0.00  0.00    +0.000 N 
ATOM      6  N   UNL     1      47.094   6.248  11.869  0.00  0.00    +0.000 NA
ATOM      7  C   UNL     1      48.130   7.070  12.183  0.00  0.00    +0.000 A 
ATOM      8  H   UNL     1      45.581   3.736  12.673  0.00  0.00    +0.000 HD
ENDROOT
BRANCH   1  11
ATOM      9  C   UNL     1      52.034   8.910  13.348  0.00  0.00    +0.000 C 
ATOM     10  N   UNL     1      50.955   7.977  13.139  0.00  0.00    +0.000 N 
ATOM     11  C   UNL     1      49.713   8.211  13.689  0.00  0.00    +0.000 C 
ATOM     12  O   UNL     1      49.448   9.209  14.348  0.00  0.00    +0.000 OA
ATOM     13  H   UNL     1      51.086   7.230  12.473  0.00  0.00    +0.000 HD
ENDBRANCH   1  11
BRANCH   5  14
ATOM     14  C   UNL     1      44.554   5.151  11.494  0.00  0.00    +0.000 C 
ATOM     15  C   UNL     1      43.118   5.074  12.039  0.00  0.00    +0.000 C 
BRANCH  14  16
ATOM     16  C   UNL     1      44.808   4.302  10.251  0.00  0.00    +0.000 A 
ATOM     17  C   UNL     1      45.488   4.788   9.121  0.00  0.00    +0.000 A 
ATOM     18  C   UNL     1      45.706   3.978   8.004  0.00  0.00    +0.000 A 
ATOM     19  C   UNL     1      45.263   2.659   8.001  0.00  0.00    +0.000 A 
ATOM     20  C   UNL     1      44.622   2.143   9.124  0.00  0.00    +0.000 A 
ATOM     21  C   UNL     1      44.404   2.954  10.242  0.00  0.00    +0.000 A 
ENDBRANCH  14  16
ENDBRANCH   5  14
TORSDOF 3
ENDMDL
MODEL 6
REMARK VINA RESULT:    -7.099      3.426      7.674
REMARK INTER + INTRA:          -6.955
REMARK INTER:                  -6.505
REMARK INTRA:                  -0.450
REMARK UNBOUND:                 1.389
REMARK  Name = 
REMARK  5 active torsions:
REMARK  status: ('A' for Active; 'I' for Inactive)
REMARK    1  A    between atoms: C_1  and  N_2
REMARK    2  A    between atoms: C_3  and  C_5
REMARK    3  A    between atoms: N_9  and  C_10
REMARK    4  A    between atoms: C_10  and  C_11
REMARK    5  A    between atoms: C_10  and  C_12
REMARK                            x       y       z     vdW  Elec       q    Type
REMARK                         _______ _______ _______ _____ _____    ______ ____
ROOT
ATOM      1  C   UNL     1      46.466   5.720  12.646  0.00  0.00    +0.000 A 
ATOM      2  C   UNL     1      47.068   6.950  12.904  0.00  0.00    +0.000 A 
ATOM      3  C   UNL     1      47.913   7.079  14.012  0.00  0.00    +0.000 A 
ATOM      4  C   UNL     1      48.099   5.996  14.869  0.00  0.00    +0.000 A 
ATOM      5  N   UNL     1      48.822   6.194  16.043  0.00  0.00    +0.000 N 
ATOM      6  N   UNL     1      47.550   4.796  14.607  0.00  0.00    +0.000 NA
ATOM      7  C   UNL     1      46.753   4.678  13.513  0.00  0.00    +0.000 A 
ATOM      8  H   UNL     1      49.802   6.393  15.882  0.00  0.00    +0.000 HD
ENDROOT
BRANCH   1  11
ATOM      9  C   UNL     1      43.363   4.472  10.882  0.00  0.00    +0.000 C 
ATOM     10  N   UNL     1      44.356   4.765  11.885  0.00  0.00    +0.000 N 
ATOM     11  C   UNL     1      45.481   5.492  11.563  0.00  0.00    +0.000 C 
ATOM     12  O   UNL     1      45.691   5.944  10.444  0.00  0.00    +0.000 OA
ATOM     13  H   UNL     1      44.144   4.551  12.849  0.00  0.00    +0.000 HD
ENDBRANCH   1  11
BRANCH   5  14
ATOM     14  C   UNL     1      48.537   5.302  17.169  0.00  0.00    +0.000 C 
ATOM     15  C   UNL     1      48.334   6.221  18.386  0.00  0.00    +0.000 C 
BRANCH  14  16
ATOM     16  C   UNL     1      49.641   4.262  17.336  0.00  0.00    +0.000 A 
ATOM     17  C   UNL     1      50.944   4.591  17.746  0.00  0.00    +0.000 A 
ATOM     18  C   UNL     1      51.926   3.608  17.893  0.00  0.00    +0.000 A 
ATOM     19  C   UNL     1      51.621   2.273  17.648  0.00  0.00    +0.000 A 
ATOM     20  C   UNL     1      50.326   1.918  17.278  0.00  0.00    +0.000 A 
ATOM     21  C   UNL     1      49.343   2.901  17.132  0.00  0.00    +0.000 A 
ENDBRANCH  14  16
ENDBRANCH   5  14
TORSDOF 3
ENDMDL
MODEL 7
REMARK VINA RESULT:    -6.779      3.804      6.315
REMARK INTER + INTRA:          -6.580
REMARK INTER:                  -6.453
REMARK INTRA:                  -0.127
REMARK UNBOUND:                 1.389
REMARK  Name = 
REMARK  5 active torsions:
REMARK  status: ('A' for Active; 'I' for Inactive)
REMARK    1  A    between atoms: C_1  and  N_2
REMARK    2  A    between atoms: C_3  and  C_5
REMARK    3  A    between atoms: N_9  and  C_10
REMARK    4  A    between atoms: C_10  and  C_11
REMARK    5  A    between atoms: C_10  and  C_12
REMARK                            x       y       z     vdW  Elec       q    Type
REMARK                         _______ _______ _______ _____ _____    ______ ____
ROOT
ATOM      1  C   UNL     1      49.470   4.589  18.595  0.00  0.00    +0.000 A 
ATOM      2  C   UNL     1      48.163   4.961  18.904  0.00  0.00    +0.000 A 
ATOM      3  C   UNL     1      47.170   4.846  17.924  0.00  0.00    +0.000 A 
ATOM      4  C   UNL     1      47.510   4.413  16.644  0.00  0.00    +0.000 A 
ATOM      5  N   UNL     1      46.535   4.451  15.649  0.00  0.00    +0.000 N 
ATOM      6  N   UNL     1      48.761   4.018  16.349  0.00  0.00    +0.000 NA
ATOM      7  C   UNL     1      49.710   4.110  17.317  0.00  0.00    +0.000 A 
ATOM      8  H   UNL     1      45.778   3.796  15.803  0.00  0.00    +0.000 HD
ENDROOT
BRANCH   1  11
ATOM      9  C   UNL     1      52.883   4.069  20.138  0.00  0.00    +0.000 C 
ATOM     10  N   UNL     1      51.735   3.989  19.270  0.00  0.00    +0.000 N 
ATOM     11  C   UNL     1      50.617   4.757  19.517  0.00  0.00    +0.000 C 
ATOM     12  O   UNL     1      50.541   5.553  20.446  0.00  0.00    +0.000 OA
ATOM     13  H   UNL     1      51.818   3.470  18.408  0.00  0.00    +0.000 HD
ENDBRANCH   1  11
BRANCH   5  14
ATOM     14  C   UNL     1      46.991   4.572  14.262  0.00  0.00    +0.000 C 
ATOM     15  C   UNL     1      47.727   5.920  14.182  0.00  0.00    +0.000 C 
BRANCH  14  16
ATOM     16  C   UNL     1      45.823   4.427  13.289  0.00  0.00    +0.000 A 
ATOM     17  C   UNL     1      45.639   3.293  12.481  0.00  0.00    +0.000 A 
ATOM     18  C   UNL     1      44.554   3.195  11.607  0.00  0.00    +0.000 A 
ATOM     19  C   UNL     1      43.620   4.224  11.535  0.00  0.00    +0.000 A 
ATOM     20  C   UNL     1      43.760   5.341  12.355  0.00  0.00    +0.000 A 
ATOM     21  C   UNL     1      44.846   5.438  13.229  0.00  0.00    +0.000 A 
ENDBRANCH  14  16
ENDBRANCH   5  14
TORSDOF 3
ENDMDL
MODEL 8
REMARK VINA RESULT:    -6.483      4.767      6.132
REMARK INTER + INTRA:          -6.232
REMARK INTER:                  -5.745
REMARK INTRA:                  -0.487
REMARK UNBOUND:                 1.389
REMARK  Name = 
REMARK  5 active torsions:
REMARK  status: ('A' for Active; 'I' for Inactive)
REMARK    1  A    between atoms: C_1  and  N_2
REMARK    2  A    between atoms: C_3  and  C_5
REMARK    3  A    between atoms: N_9  and  C_10
REMARK    4  A    between atoms: C_10  and  C_11
REMARK    5  A    between atoms: C_10  and  C_12
REMARK                            x       y       z     vdW  Elec       q    Type
REMARK                         _______ _______ _______ _____ _____    ______ ____
ROOT
ATOM      1  C   UNL     1      47.639   4.766  15.832  0.00  0.00    +0.000 A 
ATOM      2  C   UNL     1      46.869   4.421  14.723  0.00  0.00    +0.000 A 
ATOM      3  C   UNL     1      47.000   5.161  13.543  0.00  0.00    +0.000 A 
ATOM      4  C   UNL     1      47.856   6.261  13.509  0.00  0.00    +0.000 A 
ATOM      5  N   UNL     1      47.854   7.068  12.373  0.00  0.00    +0.000 N 
ATOM      6  N   UNL     1      48.628   6.577  14.562  0.00  0.00    +0.000 NA
ATOM      7  C   UNL     1      48.510   5.834  15.693  0.00  0.00    +0.000 A 
ATOM      8  H   UNL     1      48.218   6.604  11.550  0.00  0.00    +0.000 HD
ENDROOT
BRANCH   1  11
ATOM      9  C   UNL     1      48.370   3.917  19.444  0.00  0.00    +0.000 C 
ATOM     10  N   UNL     1      48.402   4.520  18.135  0.00  0.00    +0.000 N 
ATOM     11  C   UNL     1      47.516   4.117  17.158  0.00  0.00    +0.000 C 
ATOM     12  O   UNL     1      46.654   3.267  17.343  0.00  0.00    +0.000 OA
ATOM     13  H   UNL     1      48.985   5.331  17.993  0.00  0.00    +0.000 HD
ENDBRANCH   1  11
BRANCH   5  14
ATOM     14  C   UNL     1      48.260   8.466  12.539  0.00  0.00    +0.000 C 
ATOM     15  C   UNL     1      47.049   9.306  12.097  0.00  0.00    +0.000 C 
BRANCH  14  16
ATOM     16  C   UNL     1      49.548   8.756  11.773  0.00  0.00    +0.000 A 
ATOM     17  C   UNL     1      49.967  10.057  11.448  0.00  0.00    +0.000 A 
ATOM     18  C   UNL     1      51.156  10.281  10.750  0.00  0.00    +0.000 A 
ATOM     19  C   UNL     1      51.959   9.208  10.376  0.00  0.00    +0.000 A 
ATOM     20  C   UNL     1      51.585   7.912  10.722  0.00  0.00    +0.000 A 
ATOM     21  C   UNL     1      50.395   7.688  11.420  0.00  0.00    +0.000 A 
ENDBRANCH  14  16
ENDBRANCH   5  14
TORSDOF 3
ENDMDL
MODEL 9
REMARK VINA RESULT:    -6.392      3.873      5.631
REMARK INTER + INTRA:          -6.124
REMARK INTER:                  -5.692
REMARK INTRA:                  -0.433
REMARK UNBOUND:                 1.389
REMARK  Name = 
REMARK  5 active torsions:
REMARK  status: ('A' for Active; 'I' for Inactive)
REMARK    1  A    between atoms: C_1  and  N_2
REMARK    2  A    between atoms: C_3  and  C_5
REMARK    3  A    between atoms: N_9  and  C_10
REMARK    4  A    between atoms: C_10  and  C_11
REMARK    5  A    between atoms: C_10  and  C_12
REMARK                            x       y       z     vdW  Elec       q    Type
REMARK                         _______ _______ _______ _____ _____    ______ ____
ROOT
ATOM      1  C   UNL     1      50.558   8.009  13.665  0.00  0.00    +0.000 A 
ATOM      2  C   UNL     1      49.900   7.703  14.855  0.00  0.00    +0.000 A 
ATOM      3  C   UNL     1      48.648   7.079  14.802  0.00  0.00    +0.000 A 
ATOM      4  C   UNL     1      48.056   6.822  13.567  0.00  0.00    +0.000 A 
ATOM      5  N   UNL     1      46.749   6.340  13.545  0.00  0.00    +0.000 N 
ATOM      6  N   UNL     1      48.701   7.081  12.416  0.00  0.00    +0.000 NA
ATOM      7  C   UNL     1      49.927   7.663  12.482  0.00  0.00    +0.000 A 
ATOM      8  H   UNL     1      46.660   5.404  13.921  0.00  0.00    +0.000 HD
ENDROOT
BRANCH   1  11
ATOM      9  C   UNL     1      54.268   8.708  13.885  0.00  0.00    +0.000 C 
ATOM     10  N   UNL     1      52.985   8.051  13.898  0.00  0.00    +0.000 N 
ATOM     11  C   UNL     1      51.837   8.753  13.596  0.00  0.00    +0.000 C 
ATOM     12  O   UNL     1      51.838   9.937  13.281  0.00  0.00    +0.000 OA
ATOM     13  H   UNL     1      52.959   7.046  13.994  0.00  0.00    +0.000 HD
ENDBRANCH   1  11
BRANCH   5  14
ATOM     14  C   UNL     1      45.948   6.617  12.350  0.00  0.00    +0.000 C 
ATOM     15  C   UNL     1      45.193   7.923  12.650  0.00  0.00    +0.000 C 
BRANCH  14  16
ATOM     16  C   UNL     1      45.052   5.430  12.005  0.00  0.00    +0.000 A 
ATOM     17  C   UNL     1      44.965   4.890  10.711  0.00  0.00    +0.000 A 
ATOM     18  C   UNL     1      44.137   3.798  10.437  0.00  0.00    +0.000 A 
ATOM     19  C   UNL     1      43.392   3.213  11.456  0.00  0.00    +0.000 A 
ATOM     20  C   UNL     1      43.493   3.706  12.755  0.00  0.00    +0.000 A 
ATOM     21  C   UNL     1      44.321   4.798  13.029  0.00  0.00    +0.000 A 
ENDBRANCH  14  16
ENDBRANCH   5  14
TORSDOF 3
ENDMDL
