MODEL 1
REMARK VINA RESULT:    -8.918      0.000      0.000
REMARK INTER + INTRA:         -12.151
REMARK INTER:                 -11.003
REMARK INTRA:                  -1.148
REMARK UNBOUND:                -1.148
REMARK  Name = 
REMARK  4 active torsions:
REMARK  status: ('A' for Active; 'I' for Inactive)
REMARK    1  A    between atoms: C_2  and  C_4
REMARK    2  A    between atoms: N_8  and  C_9
REMARK    3  A    between atoms: C_9  and  C_10
REMARK    4  A    between atoms: C_14  and  C_15
REMARK                            x       y       z     vdW  Elec       q    Type
REMARK                         _______ _______ _______ _____ _____    ______ ____
ROOT
ATOM      1  C   UNL     1      43.792   4.874  11.351  0.00  0.00    +0.000 C 
ATOM      2  C   UNL     1      42.457   5.141  12.040  0.00  0.00    +0.000 C 
ATOM      3  C   UNL     1      42.977   6.112  11.032  0.00  0.00    +0.000 C 
ENDROOT
BRANCH   1   8
ATOM      4  C   UNL     1      46.549   2.749   7.494  0.00  0.00    +0.000 A 
ATOM      5  C   UNL     1      46.168   4.080   7.645  0.00  0.00    +0.000 A 
ATOM      6  C   UNL     1      45.280   4.427   8.667  0.00  0.00    +0.000 A 
ATOM      7  C   UNL     1      44.782   3.438   9.510  0.00  0.00    +0.000 A 
ATOM      8  N   UNL     1      43.803   3.684  10.478  0.00  0.00    +0.000 N 
ATOM      9  N   UNL     1      45.150   2.148   9.378  0.00  0.00    +0.000 NA
ATOM     10  C   UNL     1      46.019   1.828   8.380  0.00  0.00    +0.000 A 
ATOM     11  H   UNL     1      43.700   2.794  10.968  0.00  0.00    +0.000 HD
BRANCH   4  13
ATOM     12  N   UNL     1      47.355   2.907   5.202  0.00  0.00    +0.000 N 
ATOM     13  C   UNL     1      47.444   2.275   6.412  0.00  0.00    +0.000 C 
ATOM     14  O   UNL     1      48.242   1.367   6.597  0.00  0.00    +0.000 OA
ATOM     15  H   UNL     1      48.028   2.628   4.501  0.00  0.00    +0.000 HD
ATOM     16  H   UNL     1      46.897   3.797   5.082  0.00  0.00    +0.000 HD
ENDBRANCH   4  13
ENDBRANCH   1   8
BRANCH   1  17
ATOM     17  C   UNL     1      45.075   5.021  12.165  0.00  0.00    +0.000 A 
ATOM     18  C   UNL     1      45.560   3.981  12.974  0.00  0.00    +0.000 A 
ATOM     19  C   UNL     1      46.802   4.069  13.599  0.00  0.00    +0.000 A 
ATOM     20  C   UNL     1      47.601   5.196  13.406  0.00  0.00    +0.000 A 
ATOM     21  C   UNL     1      47.171   6.261  12.599  0.00  0.00    +0.000 A 
ATOM     22  C   UNL     1      45.889   6.163  12.024  0.00  0.00    +0.000 A 
BRANCH  21  23
ATOM     23  C   UNL     1      48.063   7.392  12.277  0.00  0.00    +0.000 A 
ATOM     24  C   UNL     1      49.437   7.204  12.059  0.00  0.00    +0.000 A 
ATOM     25  C   UNL     1      50.254   8.270  11.690  0.00  0.00    +0.000 A 
ATOM     26  C   UNL     1      49.676   9.516  11.538  0.00  0.00    +0.000 A 
ATOM     27  N   UNL     1      48.365   9.759  11.741  0.00  0.00    +0.000 NA
ATOM     28  C   UNL     1      47.600   8.699  12.107  0.00  0.00    +0.000 A 
ENDBRANCH  21  23
ENDBRANCH   1  17
TORSDOF 4
ENDMDL
MODEL 2
REMARK VINA RESULT:    -8.522      1.990      3.289
REMARK INTER + INTRA:         -11.663
REMARK INTER:                 -10.974
REMARK INTRA:                  -0.689
REMARK UNBOUND:                -1.148
REMARK  Name = 
REMARK  4 active torsions:
REMARK  status: ('A' for Active; 'I' for Inactive)
REMARK    1  A    between atoms: C_2  and  C_4
REMARK    2  A    between atoms: N_8  and  C_9
REMARK    3  A    between atoms: C_9  and  C_10
REMARK    4  A    between atoms: C_14  and  C_15
REMARK                            x       y       z     vdW  Elec       q    Type
REMARK                         _______ _______ _______ _____ _____    ______ ____
ROOT
ATOM      1  C   UNL     1      43.979   5.087  11.468  0.00  0.00    +0.000 C 
ATOM      2  C   UNL     1      42.817   5.305  12.432  0.00  0.00    +0.000 C 
ATOM      3  C   UNL     1      42.971   6.199  11.246  0.00  0.00    +0.000 C 
ENDROOT
BRANCH   1   8
ATOM      4  C   UNL     1      46.381   2.603   7.588  0.00  0.00    +0.000 A 
ATOM      5  C   UNL     1      45.985   3.938   7.638  0.00  0.00    +0.000 A 
ATOM      6  C   UNL     1      45.198   4.378   8.706  0.00  0.00    +0.000 A 
ATOM      7  C   UNL     1      44.812   3.479   9.694  0.00  0.00    +0.000 A 
ATOM      8  N   UNL     1      43.931   3.812  10.727  0.00  0.00    +0.000 N 
ATOM      9  N   UNL     1      45.196   2.187   9.659  0.00  0.00    +0.000 NA
ATOM     10  C   UNL     1      45.967   1.774   8.616  0.00  0.00    +0.000 A 
ATOM     11  H   UNL     1      43.900   2.978  11.316  0.00  0.00    +0.000 HD
BRANCH   4  13
ATOM     12  N   UNL     1      47.836   2.905   5.659  0.00  0.00    +0.000 N 
ATOM     13  C   UNL     1      47.173   2.029   6.474  0.00  0.00    +0.000 C 
ATOM     14  O   UNL     1      47.244   0.821   6.300  0.00  0.00    +0.000 OA
ATOM     15  H   UNL     1      48.436   2.495   4.956  0.00  0.00    +0.000 HD
ATOM     16  H   UNL     1      47.997   3.868   5.908  0.00  0.00    +0.000 HD
ENDBRANCH   4  13
ENDBRANCH   1   8
BRANCH   1  17
ATOM     17  C   UNL     1      45.389   5.448  11.932  0.00  0.00    +0.000 A 
ATOM     18  C   UNL     1      46.165   6.406  11.260  0.00  0.00    +0.000 A 
ATOM     19  C   UNL     1      47.389   6.833  11.770  0.00  0.00    +0.000 A 
ATOM     20  C   UNL     1      47.852   6.327  12.984  0.00  0.00    +0.000 A 
ATOM     21  C   UNL     1      47.113   5.375  13.703  0.00  0.00    +0.000 A 
ATOM     22  C   UNL     1      45.906   4.927  13.134  0.00  0.00    +0.000 A 
BRANCH  21  23
ATOM     23  C   UNL     1      47.526   4.938  15.051  0.00  0.00    +0.000 A 
ATOM     24  C   UNL     1      47.214   3.659  15.536  0.00  0.00    +0.000 A 
ATOM     25  C   UNL     1      47.667   3.237  16.783  0.00  0.00    +0.000 A 
ATOM     26  C   UNL     1      48.438   4.108  17.529  0.00  0.00    +0.000 A 
ATOM     27  N   UNL     1      48.764   5.351  17.120  0.00  0.00    +0.000 NA
ATOM     28  C   UNL     1      48.299   5.732  15.903  0.00  0.00    +0.000 A 
ENDBRANCH  21  23
ENDBRANCH   1  17
TORSDOF 4
ENDMDL
MODEL 3
REMARK VINA RESULT:    -6.701      4.320      8.243
REMARK INTER + INTRA:          -9.415
REMARK INTER:                  -8.411
REMARK INTRA:                  -1.005
REMARK UNBOUND:                -1.148
REMARK  Name = 
REMARK  4 active torsions:
REMARK  status: ('A' for Active; 'I' for Inactive)
REMARK    1  A    between atoms: C_2  and  C_4
REMARK    2  A    between atoms: N_8  and  C_9
REMARK    3  A    between atoms: C_9  and  C_10
REMARK    4  A    between atoms: C_14  and  C_15
REMARK                            x       y       z     vdW  Elec       q    Type
REMARK                         _______ _______ _______ _____ _____    ______ ____
ROOT
ATOM      1  C   UNL     1      49.008   7.968  12.621  0.00  0.00    +0.000 C 
ATOM      2  C   UNL     1      49.937   8.176  11.428  0.00  0.00    +0.000 C 
ATOM      3  C   UNL     1      49.651   9.315  12.350  0.00  0.00    +0.000 C 
ENDROOT
BRANCH   1   8
ATOM      4  C   UNL     1      48.446   6.816  17.655  0.00  0.00    +0.000 A 
ATOM      5  C   UNL     1      48.551   8.075  17.070  0.00  0.00    +0.000 A 
ATOM      6  C   UNL     1      48.869   8.174  15.712  0.00  0.00    +0.000 A 
ATOM      7  C   UNL     1      49.086   7.017  14.970  0.00  0.00    +0.000 A 
ATOM      8  N   UNL     1      49.522   7.034  13.641  0.00  0.00    +0.000 N 
ATOM      9  N   UNL     1      48.979   5.794  15.525  0.00  0.00    +0.000 NA
ATOM     10  C   UNL     1      48.664   5.714  16.847  0.00  0.00    +0.000 A 
ATOM     11  H   UNL     1      49.521   6.053  13.360  0.00  0.00    +0.000 HD
BRANCH   4  13
ATOM     12  N   UNL     1      47.311   5.591  19.428  0.00  0.00    +0.000 N 
ATOM     13  C   UNL     1      48.164   6.608  19.096  0.00  0.00    +0.000 C 
ATOM     14  O   UNL     1      48.685   7.306  19.954  0.00  0.00    +0.000 OA
ATOM     15  H   UNL     1      47.194   5.411  20.415  0.00  0.00    +0.000 HD
ATOM     16  H   UNL     1      47.059   4.857  18.785  0.00  0.00    +0.000 HD
ENDBRANCH   4  13
ENDBRANCH   1   8
BRANCH   1  17
ATOM     17  C   UNL     1      47.514   7.796  12.361  0.00  0.00    +0.000 A 
ATOM     18  C   UNL     1      46.602   8.844  12.570  0.00  0.00    +0.000 A 
ATOM     19  C   UNL     1      45.266   8.726  12.195  0.00  0.00    +0.000 A 
ATOM     20  C   UNL     1      44.816   7.560  11.577  0.00  0.00    +0.000 A 
ATOM     21  C   UNL     1      45.685   6.485  11.335  0.00  0.00    +0.000 A 
ATOM     22  C   UNL     1      47.017   6.617  11.772  0.00  0.00    +0.000 A 
BRANCH  21  23
ATOM     23  C   UNL     1      45.253   5.306  10.559  0.00  0.00    +0.000 A 
ATOM     24  C   UNL     1      45.654   5.116   9.227  0.00  0.00    +0.000 A 
ATOM     25  C   UNL     1      45.294   3.966   8.529  0.00  0.00    +0.000 A 
ATOM     26  C   UNL     1      44.537   3.013   9.184  0.00  0.00    +0.000 A 
ATOM     27  N   UNL     1      44.116   3.142  10.458  0.00  0.00    +0.000 NA
ATOM     28  C   UNL     1      44.479   4.279  11.106  0.00  0.00    +0.000 A 
ENDBRANCH  21  23
ENDBRANCH   1  17
TORSDOF 4
ENDMDL
MODEL 4
REMARK VINA RESULT:    -6.567      3.658      7.505
REMARK INTER + INTRA:          -9.251
REMARK INTER:                  -9.246
REMARK INTRA:                  -0.005
REMARK UNBOUND:                -1.148
REMARK  Name = 
REMARK  4 active torsions:
REMARK  status: ('A' for Active; 'I' for Inactive)
REMARK    1  A    between atoms: C_2  and  C_4
REMARK    2  A    between atoms: N_8  and  C_9
REMARK    3  A    between atoms: C_9  and  C_10
REMARK    4  A    between atoms: C_14  and  C_15
REMARK                            x       y       z     vdW  Elec       q    Type
REMARK                         _______ _______ _______ _____ _____    ______ ____
ROOT
ATOM      1  C   UNL     1      48.456   7.734  12.764  0.00  0.00    +0.000 C 
ATOM      2  C   UNL     1      49.584   7.059  11.989  0.00  0.00    +0.000 C 
ATOM      3  C   UNL     1      49.419   8.541  11.915  0.00  0.00    +0.000 C 
ENDROOT
BRANCH   1   8
ATOM      4  C   UNL     1      48.001   4.275  16.614  0.00  0.00    +0.000 A 
ATOM      5  C   UNL     1      47.153   4.464  15.526  0.00  0.00    +0.000 A 
ATOM      6  C   UNL     1      47.354   5.563  14.685  0.00  0.00    +0.000 A 
ATOM      7  C   UNL     1      48.386   6.455  14.953  0.00  0.00    +0.000 A 
ATOM      8  N   UNL     1      48.579   7.638  14.232  0.00  0.00    +0.000 N 
ATOM      9  N   UNL     1      49.218   6.277  15.999  0.00  0.00    +0.000 NA
ATOM     10  C   UNL     1      49.012   5.200  16.806  0.00  0.00    +0.000 A 
ATOM     11  H   UNL     1      49.439   8.033  14.614  0.00  0.00    +0.000 HD
BRANCH   4  13
ATOM     12  N   UNL     1      48.916   2.869  18.379  0.00  0.00    +0.000 N 
ATOM     13  C   UNL     1      47.840   3.172  17.591  0.00  0.00    +0.000 C 
ATOM     14  O   UNL     1      46.782   2.567  17.700  0.00  0.00    +0.000 OA
ATOM     15  H   UNL     1      48.764   2.171  19.094  0.00  0.00    +0.000 HD
ATOM     16  H   UNL     1      49.704   3.487  18.489  0.00  0.00    +0.000 HD
ENDBRANCH   4  13
ENDBRANCH   1   8
BRANCH   1  17
ATOM     17  C   UNL     1      47.021   7.543  12.278  0.00  0.00    +0.000 A 
ATOM     18  C   UNL     1      46.094   8.598  12.282  0.00  0.00    +0.000 A 
ATOM     19  C   UNL     1      44.834   8.455  11.706  0.00  0.00    +0.000 A 
ATOM     20  C   UNL     1      44.482   7.257  11.087  0.00  0.00    +0.000 A 
ATOM     21  C   UNL     1      45.373   6.173  11.044  0.00  0.00    +0.000 A 
ATOM     22  C   UNL     1      46.618   6.332  11.681  0.00  0.00    +0.000 A 
BRANCH  21  23
ATOM     23  C   UNL     1      45.064   4.953  10.273  0.00  0.00    +0.000 A 
ATOM     24  C   UNL     1      45.577   4.750   8.983  0.00  0.00    +0.000 A 
ATOM     25  C   UNL     1      45.332   3.565   8.294  0.00  0.00    +0.000 A 
ATOM     26  C   UNL     1      44.576   2.590   8.917  0.00  0.00    +0.000 A 
ATOM     27  N   UNL     1      44.051   2.730  10.151  0.00  0.00    +0.000 NA
ATOM     28  C   UNL     1      44.303   3.901  10.790  0.00  0.00    +0.000 A 
ENDBRANCH  21  23
ENDBRANCH   1  17
TORSDOF 4
ENDMDL
MODEL 5
REMARK VINA RESULT:    -6.492      2.643      6.819
REMARK INTER + INTRA:          -9.158
REMARK INTER:                  -8.133
REMARK INTRA:                  -1.025
REMARK UNBOUND:                -1.148
REMARK  Name = 
REMARK  4 active torsions:
REMARK  status: ('A' for Active; 'I' for Inactive)
REMARK    1  A    between atoms: C_2  and  C_4
REMARK    2  A    between atoms: N_8  and  C_9
REMARK    3  A    between atoms: C_9  and  C_10
REMARK    4  A    between atoms: C_14  and  C_15
REMARK                            x       y       z     vdW  Elec       q    Type
REMARK                         _______ _______ _______ _____ _____    ______ ____
ROOT
ATOM      1  C   UNL     1      46.186   5.052  13.424  0.00  0.00    +0.000 C 
ATOM      2  C   UNL     1      46.093   4.133  14.639  0.00  0.00    +0.000 C 
ATOM      3  C   UNL     1      47.291   4.067  13.751  0.00  0.00    +0.000 C 
ENDROOT
BRANCH   1   8
ATOM      4  C   UNL     1      48.346   9.433  11.655  0.00  0.00    +0.000 A 
ATOM      5  C   UNL     1      48.928   8.173  11.764  0.00  0.00    +0.000 A 
ATOM      6  C   UNL     1      48.235   7.154  12.425  0.00  0.00    +0.000 A 
ATOM      7  C   UNL     1      46.984   7.416  12.973  0.00  0.00    +0.000 A 
ATOM      8  N   UNL     1      46.281   6.488  13.748  0.00  0.00    +0.000 N 
ATOM      9  N   UNL     1      46.408   8.630  12.865  0.00  0.00    +0.000 NA
ATOM     10  C   UNL     1      47.093   9.610  12.215  0.00  0.00    +0.000 A 
ATOM     11  H   UNL     1      45.387   6.942  13.941  0.00  0.00    +0.000 HD
BRANCH   4  13
ATOM     12  N   UNL     1      48.233  11.483  10.345  0.00  0.00    +0.000 N 
ATOM     13  C   UNL     1      49.020  10.589  11.018  0.00  0.00    +0.000 C 
ATOM     14  O   UNL     1      50.230  10.748  11.105  0.00  0.00    +0.000 OA
ATOM     15  H   UNL     1      48.696  12.307   9.988  0.00  0.00    +0.000 HD
ATOM     16  H   UNL     1      47.232  11.520  10.455  0.00  0.00    +0.000 HD
ENDBRANCH   4  13
ENDBRANCH   1   8
BRANCH   1  17
ATOM     17  C   UNL     1      45.277   4.775  12.229  0.00  0.00    +0.000 A 
ATOM     18  C   UNL     1      44.032   5.408  12.086  0.00  0.00    +0.000 A 
ATOM     19  C   UNL     1      43.274   5.261  10.926  0.00  0.00    +0.000 A 
ATOM     20  C   UNL     1      43.761   4.493   9.869  0.00  0.00    +0.000 A 
ATOM     21  C   UNL     1      45.003   3.846   9.953  0.00  0.00    +0.000 A 
ATOM     22  C   UNL     1      45.720   3.973  11.158  0.00  0.00    +0.000 A 
BRANCH  21  23
ATOM     23  C   UNL     1      45.588   3.149   8.791  0.00  0.00    +0.000 A 
ATOM     24  C   UNL     1      46.027   3.850   7.658  0.00  0.00    +0.000 A 
ATOM     25  C   UNL     1      46.638   3.185   6.597  0.00  0.00    +0.000 A 
ATOM     26  C   UNL     1      46.807   1.817   6.693  0.00  0.00    +0.000 A 
ATOM     27  N   UNL     1      46.400   1.088   7.752  0.00  0.00    +0.000 NA
ATOM     28  C   UNL     1      45.801   1.767   8.764  0.00  0.00    +0.000 A 
ENDBRANCH  21  23
ENDBRANCH   1  17
TORSDOF 4
ENDMDL
MODEL 6
REMARK VINA RESULT:    -6.278      3.428      5.893
REMARK INTER + INTRA:          -8.893
REMARK INTER:                  -8.549
REMARK INTRA:                  -0.344
REMARK UNBOUND:                -1.148
REMARK  Name = 
REMARK  4 active torsions:
REMARK  status: ('A' for Active; 'I' for Inactive)
REMARK    1  A    between atoms: C_2  and  C_4
REMARK    2  A    between atoms: N_8  and  C_9
REMARK    3  A    between atoms: C_9  and  C_10
REMARK    4  A    between atoms: C_14  and  C_15
REMARK                            x       y       z     vdW  Elec       q    Type
REMARK                         _______ _______ _______ _____ _____    ______ ____
ROOT
ATOM      1  C   UNL     1      47.471   8.476  13.067  0.00  0.00    +0.000 C 
ATOM      2  C   UNL     1      47.569   9.938  12.641  0.00  0.00    +0.000 C 
ATOM      3  C   UNL     1      48.136   8.872  11.763  0.00  0.00    +0.000 C 
ENDROOT
BRANCH   1   8
ATOM      4  C   UNL     1      44.672   4.376  11.535  0.00  0.00    +0.000 A 
ATOM      5  C   UNL     1      45.613   5.095  10.802  0.00  0.00    +0.000 A 
ATOM      6  C   UNL     1      46.138   6.276  11.335  0.00  0.00    +0.000 A 
ATOM      7  C   UNL     1      45.707   6.720  12.581  0.00  0.00    +0.000 A 
ATOM      8  N   UNL     1      46.095   7.947  13.129  0.00  0.00    +0.000 N 
ATOM      9  N   UNL     1      44.804   6.027  13.302  0.00  0.00    +0.000 NA
ATOM     10  C   UNL     1      44.305   4.877  12.771  0.00  0.00    +0.000 A 
ATOM     11  H   UNL     1      45.676   7.954  14.060  0.00  0.00    +0.000 HD
BRANCH   4  13
ATOM     12  N   UNL     1      44.657   2.456  10.038  0.00  0.00    +0.000 N 
ATOM     13  C   UNL     1      44.021   3.142  11.036  0.00  0.00    +0.000 C 
ATOM     14  O   UNL     1      42.966   2.743  11.508  0.00  0.00    +0.000 OA
ATOM     15  H   UNL     1      44.242   1.575   9.766  0.00  0.00    +0.000 HD
ATOM     16  H   UNL     1      45.622   2.612   9.796  0.00  0.00    +0.000 HD
ENDBRANCH   4  13
ENDBRANCH   1   8
BRANCH   1  17
ATOM     17  C   UNL     1      48.341   7.994  14.226  0.00  0.00    +0.000 A 
ATOM     18  C   UNL     1      49.252   8.847  14.869  0.00  0.00    +0.000 A 
ATOM     19  C   UNL     1      49.937   8.443  16.014  0.00  0.00    +0.000 A 
ATOM     20  C   UNL     1      49.703   7.181  16.557  0.00  0.00    +0.000 A 
ATOM     21  C   UNL     1      48.795   6.291  15.961  0.00  0.00    +0.000 A 
ATOM     22  C   UNL     1      48.159   6.710  14.777  0.00  0.00    +0.000 A 
BRANCH  21  23
ATOM     23  C   UNL     1      48.438   5.011  16.604  0.00  0.00    +0.000 A 
ATOM     24  C   UNL     1      49.318   4.358  17.479  0.00  0.00    +0.000 A 
ATOM     25  C   UNL     1      48.941   3.186  18.130  0.00  0.00    +0.000 A 
ATOM     26  C   UNL     1      47.674   2.686  17.895  0.00  0.00    +0.000 A 
ATOM     27  N   UNL     1      46.788   3.264  17.060  0.00  0.00    +0.000 NA
ATOM     28  C   UNL     1      47.191   4.401  16.437  0.00  0.00    +0.000 A 
ENDBRANCH  21  23
ENDBRANCH   1  17
TORSDOF 4
ENDMDL
MODEL 7
REMARK VINA RESULT:    -6.059      3.803      5.989
REMARK INTER + INTRA:          -8.624
REMARK INTER:                  -8.202
REMARK INTRA:                  -0.422
REMARK UNBOUND:                -1.148
REMARK  Name = 
REMARK  4 active torsions:
REMARK  status: ('A' for Active; 'I' for Inactive)
REMARK    1  A    between atoms: C_2  and  C_4
REMARK    2  A    between atoms: N_8  and  C_9
REMARK    3  A    between atoms: C_9  and  C_10
REMARK    4  A    between atoms: C_14  and  C_15
REMARK                            x       y       z     vdW  Elec       q    Type
REMARK                         _______ _______ _______ _____ _____    ______ ____
ROOT
ATOM      1  C   UNL     1      47.776   8.095  13.144  0.00  0.00    +0.000 C 
ATOM      2  C   UNL     1      47.676   9.581  12.813  0.00  0.00    +0.000 C 
ATOM      3  C   UNL     1      48.124   8.619  11.764  0.00  0.00    +0.000 C 
ENDROOT
BRANCH   1   8
ATOM      4  C   UNL     1      44.792   4.154  11.546  0.00  0.00    +0.000 A 
ATOM      5  C   UNL     1      45.475   5.084  10.766  0.00  0.00    +0.000 A 
ATOM      6  C   UNL     1      46.090   6.177  11.386  0.00  0.00    +0.000 A 
ATOM      7  C   UNL     1      46.001   6.325  12.766  0.00  0.00    +0.000 A 
ATOM      8  N   UNL     1      46.485   7.447  13.446  0.00  0.00    +0.000 N 
ATOM      9  N   UNL     1      45.349   5.426  13.531  0.00  0.00    +0.000 NA
ATOM     10  C   UNL     1      44.760   4.366  12.913  0.00  0.00    +0.000 A 
ATOM     11  H   UNL     1      46.336   7.232  14.432  0.00  0.00    +0.000 HD
BRANCH   4  13
ATOM     12  N   UNL     1      44.645   2.346   9.922  0.00  0.00    +0.000 N 
ATOM     13  C   UNL     1      44.067   2.992  10.980  0.00  0.00    +0.000 C 
ATOM     14  O   UNL     1      43.003   2.615  11.449  0.00  0.00    +0.000 OA
ATOM     15  H   UNL     1      44.180   1.508   9.600  0.00  0.00    +0.000 HD
ATOM     16  H   UNL     1      45.612   2.470   9.668  0.00  0.00    +0.000 HD
ENDBRANCH   4  13
ENDBRANCH   1   8
BRANCH   1  17
ATOM     17  C   UNL     1      48.901   7.627  14.063  0.00  0.00    +0.000 A 
ATOM     18  C   UNL     1      50.197   8.159  13.974  0.00  0.00    +0.000 A 
ATOM     19  C   UNL     1      51.180   7.833  14.907  0.00  0.00    +0.000 A 
ATOM     20  C   UNL     1      50.876   6.982  15.969  0.00  0.00    +0.000 A 
ATOM     21  C   UNL     1      49.594   6.429  16.114  0.00  0.00    +0.000 A 
ATOM     22  C   UNL     1      48.640   6.738  15.125  0.00  0.00    +0.000 A 
BRANCH  21  23
ATOM     23  C   UNL     1      49.225   5.642  17.306  0.00  0.00    +0.000 A 
ATOM     24  C   UNL     1      48.792   4.312  17.203  0.00  0.00    +0.000 A 
ATOM     25  C   UNL     1      48.511   3.561  18.342  0.00  0.00    +0.000 A 
ATOM     26  C   UNL     1      48.676   4.158  19.577  0.00  0.00    +0.000 A 
ATOM     27  N   UNL     1      49.081   5.434  19.739  0.00  0.00    +0.000 NA
ATOM     28  C   UNL     1      49.339   6.139  18.608  0.00  0.00    +0.000 A 
ENDBRANCH  21  23
ENDBRANCH   1  17
TORSDOF 4
ENDMDL
MODEL 8
REMARK VINA RESULT:    -6.031      3.671      6.633
REMARK INTER + INTRA:          -8.590
REMARK INTER:                  -7.462
REMARK INTRA:                  -1.128
REMARK UNBOUND:                -1.148
REMARK  Name = 
REMARK  4 active torsions:
REMARK  status: ('A' for Active; 'I' for Inactive)
REMARK    1  A    between atoms: C_2  and  C_4
REMARK    2  A    between atoms: N_8  and  C_9
REMARK    3  A    between atoms: C_9  and  C_10
REMARK    4  A    between atoms: C_14  and  C_15
REMARK                            x       y       z     vdW  Elec       q    Type
REMARK                         _______ _______ _______ _____ _____    ______ ____
ROOT
ATOM      1  C   UNL     1      49.214   8.691  12.761  0.00  0.00    +0.000 C 
ATOM      2  C   UNL     1      50.404   9.507  12.265  0.00  0.00    +0.000 C 
ATOM      3  C   UNL     1      50.361   8.036  12.016  0.00  0.00    +0.000 C 
ENDROOT
BRANCH   1   8
ATOM      4  C   UNL     1      44.667   6.511  11.512  0.00  0.00    +0.000 A 
ATOM      5  C   UNL     1      45.944   5.977  11.363  0.00  0.00    +0.000 A 
ATOM      6  C   UNL     1      47.057   6.788  11.602  0.00  0.00    +0.000 A 
ATOM      7  C   UNL     1      46.874   8.117  11.972  0.00  0.00    +0.000 A 
ATOM      8  N   UNL     1      47.931   9.022  12.113  0.00  0.00    +0.000 N 
ATOM      9  N   UNL     1      45.642   8.641  12.127  0.00  0.00    +0.000 NA
ATOM     10  C   UNL     1      44.568   7.837  11.896  0.00  0.00    +0.000 A 
ATOM     11  H   UNL     1      47.490   9.878  12.452  0.00  0.00    +0.000 HD
BRANCH   4  13
ATOM     12  N   UNL     1      42.247   6.287  11.668  0.00  0.00    +0.000 N 
ATOM     13  C   UNL     1      43.427   5.747  11.235  0.00  0.00    +0.000 C 
ATOM     14  O   UNL     1      43.455   4.686  10.628  0.00  0.00    +0.000 OA
ATOM     15  H   UNL     1      41.405   5.796  11.400  0.00  0.00    +0.000 HD
ATOM     16  H   UNL     1      42.157   7.250  11.949  0.00  0.00    +0.000 HD
ENDBRANCH   4  13
ENDBRANCH   1   8
BRANCH   1  17
ATOM     17  C   UNL     1      49.072   8.447  14.262  0.00  0.00    +0.000 A 
ATOM     18  C   UNL     1      48.631   9.454  15.135  0.00  0.00    +0.000 A 
ATOM     19  C   UNL     1      48.367   9.185  16.476  0.00  0.00    +0.000 A 
ATOM     20  C   UNL     1      48.515   7.889  16.969  0.00  0.00    +0.000 A 
ATOM     21  C   UNL     1      48.944   6.841  16.139  0.00  0.00    +0.000 A 
ATOM     22  C   UNL     1      49.251   7.158  14.802  0.00  0.00    +0.000 A 
BRANCH  21  23
ATOM     23  C   UNL     1      48.970   5.444  16.614  0.00  0.00    +0.000 A 
ATOM     24  C   UNL     1      47.833   4.625  16.549  0.00  0.00    +0.000 A 
ATOM     25  C   UNL     1      47.891   3.289  16.939  0.00  0.00    +0.000 A 
ATOM     26  C   UNL     1      49.100   2.789  17.386  0.00  0.00    +0.000 A 
ATOM     27  N   UNL     1      50.223   3.530  17.479  0.00  0.00    +0.000 NA
ATOM     28  C   UNL     1      50.129   4.829  17.098  0.00  0.00    +0.000 A 
ENDBRANCH  21  23
ENDBRANCH   1  17
TORSDOF 4
ENDMDL
