MODEL 1
REMARK VINA RESULT:    -8.543      0.000      0.000
REMARK INTER + INTRA:         -10.178
REMARK INTER:                 -10.541
REMARK INTRA:                   0.363
REMARK UNBOUND:                 0.363
REMARK  Name = 
REMARK  4 active torsions:
REMARK  status: ('A' for Active; 'I' for Inactive)
REMARK    1  A    between atoms: C_2  and  C_3
REMARK    2  A    between atoms: C_6  and  C_7
REMARK    3  A    between atoms: C_7  and  N_8
REMARK    4  A    between atoms: C_12  and  C_13
REMARK                            x       y       z     vdW  Elec       q    Type
REMARK                         _______ _______ _______ _____ _____    ______ ____
ROOT
ATOM      1  N   UNL     1      44.094   5.091   9.686  0.00  0.00    +0.000 N 
ATOM      2  C   UNL     1      44.840   4.060   9.110  0.00  0.00    +0.000 A 
ATOM      3  N   UNL     1      44.918   2.856   9.695  0.00  0.00    +0.000 NA
ATOM      4  C   UNL     1      45.652   1.906   9.071  0.00  0.00    +0.000 A 
ATOM      5  C   UNL     1      46.319   2.114   7.888  0.00  0.00    +0.000 A 
ATOM      6  C   UNL     1      46.203   3.384   7.378  0.00  0.00    +0.000 A 
ATOM      7  N   UNL     1      45.467   4.362   7.961  0.00  0.00    +0.000 NA
ATOM      8  H   UNL     1      44.346   5.940   9.200  0.00  0.00    +0.000 HD
ENDROOT
BRANCH   5   9
ATOM      9  C   UNL     1      47.104   1.030   7.285  0.00  0.00    +0.000 C 
ATOM     10  N   UNL     1      46.821  -0.254   7.651  0.00  0.00    +0.000 N 
ATOM     11  O   UNL     1      48.007   1.276   6.496  0.00  0.00    +0.000 OA
ATOM     12  H   UNL     1      46.261  -0.502   8.454  0.00  0.00    +0.000 HD
ATOM     13  H   UNL     1      47.449  -0.964   7.292  0.00  0.00    +0.000 HD
ENDBRANCH   5   9
BRANCH   1  14
ATOM     14  C   UNL     1      43.865   5.142  11.139  0.00  0.00    +0.000 C 
ATOM     15  C   UNL     1      42.520   5.575  11.699  0.00  0.00    +0.000 C 
ATOM     16  C   UNL     1      42.873   4.127  11.703  0.00  0.00    +0.000 C 
BRANCH  14  20
ATOM     17  C   UNL     1      47.313   6.059  13.648  0.00  0.00    +0.000 A 
ATOM     18  C   UNL     1      46.888   6.972  12.685  0.00  0.00    +0.000 A 
ATOM     19  C   UNL     1      45.796   6.663  11.866  0.00  0.00    +0.000 A 
ATOM     20  C   UNL     1      45.108   5.440  11.977  0.00  0.00    +0.000 A 
ATOM     21  C   UNL     1      45.590   4.520  12.924  0.00  0.00    +0.000 A 
ATOM     22  C   UNL     1      46.669   4.824  13.760  0.00  0.00    +0.000 A 
BRANCH  17  24
ATOM     23  N   UNL     1      49.269   6.646  15.248  0.00  0.00    +0.000 NA
ATOM     24  C   UNL     1      48.388   6.391  14.535  0.00  0.00    +0.000 C 
ENDBRANCH  17  24
ENDBRANCH  14  20
ENDBRANCH   1  14
TORSDOF 4
ENDMDL
MODEL 2
REMARK VINA RESULT:    -8.081      2.918      6.741
REMARK INTER + INTRA:          -9.608
REMARK INTER:                  -9.548
REMARK INTRA:                  -0.060
REMARK UNBOUND:                 0.363
REMARK  Name = 
REMARK  4 active torsions:
REMARK  status: ('A' for Active; 'I' for Inactive)
REMARK    1  A    between atoms: C_2  and  C_3
REMARK    2  A    between atoms: C_6  and  C_7
REMARK    3  A    between atoms: C_7  and  N_8
REMARK    4  A    between atoms: C_12  and  C_13
REMARK                            x       y       z     vdW  Elec       q    Type
REMARK                         _______ _______ _______ _____ _____    ______ ____
ROOT
ATOM      1  N   UNL     1      44.270   5.674  10.881  0.00  0.00    +0.000 N 
ATOM      2  C   UNL     1      45.183   6.397  11.652  0.00  0.00    +0.000 A 
ATOM      3  N   UNL     1      46.406   5.911  11.907  0.00  0.00    +0.000 NA
ATOM      4  C   UNL     1      47.237   6.676  12.652  0.00  0.00    +0.000 A 
ATOM      5  C   UNL     1      46.891   7.904  13.161  0.00  0.00    +0.000 A 
ATOM      6  C   UNL     1      45.611   8.307  12.870  0.00  0.00    +0.000 A 
ATOM      7  N   UNL     1      44.750   7.582  12.115  0.00  0.00    +0.000 NA
ATOM      8  H   UNL     1      43.372   6.123  10.997  0.00  0.00    +0.000 HD
ENDROOT
BRANCH   5   9
ATOM      9  C   UNL     1      47.852   8.662  13.973  0.00  0.00    +0.000 C 
ATOM     10  N   UNL     1      47.428   9.173  15.165  0.00  0.00    +0.000 N 
ATOM     11  O   UNL     1      48.994   8.851  13.576  0.00  0.00    +0.000 OA
ATOM     12  H   UNL     1      46.457   9.252  15.434  0.00  0.00    +0.000 HD
ATOM     13  H   UNL     1      48.088   9.774  15.647  0.00  0.00    +0.000 HD
ENDBRANCH   5   9
BRANCH   1  14
ATOM     14  C   UNL     1      44.331   4.206  10.811  0.00  0.00    +0.000 C 
ATOM     15  C   UNL     1      44.330   3.365  12.078  0.00  0.00    +0.000 C 
ATOM     16  C   UNL     1      43.082   3.455  11.267  0.00  0.00    +0.000 C 
BRANCH  14  20
ATOM     17  C   UNL     1      46.589   2.623   7.431  0.00  0.00    +0.000 A 
ATOM     18  C   UNL     1      46.375   3.996   7.547  0.00  0.00    +0.000 A 
ATOM     19  C   UNL     1      45.629   4.496   8.620  0.00  0.00    +0.000 A 
ATOM     20  C   UNL     1      45.073   3.649   9.596  0.00  0.00    +0.000 A 
ATOM     21  C   UNL     1      45.264   2.267   9.425  0.00  0.00    +0.000 A 
ATOM     22  C   UNL     1      46.022   1.755   8.368  0.00  0.00    +0.000 A 
BRANCH  17  24
ATOM     23  N   UNL     1      48.081   1.696   5.522  0.00  0.00    +0.000 NA
ATOM     24  C   UNL     1      47.405   2.106   6.373  0.00  0.00    +0.000 C 
ENDBRANCH  17  24
ENDBRANCH  14  20
ENDBRANCH   1  14
TORSDOF 4
ENDMDL
MODEL 3
REMARK VINA RESULT:    -7.553      3.056      6.549
REMARK INTER + INTRA:          -8.956
REMARK INTER:                  -8.633
REMARK INTRA:                  -0.323
REMARK UNBOUND:                 0.363
REMARK  Name = 
REMARK  4 active torsions:
REMARK  status: ('A' for Active; 'I' for Inactive)
REMARK    1  A    between atoms: C_2  and  C_3
REMARK    2  A    between atoms: C_6  and  C_7
REMARK    3  A    between atoms: C_7  and  N_8
REMARK    4  A    between atoms: C_12  and  C_13
REMARK                            x       y       z     vdW  Elec       q    Type
REMARK                         _______ _______ _______ _____ _____    ______ ____
ROOT
ATOM      1  N   UNL     1      45.519   5.529  11.824  0.00  0.00    +0.000 N 
ATOM      2  C   UNL     1      46.113   5.011  12.976  0.00  0.00    +0.000 A 
ATOM      3  N   UNL     1      46.255   3.688  13.144  0.00  0.00    +0.000 NA
ATOM      4  C   UNL     1      46.851   3.265  14.283  0.00  0.00    +0.000 A 
ATOM      5  C   UNL     1      47.304   4.111  15.265  0.00  0.00    +0.000 A 
ATOM      6  C   UNL     1      47.093   5.446  15.017  0.00  0.00    +0.000 A 
ATOM      7  N   UNL     1      46.515   5.916  13.886  0.00  0.00    +0.000 NA
ATOM      8  H   UNL     1      45.332   6.505  12.006  0.00  0.00    +0.000 HD
ENDROOT
BRANCH   5   9
ATOM      9  C   UNL     1      47.928   3.565  16.477  0.00  0.00    +0.000 C 
ATOM     10  N   UNL     1      47.118   3.017  17.430  0.00  0.00    +0.000 N 
ATOM     11  O   UNL     1      49.140   3.625  16.638  0.00  0.00    +0.000 OA
ATOM     12  H   UNL     1      46.117   3.146  17.463  0.00  0.00    +0.000 HD
ATOM     13  H   UNL     1      47.575   2.744  18.293  0.00  0.00    +0.000 HD
ENDBRANCH   5   9
BRANCH   1  14
ATOM     14  C   UNL     1      44.536   4.744  11.059  0.00  0.00    +0.000 C 
ATOM     15  C   UNL     1      43.321   4.139  11.744  0.00  0.00    +0.000 C 
ATOM     16  C   UNL     1      43.147   5.362  10.909  0.00  0.00    +0.000 C 
BRANCH  14  20
ATOM     17  C   UNL     1      46.301   2.625   7.680  0.00  0.00    +0.000 A 
ATOM     18  C   UNL     1      46.325   4.018   7.720  0.00  0.00    +0.000 A 
ATOM     19  C   UNL     1      45.736   4.693   8.795  0.00  0.00    +0.000 A 
ATOM     20  C   UNL     1      45.103   4.006   9.847  0.00  0.00    +0.000 A 
ATOM     21  C   UNL     1      45.052   2.605   9.753  0.00  0.00    +0.000 A 
ATOM     22  C   UNL     1      45.652   1.917   8.695  0.00  0.00    +0.000 A 
BRANCH  17  24
ATOM     23  N   UNL     1      47.496   1.366   5.752  0.00  0.00    +0.000 NA
ATOM     24  C   UNL     1      46.957   1.921   6.618  0.00  0.00    +0.000 C 
ENDBRANCH  17  24
ENDBRANCH  14  20
ENDBRANCH   1  14
TORSDOF 4
ENDMDL
MODEL 4
REMARK VINA RESULT:    -7.089      3.269      6.751
REMARK INTER + INTRA:          -8.384
REMARK INTER:                  -8.860
REMARK INTRA:                   0.476
REMARK UNBOUND:                 0.363
REMARK  Name = 
REMARK  4 active torsions:
REMARK  status: ('A' for Active; 'I' for Inactive)
REMARK    1  A    between atoms: C_2  and  C_3
REMARK    2  A    between atoms: C_6  and  C_7
REMARK    3  A    between atoms: C_7  and  N_8
REMARK    4  A    between atoms: C_12  and  C_13
REMARK                            x       y       z     vdW  Elec       q    Type
REMARK                         _______ _______ _______ _____ _____    ______ ____
ROOT
ATOM      1  N   UNL     1      45.389   4.425  12.251  0.00  0.00    +0.000 N 
ATOM      2  C   UNL     1      45.583   5.807  12.213  0.00  0.00    +0.000 A 
ATOM      3  N   UNL     1      44.625   6.626  11.753  0.00  0.00    +0.000 NA
ATOM      4  C   UNL     1      44.885   7.954  11.758  0.00  0.00    +0.000 A 
ATOM      5  C   UNL     1      46.069   8.497  12.196  0.00  0.00    +0.000 A 
ATOM      6  C   UNL     1      46.998   7.580  12.623  0.00  0.00    +0.000 A 
ATOM      7  N   UNL     1      46.777   6.243  12.650  0.00  0.00    +0.000 NA
ATOM      8  H   UNL     1      46.292   4.008  12.426  0.00  0.00    +0.000 HD
ENDROOT
BRANCH   5   9
ATOM      9  C   UNL     1      46.272   9.950  12.153  0.00  0.00    +0.000 C 
ATOM     10  N   UNL     1      45.172  10.757  12.168  0.00  0.00    +0.000 N 
ATOM     11  O   UNL     1      47.400  10.422  12.081  0.00  0.00    +0.000 OA
ATOM     12  H   UNL     1      44.231  10.433  11.993  0.00  0.00    +0.000 HD
ATOM     13  H   UNL     1      45.349  11.746  12.035  0.00  0.00    +0.000 HD
ENDBRANCH   5   9
BRANCH   1  14
ATOM     14  C   UNL     1      44.467   3.762  11.314  0.00  0.00    +0.000 C 
ATOM     15  C   UNL     1      43.395   2.810  11.819  0.00  0.00    +0.000 C 
ATOM     16  C   UNL     1      43.002   4.185  11.394  0.00  0.00    +0.000 C 
BRANCH  14  20
ATOM     17  C   UNL     1      46.257   3.020   7.405  0.00  0.00    +0.000 A 
ATOM     18  C   UNL     1      46.013   4.327   7.825  0.00  0.00    +0.000 A 
ATOM     19  C   UNL     1      45.416   4.558   9.069  0.00  0.00    +0.000 A 
ATOM     20  C   UNL     1      45.041   3.503   9.921  0.00  0.00    +0.000 A 
ATOM     21  C   UNL     1      45.255   2.196   9.449  0.00  0.00    +0.000 A 
ATOM     22  C   UNL     1      45.866   1.951   8.216  0.00  0.00    +0.000 A 
BRANCH  17  24
ATOM     23  N   UNL     1      47.459   2.557   5.154  0.00  0.00    +0.000 NA
ATOM     24  C   UNL     1      46.926   2.773   6.163  0.00  0.00    +0.000 C 
ENDBRANCH  17  24
ENDBRANCH  14  20
ENDBRANCH   1  14
TORSDOF 4
ENDMDL
MODEL 5
REMARK VINA RESULT:    -6.880      2.949      6.449
REMARK INTER + INTRA:          -8.126
REMARK INTER:                  -8.559
REMARK INTRA:                   0.433
REMARK UNBOUND:                 0.363
REMARK  Name = 
REMARK  4 active torsions:
REMARK  status: ('A' for Active; 'I' for Inactive)
REMARK    1  A    between atoms: C_2  and  C_3
REMARK    2  A    between atoms: C_6  and  C_7
REMARK    3  A    between atoms: C_7  and  N_8
REMARK    4  A    between atoms: C_12  and  C_13
REMARK                            x       y       z     vdW  Elec       q    Type
REMARK                         _______ _______ _______ _____ _____    ______ ____
ROOT
ATOM      1  N   UNL     1      44.369   4.569  12.850  0.00  0.00    +0.000 N 
ATOM      2  C   UNL     1      45.562   5.183  13.236  0.00  0.00    +0.000 A 
ATOM      3  N   UNL     1      45.923   6.370  12.725  0.00  0.00    +0.000 NA
ATOM      4  C   UNL     1      47.088   6.905  13.156  0.00  0.00    +0.000 A 
ATOM      5  C   UNL     1      47.913   6.298  14.072  0.00  0.00    +0.000 A 
ATOM      6  C   UNL     1      47.474   5.076  14.519  0.00  0.00    +0.000 A 
ATOM      7  N   UNL     1      46.308   4.508  14.127  0.00  0.00    +0.000 NA
ATOM      8  H   UNL     1      44.408   3.618  13.189  0.00  0.00    +0.000 HD
ENDROOT
BRANCH   5   9
ATOM      9  C   UNL     1      49.168   6.944  14.475  0.00  0.00    +0.000 C 
ATOM     10  N   UNL     1      50.048   7.312  13.498  0.00  0.00    +0.000 N 
ATOM     11  O   UNL     1      49.428   7.124  15.658  0.00  0.00    +0.000 OA
ATOM     12  H   UNL     1      50.000   6.987  12.543  0.00  0.00    +0.000 HD
ATOM     13  H   UNL     1      50.944   7.661  13.820  0.00  0.00    +0.000 HD
ENDBRANCH   5   9
BRANCH   1  14
ATOM     14  C   UNL     1      43.771   4.833  11.532  0.00  0.00    +0.000 C 
ATOM     15  C   UNL     1      42.287   5.135  11.397  0.00  0.00    +0.000 C 
ATOM     16  C   UNL     1      43.267   6.254  11.290  0.00  0.00    +0.000 C 
BRANCH  14  20
ATOM     17  C   UNL     1      45.861   2.800   8.287  0.00  0.00    +0.000 A 
ATOM     18  C   UNL     1      45.944   4.186   8.412  0.00  0.00    +0.000 A 
ATOM     19  C   UNL     1      45.252   4.835   9.439  0.00  0.00    +0.000 A 
ATOM     20  C   UNL     1      44.457   4.129  10.361  0.00  0.00    +0.000 A 
ATOM     21  C   UNL     1      44.354   2.739  10.180  0.00  0.00    +0.000 A 
ATOM     22  C   UNL     1      45.054   2.076   9.169  0.00  0.00    +0.000 A 
BRANCH  17  24
ATOM     23  N   UNL     1      47.239   1.556   6.475  0.00  0.00    +0.000 NA
ATOM     24  C   UNL     1      46.617   2.118   7.279  0.00  0.00    +0.000 C 
ENDBRANCH  17  24
ENDBRANCH  14  20
ENDBRANCH   1  14
TORSDOF 4
ENDMDL
MODEL 6
REMARK VINA RESULT:    -6.770      1.634      2.351
REMARK INTER + INTRA:          -7.990
REMARK INTER:                  -7.650
REMARK INTRA:                  -0.340
REMARK UNBOUND:                 0.363
REMARK  Name = 
REMARK  4 active torsions:
REMARK  status: ('A' for Active; 'I' for Inactive)
REMARK    1  A    between atoms: C_2  and  C_3
REMARK    2  A    between atoms: C_6  and  C_7
REMARK    3  A    between atoms: C_7  and  N_8
REMARK    4  A    between atoms: C_12  and  C_13
REMARK                            x       y       z     vdW  Elec       q    Type
REMARK                         _______ _______ _______ _____ _____    ______ ____
ROOT
ATOM      1  N   UNL     1      44.432   3.784  11.585  0.00  0.00    +0.000 N 
ATOM      2  C   UNL     1      44.969   3.543  10.319  0.00  0.00    +0.000 A 
ATOM      3  N   UNL     1      45.529   4.533   9.609  0.00  0.00    +0.000 NA
ATOM      4  C   UNL     1      46.038   4.219   8.395  0.00  0.00    +0.000 A 
ATOM      5  C   UNL     1      46.001   2.955   7.858  0.00  0.00    +0.000 A 
ATOM      6  C   UNL     1      45.386   2.013   8.646  0.00  0.00    +0.000 A 
ATOM      7  N   UNL     1      44.876   2.279   9.874  0.00  0.00    +0.000 NA
ATOM      8  H   UNL     1      43.892   2.966  11.833  0.00  0.00    +0.000 HD
ENDROOT
BRANCH   5   9
ATOM      9  C   UNL     1      46.566   2.704   6.526  0.00  0.00    +0.000 C 
ATOM     10  N   UNL     1      46.775   3.772   5.702  0.00  0.00    +0.000 N 
ATOM     11  O   UNL     1      46.816   1.564   6.157  0.00  0.00    +0.000 OA
ATOM     12  H   UNL     1      46.381   4.689   5.854  0.00  0.00    +0.000 HD
ATOM     13  H   UNL     1      47.069   3.549   4.758  0.00  0.00    +0.000 HD
ENDBRANCH   5   9
BRANCH   1  14
ATOM     14  C   UNL     1      43.922   5.114  11.953  0.00  0.00    +0.000 C 
ATOM     15  C   UNL     1      42.607   5.627  11.389  0.00  0.00    +0.000 C 
ATOM     16  C   UNL     1      42.650   5.141  12.798  0.00  0.00    +0.000 C 
BRANCH  14  20
ATOM     17  C   UNL     1      47.073   8.023  12.755  0.00  0.00    +0.000 A 
ATOM     18  C   UNL     1      47.168   6.731  13.269  0.00  0.00    +0.000 A 
ATOM     19  C   UNL     1      46.143   5.809  13.029  0.00  0.00    +0.000 A 
ATOM     20  C   UNL     1      44.998   6.148  12.283  0.00  0.00    +0.000 A 
ATOM     21  C   UNL     1      44.908   7.472  11.820  0.00  0.00    +0.000 A 
ATOM     22  C   UNL     1      45.933   8.398  12.037  0.00  0.00    +0.000 A 
BRANCH  17  24
ATOM     23  N   UNL     1      49.003   9.725  13.083  0.00  0.00    +0.000 NA
ATOM     24  C   UNL     1      48.145   8.955  12.938  0.00  0.00    +0.000 C 
ENDBRANCH  17  24
ENDBRANCH  14  20
ENDBRANCH   1  14
TORSDOF 4
ENDMDL
MODEL 7
REMARK VINA RESULT:    -6.614      4.616      6.900
REMARK INTER + INTRA:          -7.798
REMARK INTER:                  -7.769
REMARK INTRA:                  -0.029
REMARK UNBOUND:                 0.363
REMARK  Name = 
REMARK  4 active torsions:
REMARK  status: ('A' for Active; 'I' for Inactive)
REMARK    1  A    between atoms: C_2  and  C_3
REMARK    2  A    between atoms: C_6  and  C_7
REMARK    3  A    between atoms: C_7  and  N_8
REMARK    4  A    between atoms: C_12  and  C_13
REMARK                            x       y       z     vdW  Elec       q    Type
REMARK                         _______ _______ _______ _____ _____    ______ ____
ROOT
ATOM      1  N   UNL     1      47.629   2.855  15.304  0.00  0.00    +0.000 N 
ATOM      2  C   UNL     1      47.157   3.787  14.378  0.00  0.00    +0.000 A 
ATOM      3  N   UNL     1      47.498   5.081  14.468  0.00  0.00    +0.000 NA
ATOM      4  C   UNL     1      47.009   5.921  13.527  0.00  0.00    +0.000 A 
ATOM      5  C   UNL     1      46.185   5.521  12.503  0.00  0.00    +0.000 A 
ATOM      6  C   UNL     1      45.869   4.184  12.508  0.00  0.00    +0.000 A 
ATOM      7  N   UNL     1      46.347   3.304  13.420  0.00  0.00    +0.000 NA
ATOM      8  H   UNL     1      47.089   2.011  15.169  0.00  0.00    +0.000 HD
ENDROOT
BRANCH   5   9
ATOM      9  C   UNL     1      45.688   6.504  11.532  0.00  0.00    +0.000 C 
ATOM     10  N   UNL     1      45.272   6.053  10.312  0.00  0.00    +0.000 N 
ATOM     11  O   UNL     1      45.673   7.698  11.801  0.00  0.00    +0.000 OA
ATOM     12  H   UNL     1      45.474   5.131   9.952  0.00  0.00    +0.000 HD
ATOM     13  H   UNL     1      45.032   6.769   9.636  0.00  0.00    +0.000 HD
ENDBRANCH   5   9
BRANCH   1  14
ATOM     14  C   UNL     1      47.992   3.259  16.671  0.00  0.00    +0.000 C 
ATOM     15  C   UNL     1      47.213   4.346  17.394  0.00  0.00    +0.000 C 
ATOM     16  C   UNL     1      46.983   2.920  17.767  0.00  0.00    +0.000 C 
BRANCH  14  20
ATOM     17  C   UNL     1      52.175   2.787  17.817  0.00  0.00    +0.000 A 
ATOM     18  C   UNL     1      51.584   4.049  17.834  0.00  0.00    +0.000 A 
ATOM     19  C   UNL     1      50.249   4.199  17.443  0.00  0.00    +0.000 A 
ATOM     20  C   UNL     1      49.473   3.105  17.018  0.00  0.00    +0.000 A 
ATOM     21  C   UNL     1      50.110   1.853  16.964  0.00  0.00    +0.000 A 
ATOM     22  C   UNL     1      51.438   1.687  17.369  0.00  0.00    +0.000 A 
BRANCH  17  24
ATOM     23  N   UNL     1      54.617   2.473  18.633  0.00  0.00    +0.000 NA
ATOM     24  C   UNL     1      53.520   2.611  18.277  0.00  0.00    +0.000 C 
ENDBRANCH  17  24
ENDBRANCH  14  20
ENDBRANCH   1  14
TORSDOF 4
ENDMDL
MODEL 8
REMARK VINA RESULT:    -5.956      3.386      5.128
REMARK INTER + INTRA:          -6.986
REMARK INTER:                  -6.651
REMARK INTRA:                  -0.335
REMARK UNBOUND:                 0.363
REMARK  Name = 
REMARK  4 active torsions:
REMARK  status: ('A' for Active; 'I' for Inactive)
REMARK    1  A    between atoms: C_2  and  C_3
REMARK    2  A    between atoms: C_6  and  C_7
REMARK    3  A    between atoms: C_7  and  N_8
REMARK    4  A    between atoms: C_12  and  C_13
REMARK                            x       y       z     vdW  Elec       q    Type
REMARK                         _______ _______ _______ _____ _____    ______ ____
ROOT
ATOM      1  N   UNL     1      46.516   8.115  12.499  0.00  0.00    +0.000 N 
ATOM      2  C   UNL     1      45.889   6.890  12.263  0.00  0.00    +0.000 A 
ATOM      3  N   UNL     1      46.422   5.745  12.713  0.00  0.00    +0.000 NA
ATOM      4  C   UNL     1      45.749   4.600  12.454  0.00  0.00    +0.000 A 
ATOM      5  C   UNL     1      44.568   4.553  11.754  0.00  0.00    +0.000 A 
ATOM      6  C   UNL     1      44.113   5.771  11.310  0.00  0.00    +0.000 A 
ATOM      7  N   UNL     1      44.745   6.943  11.559  0.00  0.00    +0.000 NA
ATOM      8  H   UNL     1      46.063   8.794  11.904  0.00  0.00    +0.000 HD
ENDROOT
BRANCH   5   9
ATOM      9  C   UNL     1      43.911   3.264  11.505  0.00  0.00    +0.000 C 
ATOM     10  N   UNL     1      43.726   2.418  12.560  0.00  0.00    +0.000 N 
ATOM     11  O   UNL     1      43.562   2.947  10.375  0.00  0.00    +0.000 OA
ATOM     12  H   UNL     1      44.190   2.518  13.452  0.00  0.00    +0.000 HD
ATOM     13  H   UNL     1      43.363   1.500  12.332  0.00  0.00    +0.000 HD
ENDBRANCH   5   9
BRANCH   1  14
ATOM     14  C   UNL     1      47.973   8.197  12.694  0.00  0.00    +0.000 C 
ATOM     15  C   UNL     1      48.931   7.696  11.626  0.00  0.00    +0.000 C 
ATOM     16  C   UNL     1      48.724   9.165  11.783  0.00  0.00    +0.000 C 
BRANCH  14  20
ATOM     17  C   UNL     1      49.149   7.870  16.883  0.00  0.00    +0.000 A 
ATOM     18  C   UNL     1      48.418   8.975  16.446  0.00  0.00    +0.000 A 
ATOM     19  C   UNL     1      48.065   9.086  15.097  0.00  0.00    +0.000 A 
ATOM     20  C   UNL     1      48.433   8.113  14.150  0.00  0.00    +0.000 A 
ATOM     21  C   UNL     1      49.211   7.037  14.611  0.00  0.00    +0.000 A 
ATOM     22  C   UNL     1      49.556   6.904  15.959  0.00  0.00    +0.000 A 
BRANCH  17  24
ATOM     23  N   UNL     1      49.707   7.568  19.398  0.00  0.00    +0.000 NA
ATOM     24  C   UNL     1      49.461   7.713  18.272  0.00  0.00    +0.000 C 
ENDBRANCH  17  24
ENDBRANCH  14  20
ENDBRANCH   1  14
TORSDOF 4
ENDMDL
MODEL 9
REMARK VINA RESULT:    -5.955      3.845      5.597
REMARK INTER + INTRA:          -6.984
REMARK INTER:                  -6.762
REMARK INTRA:                  -0.222
REMARK UNBOUND:                 0.363
REMARK  Name = 
REMARK  4 active torsions:
REMARK  status: ('A' for Active; 'I' for Inactive)
REMARK    1  A    between atoms: C_2  and  C_3
REMARK    2  A    between atoms: C_6  and  C_7
REMARK    3  A    between atoms: C_7  and  N_8
REMARK    4  A    between atoms: C_12  and  C_13
REMARK                            x       y       z     vdW  Elec       q    Type
REMARK                         _______ _______ _______ _____ _____    ______ ____
ROOT
ATOM      1  N   UNL     1      47.817   6.555  13.441  0.00  0.00    +0.000 N 
ATOM      2  C   UNL     1      46.897   5.904  12.618  0.00  0.00    +0.000 A 
ATOM      3  N   UNL     1      46.572   6.404  11.417  0.00  0.00    +0.000 NA
ATOM      4  C   UNL     1      45.680   5.709  10.674  0.00  0.00    +0.000 A 
ATOM      5  C   UNL     1      45.092   4.538  11.087  0.00  0.00    +0.000 A 
ATOM      6  C   UNL     1      45.466   4.118  12.340  0.00  0.00    +0.000 A 
ATOM      7  N   UNL     1      46.366   4.772  13.113  0.00  0.00    +0.000 NA
ATOM      8  H   UNL     1      47.747   6.127  14.353  0.00  0.00    +0.000 HD
ENDROOT
BRANCH   5   9
ATOM      9  C   UNL     1      44.122   3.855  10.221  0.00  0.00    +0.000 C 
ATOM     10  N   UNL     1      43.962   4.312   8.945  0.00  0.00    +0.000 N 
ATOM     11  O   UNL     1      43.457   2.918  10.644  0.00  0.00    +0.000 OA
ATOM     12  H   UNL     1      44.300   5.205   8.618  0.00  0.00    +0.000 HD
ATOM     13  H   UNL     1      43.214   3.881   8.413  0.00  0.00    +0.000 HD
ENDBRANCH   5   9
BRANCH   1  14
ATOM     14  C   UNL     1      48.021   8.010  13.350  0.00  0.00    +0.000 C 
ATOM     15  C   UNL     1      46.868   8.973  13.580  0.00  0.00    +0.000 C 
ATOM     16  C   UNL     1      47.888   8.794  14.653  0.00  0.00    +0.000 C 
BRANCH  14  20
ATOM     17  C   UNL     1      51.260   9.296  10.726  0.00  0.00    +0.000 A 
ATOM     18  C   UNL     1      50.262  10.196  11.096  0.00  0.00    +0.000 A 
ATOM     19  C   UNL     1      49.212   9.772  11.918  0.00  0.00    +0.000 A 
ATOM     20  C   UNL     1      49.123   8.447  12.385  0.00  0.00    +0.000 A 
ATOM     21  C   UNL     1      50.117   7.551  11.955  0.00  0.00    +0.000 A 
ATOM     22  C   UNL     1      51.181   7.966  11.148  0.00  0.00    +0.000 A 
BRANCH  17  24
ATOM     23  N   UNL     1      53.273  10.108   9.305  0.00  0.00    +0.000 NA
ATOM     24  C   UNL     1      52.374   9.735   9.939  0.00  0.00    +0.000 C 
ENDBRANCH  17  24
ENDBRANCH  14  20
ENDBRANCH   1  14
TORSDOF 4
ENDMDL
