MODEL 1
REMARK VINA RESULT:    -7.496      0.000      0.000
REMARK INTER + INTRA:         -11.760
REMARK INTER:                 -10.563
REMARK INTRA:                  -1.197
REMARK UNBOUND:                -1.197
REMARK  Name = 
REMARK  9 active torsions:
REMARK  status: ('A' for Active; 'I' for Inactive)
REMARK    1  A    between atoms: C_1  and  O_2
REMARK    2  A    between atoms: O_2  and  C_3
REMARK    3  A    between atoms: C_8  and  C_9
REMARK    4  A    between atoms: N_11  and  C_12
REMARK    5  A    between atoms: C_12  and  C_13
REMARK    6  A    between atoms: C_16  and  C_17
REMARK    7  A    between atoms: C_17  and  N_18
REMARK    8  A    between atoms: C_19  and  C_21
REMARK    9  A    between atoms: N_27  and  C_28
REMARK                            x       y       z     vdW  Elec       q    Type
REMARK                         _______ _______ _______ _____ _____    ______ ____
ROOT
ATOM      1  C   UNL     1      50.186   7.427  15.378  0.00  0.00    +0.000 A 
ATOM      2  C   UNL     1      49.009   6.665  15.378  0.00  0.00    +0.000 A 
ATOM      3  C   UNL     1      48.088   6.772  14.328  0.00  0.00    +0.000 A 
ATOM      4  C   UNL     1      48.337   7.620  13.239  0.00  0.00    +0.000 A 
ATOM      5  C   UNL     1      49.501   8.400  13.255  0.00  0.00    +0.000 A 
ATOM      6  C   UNL     1      50.421   8.295  14.305  0.00  0.00    +0.000 A 
ENDROOT
BRANCH   1   7
ATOM      7  C   UNL     1      51.193   7.292  16.493  0.00  0.00    +0.000 C 
BRANCH   7  10
ATOM      8  C   UNL     1      51.278   5.145  17.698  0.00  0.00    +0.000 C 
ATOM      9  O   UNL     1      50.566   5.574  18.603  0.00  0.00    +0.000 OA
ATOM     10  N   UNL     1      51.654   5.934  16.636  0.00  0.00    +0.000 N 
ATOM     11  H   UNL     1      52.250   5.533  15.920  0.00  0.00    +0.000 HD
BRANCH   8  17
ATOM     12  C   UNL     1      50.965   2.613  17.272  0.00  0.00    +0.000 A 
ATOM     13  C   UNL     1      51.472   1.315  17.440  0.00  0.00    +0.000 A 
ATOM     14  C   UNL     1      52.736   1.100  17.994  0.00  0.00    +0.000 A 
ATOM     15  C   UNL     1      53.520   2.181  18.375  0.00  0.00    +0.000 A 
ATOM     16  C   UNL     1      53.022   3.477  18.236  0.00  0.00    +0.000 A 
ATOM     17  C   UNL     1      51.737   3.711  17.708  0.00  0.00    +0.000 A 
BRANCH  12  19
ATOM     18  C   UNL     1      48.594   2.798  17.540  0.00  0.00    +0.000 C 
ATOM     19  O   UNL     1      49.742   2.868  16.701  0.00  0.00    +0.000 OA
ENDBRANCH  12  19
ENDBRANCH   8  17
ENDBRANCH   7  10
ENDBRANCH   1   7
BRANCH   4  20
ATOM     20  C   UNL     1      47.374   7.705  12.077  0.00  0.00    +0.000 C 
BRANCH  20  21
ATOM     21  N   UNL     1      46.652   6.477  11.896  0.00  0.00    +0.000 N 
ATOM     22  C   UNL     1      45.309   6.449  11.599  0.00  0.00    +0.000 C 
ATOM     23  O   UNL     1      44.616   7.464  11.588  0.00  0.00    +0.000 OA
ATOM     24  H   UNL     1      47.213   5.670  11.652  0.00  0.00    +0.000 HD
BRANCH  22  25
ATOM     25  C   UNL     1      44.738   5.122  11.336  0.00  0.00    +0.000 A 
ATOM     26  C   UNL     1      43.895   4.520  12.260  0.00  0.00    +0.000 A 
ATOM     27  S   UNL     1      43.346   2.974  11.775  0.00  0.00    +0.000 S 
ATOM     28  C   UNL     1      44.187   3.080  10.302  0.00  0.00    +0.000 A 
ATOM     29  N   UNL     1      44.118   2.080   9.379  0.00  0.00    +0.000 NA
ATOM     30  C   UNL     1      44.791   2.304   8.297  0.00  0.00    +0.000 A 
ATOM     31  N   UNL     1      45.543   3.428   8.041  0.00  0.00    +0.000 N 
ATOM     32  C   UNL     1      46.287   3.575   6.806  0.00  0.00    +0.000 C 
ATOM     33  C   UNL     1      45.652   4.457   8.967  0.00  0.00    +0.000 A 
ATOM     34  O   UNL     1      46.351   5.446   8.773  0.00  0.00    +0.000 OA
ATOM     35  C   UNL     1      44.896   4.255  10.191  0.00  0.00    +0.000 A 
ENDBRANCH  22  25
ENDBRANCH  20  21
ENDBRANCH   4  20
TORSDOF 7
ENDMDL
MODEL 2
REMARK VINA RESULT:    -7.365      3.352      5.596
REMARK INTER + INTRA:         -11.576
REMARK INTER:                 -10.375
REMARK INTRA:                  -1.201
REMARK UNBOUND:                -1.197
REMARK  Name = 
REMARK  9 active torsions:
REMARK  status: ('A' for Active; 'I' for Inactive)
REMARK    1  A    between atoms: C_1  and  O_2
REMARK    2  A    between atoms: O_2  and  C_3
REMARK    3  A    between atoms: C_8  and  C_9
REMARK    4  A    between atoms: N_11  and  C_12
REMARK    5  A    between atoms: C_12  and  C_13
REMARK    6  A    between atoms: C_16  and  C_17
REMARK    7  A    between atoms: C_17  and  N_18
REMARK    8  A    between atoms: C_19  and  C_21
REMARK    9  A    between atoms: N_27  and  C_28
REMARK                            x       y       z     vdW  Elec       q    Type
REMARK                         _______ _______ _______ _____ _____    ______ ____
ROOT
ATOM      1  C   UNL     1      51.426   2.743  17.868  0.00  0.00    +0.000 A 
ATOM      2  C   UNL     1      50.662   1.845  17.110  0.00  0.00    +0.000 A 
ATOM      3  C   UNL     1      49.318   2.114  16.821  0.00  0.00    +0.000 A 
ATOM      4  C   UNL     1      48.714   3.301  17.259  0.00  0.00    +0.000 A 
ATOM      5  C   UNL     1      49.472   4.185  18.039  0.00  0.00    +0.000 A 
ATOM      6  C   UNL     1      50.815   3.916  18.329  0.00  0.00    +0.000 A 
ENDROOT
BRANCH   1   7
ATOM      7  C   UNL     1      52.881   2.470  18.155  0.00  0.00    +0.000 C 
BRANCH   7  10
ATOM      8  C   UNL     1      54.357   0.640  17.423  0.00  0.00    +0.000 C 
ATOM      9  O   UNL     1      55.162   1.427  16.928  0.00  0.00    +0.000 OA
ATOM     10  N   UNL     1      53.198   1.069  18.023  0.00  0.00    +0.000 N 
ATOM     11  H   UNL     1      52.564   0.378  18.408  0.00  0.00    +0.000 HD
BRANCH   8  17
ATOM     12  C   UNL     1      54.732  -1.648  18.570  0.00  0.00    +0.000 A 
ATOM     13  C   UNL     1      55.114  -2.992  18.431  0.00  0.00    +0.000 A 
ATOM     14  C   UNL     1      55.368  -3.543  17.173  0.00  0.00    +0.000 A 
ATOM     15  C   UNL     1      55.228  -2.763  16.032  0.00  0.00    +0.000 A 
ATOM     16  C   UNL     1      54.872  -1.420  16.155  0.00  0.00    +0.000 A 
ATOM     17  C   UNL     1      54.643  -0.839  17.418  0.00  0.00    +0.000 A 
BRANCH  12  19
ATOM     18  C   UNL     1      55.531  -0.765  20.647  0.00  0.00    +0.000 C 
ATOM     19  O   UNL     1      54.441  -1.078  19.786  0.00  0.00    +0.000 OA
ENDBRANCH  12  19
ENDBRANCH   8  17
ENDBRANCH   7  10
ENDBRANCH   1   7
BRANCH   4  20
ATOM     20  C   UNL     1      47.279   3.624  16.911  0.00  0.00    +0.000 C 
BRANCH  20  21
ATOM     21  N   UNL     1      47.193   4.660  15.920  0.00  0.00    +0.000 N 
ATOM     22  C   UNL     1      47.172   4.389  14.572  0.00  0.00    +0.000 C 
ATOM     23  O   UNL     1      47.345   3.257  14.125  0.00  0.00    +0.000 OA
ATOM     24  H   UNL     1      46.806   5.540  16.238  0.00  0.00    +0.000 HD
BRANCH  22  25
ATOM     25  C   UNL     1      46.971   5.544  13.689  0.00  0.00    +0.000 A 
ATOM     26  C   UNL     1      47.999   6.452  13.468  0.00  0.00    +0.000 A 
ATOM     27  S   UNL     1      47.564   7.733  12.421  0.00  0.00    +0.000 S 
ATOM     28  C   UNL     1      46.004   7.093  12.203  0.00  0.00    +0.000 A 
ATOM     29  N   UNL     1      45.105   7.700  11.379  0.00  0.00    +0.000 NA
ATOM     30  C   UNL     1      43.966   7.092  11.291  0.00  0.00    +0.000 A 
ATOM     31  N   UNL     1      43.622   5.938  11.957  0.00  0.00    +0.000 N 
ATOM     32  C   UNL     1      42.306   5.346  11.816  0.00  0.00    +0.000 C 
ATOM     33  C   UNL     1      44.507   5.304  12.820  0.00  0.00    +0.000 A 
ATOM     34  O   UNL     1      44.202   4.299  13.454  0.00  0.00    +0.000 OA
ATOM     35  C   UNL     1      45.807   5.944  12.934  0.00  0.00    +0.000 A 
ENDBRANCH  22  25
ENDBRANCH  20  21
ENDBRANCH   4  20
TORSDOF 7
ENDMDL
MODEL 3
REMARK VINA RESULT:    -7.064      2.985      9.794
REMARK INTER + INTRA:         -11.151
REMARK INTER:                 -10.214
REMARK INTRA:                  -0.937
REMARK UNBOUND:                -1.197
REMARK  Name = 
REMARK  9 active torsions:
REMARK  status: ('A' for Active; 'I' for Inactive)
REMARK    1  A    between atoms: C_1  and  O_2
REMARK    2  A    between atoms: O_2  and  C_3
REMARK    3  A    between atoms: C_8  and  C_9
REMARK    4  A    between atoms: N_11  and  C_12
REMARK    5  A    between atoms: C_12  and  C_13
REMARK    6  A    between atoms: C_16  and  C_17
REMARK    7  A    between atoms: C_17  and  N_18
REMARK    8  A    between atoms: C_19  and  C_21
REMARK    9  A    between atoms: N_27  and  C_28
REMARK                            x       y       z     vdW  Elec       q    Type
REMARK                         _______ _______ _______ _____ _____    ______ ____
ROOT
ATOM      1  C   UNL     1      47.646   5.719  14.737  0.00  0.00    +0.000 A 
ATOM      2  C   UNL     1      48.556   6.265  15.652  0.00  0.00    +0.000 A 
ATOM      3  C   UNL     1      48.851   5.602  16.851  0.00  0.00    +0.000 A 
ATOM      4  C   UNL     1      48.265   4.363  17.148  0.00  0.00    +0.000 A 
ATOM      5  C   UNL     1      47.335   3.833  16.244  0.00  0.00    +0.000 A 
ATOM      6  C   UNL     1      47.039   4.495  15.047  0.00  0.00    +0.000 A 
ENDROOT
BRANCH   1   7
ATOM      7  C   UNL     1      47.350   6.416  13.433  0.00  0.00    +0.000 C 
BRANCH   7  10
ATOM      8  C   UNL     1      45.932   5.974  11.467  0.00  0.00    +0.000 C 
ATOM      9  O   UNL     1      45.628   7.160  11.364  0.00  0.00    +0.000 OA
ATOM     10  N   UNL     1      46.754   5.520  12.472  0.00  0.00    +0.000 N 
ATOM     11  H   UNL     1      46.967   4.530  12.516  0.00  0.00    +0.000 HD
BRANCH   8  17
ATOM     12  C   UNL     1      44.630   3.855  10.757  0.00  0.00    +0.000 A 
ATOM     13  C   UNL     1      44.328   2.939   9.736  0.00  0.00    +0.000 A 
ATOM     14  C   UNL     1      44.781   3.140   8.431  0.00  0.00    +0.000 A 
ATOM     15  C   UNL     1      45.528   4.268   8.120  0.00  0.00    +0.000 A 
ATOM     16  C   UNL     1      45.856   5.176   9.128  0.00  0.00    +0.000 A 
ATOM     17  C   UNL     1      45.436   4.974  10.457  0.00  0.00    +0.000 A 
BRANCH  12  19
ATOM     18  C   UNL     1      43.043   4.479  12.437  0.00  0.00    +0.000 C 
ATOM     19  O   UNL     1      44.176   3.711  12.046  0.00  0.00    +0.000 OA
ENDBRANCH  12  19
ENDBRANCH   8  17
ENDBRANCH   7  10
ENDBRANCH   1   7
BRANCH   4  20
ATOM     20  C   UNL     1      48.614   3.617  18.415  0.00  0.00    +0.000 C 
BRANCH  20  21
ATOM     21  N   UNL     1      50.002   3.250  18.449  0.00  0.00    +0.000 N 
ATOM     22  C   UNL     1      50.572   2.437  17.497  0.00  0.00    +0.000 C 
ATOM     23  O   UNL     1      49.910   1.877  16.627  0.00  0.00    +0.000 OA
ATOM     24  H   UNL     1      50.607   3.870  18.974  0.00  0.00    +0.000 HD
BRANCH  22  25
ATOM     25  C   UNL     1      52.023   2.242  17.607  0.00  0.00    +0.000 A 
ATOM     26  C   UNL     1      52.567   0.964  17.603  0.00  0.00    +0.000 A 
ATOM     27  S   UNL     1      54.270   0.948  17.753  0.00  0.00    +0.000 S 
ATOM     28  C   UNL     1      54.335   2.646  17.789  0.00  0.00    +0.000 A 
ATOM     29  N   UNL     1      55.526   3.303  17.874  0.00  0.00    +0.000 NA
ATOM     30  C   UNL     1      55.427   4.593  17.870  0.00  0.00    +0.000 A 
ATOM     31  N   UNL     1      54.250   5.304  17.802  0.00  0.00    +0.000 N 
ATOM     32  C   UNL     1      54.240   6.753  17.833  0.00  0.00    +0.000 C 
ATOM     33  C   UNL     1      53.017   4.668  17.735  0.00  0.00    +0.000 A 
ATOM     34  O   UNL     1      51.958   5.285  17.716  0.00  0.00    +0.000 OA
ATOM     35  C   UNL     1      53.084   3.216  17.718  0.00  0.00    +0.000 A 
ENDBRANCH  22  25
ENDBRANCH  20  21
ENDBRANCH   4  20
TORSDOF 7
ENDMDL
MODEL 4
REMARK VINA RESULT:    -7.056      3.434      6.004
REMARK INTER + INTRA:         -11.140
REMARK INTER:                  -9.634
REMARK INTRA:                  -1.506
REMARK UNBOUND:                -1.197
REMARK  Name = 
REMARK  9 active torsions:
REMARK  status: ('A' for Active; 'I' for Inactive)
REMARK    1  A    between atoms: C_1  and  O_2
REMARK    2  A    between atoms: O_2  and  C_3
REMARK    3  A    between atoms: C_8  and  C_9
REMARK    4  A    between atoms: N_11  and  C_12
REMARK    5  A    between atoms: C_12  and  C_13
REMARK    6  A    between atoms: C_16  and  C_17
REMARK    7  A    between atoms: C_17  and  N_18
REMARK    8  A    between atoms: C_19  and  C_21
REMARK    9  A    between atoms: N_27  and  C_28
REMARK                            x       y       z     vdW  Elec       q    Type
REMARK                         _______ _______ _______ _____ _____    ______ ____
ROOT
ATOM      1  C   UNL     1      51.367   2.896  17.732  0.00  0.00    +0.000 A 
ATOM      2  C   UNL     1      50.565   1.940  17.096  0.00  0.00    +0.000 A 
ATOM      3  C   UNL     1      49.212   2.197  16.837  0.00  0.00    +0.000 A 
ATOM      4  C   UNL     1      48.639   3.430  17.182  0.00  0.00    +0.000 A 
ATOM      5  C   UNL     1      49.436   4.374  17.842  0.00  0.00    +0.000 A 
ATOM      6  C   UNL     1      50.787   4.116  18.102  0.00  0.00    +0.000 A 
ENDROOT
BRANCH   1   7
ATOM      7  C   UNL     1      52.830   2.632  17.986  0.00  0.00    +0.000 C 
BRANCH   7  10
ATOM      8  C   UNL     1      54.331   0.812  17.278  0.00  0.00    +0.000 C 
ATOM      9  O   UNL     1      55.150   1.606  16.819  0.00  0.00    +0.000 OA
ATOM     10  N   UNL     1      53.153   1.234  17.847  0.00  0.00    +0.000 N 
ATOM     11  H   UNL     1      52.508   0.537  18.204  0.00  0.00    +0.000 HD
BRANCH   8  17
ATOM     12  C   UNL     1      54.709  -1.482  18.411  0.00  0.00    +0.000 A 
ATOM     13  C   UNL     1      55.093  -2.825  18.263  0.00  0.00    +0.000 A 
ATOM     14  C   UNL     1      55.347  -3.367  17.002  0.00  0.00    +0.000 A 
ATOM     15  C   UNL     1      55.207  -2.581  15.866  0.00  0.00    +0.000 A 
ATOM     16  C   UNL     1      54.849  -1.239  15.997  0.00  0.00    +0.000 A 
ATOM     17  C   UNL     1      54.619  -0.665  17.264  0.00  0.00    +0.000 A 
BRANCH  12  19
ATOM     18  C   UNL     1      55.502  -0.661  20.515  0.00  0.00    +0.000 C 
ATOM     19  O   UNL     1      54.417  -0.920  19.630  0.00  0.00    +0.000 OA
ENDBRANCH  12  19
ENDBRANCH   8  17
ENDBRANCH   7  10
ENDBRANCH   1   7
BRANCH   4  20
ATOM     20  C   UNL     1      47.194   3.737  16.861  0.00  0.00    +0.000 C 
BRANCH  20  21
ATOM     21  N   UNL     1      47.078   4.714  15.816  0.00  0.00    +0.000 N 
ATOM     22  C   UNL     1      47.052   4.369  14.485  0.00  0.00    +0.000 C 
ATOM     23  O   UNL     1      47.247   3.218  14.099  0.00  0.00    +0.000 OA
ATOM     24  H   UNL     1      46.673   5.602  16.088  0.00  0.00    +0.000 HD
BRANCH  22  25
ATOM     25  C   UNL     1      46.820   5.469  13.542  0.00  0.00    +0.000 A 
ATOM     26  C   UNL     1      45.714   5.459  12.702  0.00  0.00    +0.000 A 
ATOM     27  S   UNL     1      45.628   6.820  11.670  0.00  0.00    +0.000 S 
ATOM     28  C   UNL     1      47.043   7.482  12.341  0.00  0.00    +0.000 A 
ATOM     29  N   UNL     1      47.523   8.686  11.921  0.00  0.00    +0.000 NA
ATOM     30  C   UNL     1      48.595   9.077  12.533  0.00  0.00    +0.000 A 
ATOM     31  N   UNL     1      49.251   8.378  13.520  0.00  0.00    +0.000 N 
ATOM     32  C   UNL     1      50.465   8.887  14.127  0.00  0.00    +0.000 C 
ATOM     33  C   UNL     1      48.801   7.139  13.958  0.00  0.00    +0.000 A 
ATOM     34  O   UNL     1      49.397   6.484  14.806  0.00  0.00    +0.000 OA
ATOM     35  C   UNL     1      47.588   6.670  13.310  0.00  0.00    +0.000 A 
ENDBRANCH  22  25
ENDBRANCH  20  21
ENDBRANCH   4  20
TORSDOF 7
ENDMDL
MODEL 5
REMARK VINA RESULT:    -6.962      4.734      6.370
REMARK INTER + INTRA:         -11.007
REMARK INTER:                  -9.614
REMARK INTRA:                  -1.394
REMARK UNBOUND:                -1.197
REMARK  Name = 
REMARK  9 active torsions:
REMARK  status: ('A' for Active; 'I' for Inactive)
REMARK    1  A    between atoms: C_1  and  O_2
REMARK    2  A    between atoms: O_2  and  C_3
REMARK    3  A    between atoms: C_8  and  C_9
REMARK    4  A    between atoms: N_11  and  C_12
REMARK    5  A    between atoms: C_12  and  C_13
REMARK    6  A    between atoms: C_16  and  C_17
REMARK    7  A    between atoms: C_17  and  N_18
REMARK    8  A    between atoms: C_19  and  C_21
REMARK    9  A    between atoms: N_27  and  C_28
REMARK                            x       y       z     vdW  Elec       q    Type
REMARK                         _______ _______ _______ _____ _____    ______ ____
ROOT
ATOM      1  C   UNL     1      50.420   8.697  11.740  0.00  0.00    +0.000 A 
ATOM      2  C   UNL     1      49.868   7.441  12.020  0.00  0.00    +0.000 A 
ATOM      3  C   UNL     1      48.484   7.287  12.184  0.00  0.00    +0.000 A 
ATOM      4  C   UNL     1      47.620   8.382  12.041  0.00  0.00    +0.000 A 
ATOM      5  C   UNL     1      48.177   9.642  11.787  0.00  0.00    +0.000 A 
ATOM      6  C   UNL     1      49.559   9.796  11.625  0.00  0.00    +0.000 A 
ENDROOT
BRANCH   1   7
ATOM      7  C   UNL     1      51.905   8.860  11.534  0.00  0.00    +0.000 C 
BRANCH   7  10
ATOM      8  C   UNL     1      53.406   7.469  10.162  0.00  0.00    +0.000 C 
ATOM      9  O   UNL     1      54.084   7.159  11.139  0.00  0.00    +0.000 OA
ATOM     10  N   UNL     1      52.332   8.321  10.266  0.00  0.00    +0.000 N 
ATOM     11  H   UNL     1      51.810   8.552   9.428  0.00  0.00    +0.000 HD
BRANCH   8  17
ATOM     12  C   UNL     1      53.863   7.634   7.622  0.00  0.00    +0.000 A 
ATOM     13  C   UNL     1      54.041   6.955   6.406  0.00  0.00    +0.000 A 
ATOM     14  C   UNL     1      54.110   5.561   6.362  0.00  0.00    +0.000 A 
ATOM     15  C   UNL     1      54.018   4.824   7.535  0.00  0.00    +0.000 A 
ATOM     16  C   UNL     1      53.818   5.482   8.749  0.00  0.00    +0.000 A 
ATOM     17  C   UNL     1      53.714   6.886   8.809  0.00  0.00    +0.000 A 
BRANCH  12  19
ATOM     18  C   UNL     1      52.858   9.691   6.922  0.00  0.00    +0.000 C 
ATOM     19  O   UNL     1      53.824   9.005   7.711  0.00  0.00    +0.000 OA
ENDBRANCH  12  19
ENDBRANCH   8  17
ENDBRANCH   7  10
ENDBRANCH   1   7
BRANCH   4  20
ATOM     20  C   UNL     1      46.123   8.217  12.166  0.00  0.00    +0.000 C 
BRANCH  20  21
ATOM     21  N   UNL     1      45.721   6.852  11.973  0.00  0.00    +0.000 N 
ATOM     22  C   UNL     1      44.497   6.513  11.443  0.00  0.00    +0.000 C 
ATOM     23  O   UNL     1      43.625   7.348  11.214  0.00  0.00    +0.000 OA
ATOM     24  H   UNL     1      46.474   6.178  11.908  0.00  0.00    +0.000 HD
BRANCH  22  25
ATOM     25  C   UNL     1      44.276   5.082  11.205  0.00  0.00    +0.000 A 
ATOM     26  C   UNL     1      43.463   4.342  12.053  0.00  0.00    +0.000 A 
ATOM     27  S   UNL     1      43.343   2.693  11.616  0.00  0.00    +0.000 S 
ATOM     28  C   UNL     1      44.342   2.926  10.261  0.00  0.00    +0.000 A 
ATOM     29  N   UNL     1      44.628   1.899   9.412  0.00  0.00    +0.000 NA
ATOM     30  C   UNL     1      45.383   2.225   8.413  0.00  0.00    +0.000 A 
ATOM     31  N   UNL     1      45.898   3.479   8.176  0.00  0.00    +0.000 N 
ATOM     32  C   UNL     1      46.760   3.741   7.040  0.00  0.00    +0.000 C 
ATOM     33  C   UNL     1      45.643   4.544   9.030  0.00  0.00    +0.000 A 
ATOM     34  O   UNL     1      46.128   5.658   8.858  0.00  0.00    +0.000 OA
ATOM     35  C   UNL     1      44.783   4.226  10.158  0.00  0.00    +0.000 A 
ENDBRANCH  22  25
ENDBRANCH  20  21
ENDBRANCH   4  20
TORSDOF 7
ENDMDL
MODEL 6
REMARK VINA RESULT:    -6.908      3.352      8.878
REMARK INTER + INTRA:         -10.932
REMARK INTER:                  -9.932
REMARK INTRA:                  -1.001
REMARK UNBOUND:                -1.197
REMARK  Name = 
REMARK  9 active torsions:
REMARK  status: ('A' for Active; 'I' for Inactive)
REMARK    1  A    between atoms: C_1  and  O_2
REMARK    2  A    between atoms: O_2  and  C_3
REMARK    3  A    between atoms: C_8  and  C_9
REMARK    4  A    between atoms: N_11  and  C_12
REMARK    5  A    between atoms: C_12  and  C_13
REMARK    6  A    between atoms: C_16  and  C_17
REMARK    7  A    between atoms: C_17  and  N_18
REMARK    8  A    between atoms: C_19  and  C_21
REMARK    9  A    between atoms: N_27  and  C_28
REMARK                            x       y       z     vdW  Elec       q    Type
REMARK                         _______ _______ _______ _____ _____    ______ ____
ROOT
ATOM      1  C   UNL     1      46.176   7.801  12.280  0.00  0.00    +0.000 A 
ATOM      2  C   UNL     1      46.045   8.882  13.162  0.00  0.00    +0.000 A 
ATOM      3  C   UNL     1      47.115   9.278  13.975  0.00  0.00    +0.000 A 
ATOM      4  C   UNL     1      48.351   8.619  13.903  0.00  0.00    +0.000 A 
ATOM      5  C   UNL     1      48.471   7.521  13.041  0.00  0.00    +0.000 A 
ATOM      6  C   UNL     1      47.402   7.125  12.229  0.00  0.00    +0.000 A 
ENDROOT
BRANCH   1   7
ATOM      7  C   UNL     1      45.035   7.392  11.383  0.00  0.00    +0.000 C 
BRANCH   7  10
ATOM      8  C   UNL     1      44.281   5.297  10.329  0.00  0.00    +0.000 C 
ATOM      9  O   UNL     1      43.100   5.557  10.555  0.00  0.00    +0.000 OA
ATOM     10  N   UNL     1      45.296   6.135  10.726  0.00  0.00    +0.000 N 
ATOM     11  H   UNL     1      46.253   5.870  10.522  0.00  0.00    +0.000 HD
BRANCH   8  17
ATOM     12  C   UNL     1      44.223   2.748   9.894  0.00  0.00    +0.000 A 
ATOM     13  C   UNL     1      44.732   1.661   9.165  0.00  0.00    +0.000 A 
ATOM     14  C   UNL     1      45.619   1.857   8.105  0.00  0.00    +0.000 A 
ATOM     15  C   UNL     1      46.000   3.143   7.746  0.00  0.00    +0.000 A 
ATOM     16  C   UNL     1      45.521   4.232   8.474  0.00  0.00    +0.000 A 
ATOM     17  C   UNL     1      44.650   4.053   9.567  0.00  0.00    +0.000 A 
BRANCH  12  19
ATOM     18  C   UNL     1      43.829   2.628  12.252  0.00  0.00    +0.000 C 
ATOM     19  O   UNL     1      43.323   2.601  10.922  0.00  0.00    +0.000 OA
ENDBRANCH  12  19
ENDBRANCH   8  17
ENDBRANCH   7  10
ENDBRANCH   1   7
BRANCH   4  20
ATOM     20  C   UNL     1      49.526   9.069  14.740  0.00  0.00    +0.000 C 
BRANCH  20  21
ATOM     21  N   UNL     1      49.638   8.307  15.952  0.00  0.00    +0.000 N 
ATOM     22  C   UNL     1      48.935   8.627  17.090  0.00  0.00    +0.000 C 
ATOM     23  O   UNL     1      48.260   9.650  17.182  0.00  0.00    +0.000 OA
ATOM     24  H   UNL     1      49.966   7.355  15.843  0.00  0.00    +0.000 HD
BRANCH  22  25
ATOM     25  C   UNL     1      49.072   7.690  18.212  0.00  0.00    +0.000 A 
ATOM     26  C   UNL     1      49.427   8.147  19.475  0.00  0.00    +0.000 A 
ATOM     27  S   UNL     1      49.547   6.902  20.641  0.00  0.00    +0.000 S 
ATOM     28  C   UNL     1      49.091   5.723  19.505  0.00  0.00    +0.000 A 
ATOM     29  N   UNL     1      48.964   4.414  19.862  0.00  0.00    +0.000 NA
ATOM     30  C   UNL     1      48.591   3.631  18.902  0.00  0.00    +0.000 A 
ATOM     31  N   UNL     1      48.341   4.020  17.605  0.00  0.00    +0.000 N 
ATOM     32  C   UNL     1      47.954   3.061  16.589  0.00  0.00    +0.000 C 
ATOM     33  C   UNL     1      48.480   5.342  17.201  0.00  0.00    +0.000 A 
ATOM     34  O   UNL     1      48.302   5.698  16.041  0.00  0.00    +0.000 OA
ATOM     35  C   UNL     1      48.880   6.259  18.255  0.00  0.00    +0.000 A 
ENDBRANCH  22  25
ENDBRANCH  20  21
ENDBRANCH   4  20
TORSDOF 7
ENDMDL
MODEL 7
REMARK VINA RESULT:    -6.805      3.003      9.249
REMARK INTER + INTRA:         -10.786
REMARK INTER:                  -9.687
REMARK INTRA:                  -1.100
REMARK UNBOUND:                -1.197
REMARK  Name = 
REMARK  9 active torsions:
REMARK  status: ('A' for Active; 'I' for Inactive)
REMARK    1  A    between atoms: C_1  and  O_2
REMARK    2  A    between atoms: O_2  and  C_3
REMARK    3  A    between atoms: C_8  and  C_9
REMARK    4  A    between atoms: N_11  and  C_12
REMARK    5  A    between atoms: C_12  and  C_13
REMARK    6  A    between atoms: C_16  and  C_17
REMARK    7  A    between atoms: C_17  and  N_18
REMARK    8  A    between atoms: C_19  and  C_21
REMARK    9  A    between atoms: N_27  and  C_28
REMARK                            x       y       z     vdW  Elec       q    Type
REMARK                         _______ _______ _______ _____ _____    ______ ____
ROOT
ATOM      1  C   UNL     1      47.246   7.644  12.756  0.00  0.00    +0.000 A 
ATOM      2  C   UNL     1      48.277   7.479  11.821  0.00  0.00    +0.000 A 
ATOM      3  C   UNL     1      49.589   7.864  12.127  0.00  0.00    +0.000 A 
ATOM      4  C   UNL     1      49.906   8.394  13.386  0.00  0.00    +0.000 A 
ATOM      5  C   UNL     1      48.869   8.583  14.309  0.00  0.00    +0.000 A 
ATOM      6  C   UNL     1      47.558   8.200  14.003  0.00  0.00    +0.000 A 
ENDROOT
BRANCH   1   7
ATOM      7  C   UNL     1      45.839   7.205  12.440  0.00  0.00    +0.000 C 
BRANCH   7  10
ATOM      8  C   UNL     1      44.680   5.661  10.910  0.00  0.00    +0.000 C 
ATOM      9  O   UNL     1      43.607   6.240  11.066  0.00  0.00    +0.000 OA
ATOM     10  N   UNL     1      45.820   6.056  11.568  0.00  0.00    +0.000 N 
ATOM     11  H   UNL     1      46.678   5.539  11.410  0.00  0.00    +0.000 HD
BRANCH   8  17
ATOM     12  C   UNL     1      44.122   3.270  10.097  0.00  0.00    +0.000 A 
ATOM     13  C   UNL     1      44.394   2.237   9.186  0.00  0.00    +0.000 A 
ATOM     14  C   UNL     1      45.277   2.429   8.122  0.00  0.00    +0.000 A 
ATOM     15  C   UNL     1      45.890   3.662   7.941  0.00  0.00    +0.000 A 
ATOM     16  C   UNL     1      45.648   4.692   8.851  0.00  0.00    +0.000 A 
ATOM     17  C   UNL     1      44.785   4.506   9.949  0.00  0.00    +0.000 A 
BRANCH  12  19
ATOM     18  C   UNL     1      43.767   2.845  12.426  0.00  0.00    +0.000 C 
ATOM     19  O   UNL     1      43.234   3.132  11.137  0.00  0.00    +0.000 OA
ENDBRANCH  12  19
ENDBRANCH   8  17
ENDBRANCH   7  10
ENDBRANCH   1   7
BRANCH   4  20
ATOM     20  C   UNL     1      51.327   8.765  13.743  0.00  0.00    +0.000 C 
BRANCH  20  21
ATOM     21  N   UNL     1      51.959   7.745  14.533  0.00  0.00    +0.000 N 
ATOM     22  C   UNL     1      52.470   7.996  15.785  0.00  0.00    +0.000 C 
ATOM     23  O   UNL     1      52.527   9.128  16.259  0.00  0.00    +0.000 OA
ATOM     24  H   UNL     1      51.711   6.792  14.299  0.00  0.00    +0.000 HD
BRANCH  22  25
ATOM     25  C   UNL     1      52.986   6.829  16.512  0.00  0.00    +0.000 A 
ATOM     26  C   UNL     1      54.330   6.746  16.851  0.00  0.00    +0.000 A 
ATOM     27  S   UNL     1      54.736   5.306  17.681  0.00  0.00    +0.000 S 
ATOM     28  C   UNL     1      53.123   4.770  17.645  0.00  0.00    +0.000 A 
ATOM     29  N   UNL     1      52.761   3.591  18.225  0.00  0.00    +0.000 NA
ATOM     30  C   UNL     1      51.498   3.320  18.140  0.00  0.00    +0.000 A 
ATOM     31  N   UNL     1      50.552   4.103  17.520  0.00  0.00    +0.000 N 
ATOM     32  C   UNL     1      49.162   3.698  17.452  0.00  0.00    +0.000 C 
ATOM     33  C   UNL     1      50.889   5.300  16.902  0.00  0.00    +0.000 A 
ATOM     34  O   UNL     1      50.066   5.990  16.308  0.00  0.00    +0.000 OA
ATOM     35  C   UNL     1      52.296   5.654  16.990  0.00  0.00    +0.000 A 
ENDBRANCH  22  25
ENDBRANCH  20  21
ENDBRANCH   4  20
TORSDOF 7
ENDMDL
MODEL 8
REMARK VINA RESULT:    -6.588      3.265      9.129
REMARK INTER + INTRA:         -10.481
REMARK INTER:                  -9.908
REMARK INTRA:                  -0.572
REMARK UNBOUND:                -1.197
REMARK  Name = 
REMARK  9 active torsions:
REMARK  status: ('A' for Active; 'I' for Inactive)
REMARK    1  A    between atoms: C_1  and  O_2
REMARK    2  A    between atoms: O_2  and  C_3
REMARK    3  A    between atoms: C_8  and  C_9
REMARK    4  A    between atoms: N_11  and  C_12
REMARK    5  A    between atoms: C_12  and  C_13
REMARK    6  A    between atoms: C_16  and  C_17
REMARK    7  A    between atoms: C_17  and  N_18
REMARK    8  A    between atoms: C_19  and  C_21
REMARK    9  A    between atoms: N_27  and  C_28
REMARK                            x       y       z     vdW  Elec       q    Type
REMARK                         _______ _______ _______ _____ _____    ______ ____
ROOT
ATOM      1  C   UNL     1      44.773   5.783  11.551  0.00  0.00    +0.000 A 
ATOM      2  C   UNL     1      44.636   7.177  11.491  0.00  0.00    +0.000 A 
ATOM      3  C   UNL     1      45.568   8.015  12.117  0.00  0.00    +0.000 A 
ATOM      4  C   UNL     1      46.674   7.479  12.793  0.00  0.00    +0.000 A 
ATOM      5  C   UNL     1      46.793   6.086  12.874  0.00  0.00    +0.000 A 
ATOM      6  C   UNL     1      45.862   5.248  12.250  0.00  0.00    +0.000 A 
ENDROOT
BRANCH   1   7
ATOM      7  C   UNL     1      43.787   4.879  10.854  0.00  0.00    +0.000 C 
BRANCH   7  10
ATOM      8  C   UNL     1      45.235   4.371   8.927  0.00  0.00    +0.000 C 
ATOM      9  O   UNL     1      45.380   5.563   8.664  0.00  0.00    +0.000 OA
ATOM     10  N   UNL     1      44.447   3.949   9.972  0.00  0.00    +0.000 N 
ATOM     11  H   UNL     1      44.355   2.953  10.140  0.00  0.00    +0.000 HD
BRANCH   8  17
ATOM     12  C   UNL     1      45.960   1.943   8.408  0.00  0.00    +0.000 A 
ATOM     13  C   UNL     1      46.766   1.088   7.638  0.00  0.00    +0.000 A 
ATOM     14  C   UNL     1      47.529   1.579   6.577  0.00  0.00    +0.000 A 
ATOM     15  C   UNL     1      47.486   2.930   6.257  0.00  0.00    +0.000 A 
ATOM     16  C   UNL     1      46.708   3.796   7.026  0.00  0.00    +0.000 A 
ATOM     17  C   UNL     1      45.957   3.324   8.120  0.00  0.00    +0.000 A 
BRANCH  12  19
ATOM     18  C   UNL     1      43.891   0.964   9.108  0.00  0.00    +0.000 C 
ATOM     19  O   UNL     1      45.170   1.495   9.439  0.00  0.00    +0.000 OA
ENDBRANCH  12  19
ENDBRANCH   8  17
ENDBRANCH   7  10
ENDBRANCH   1   7
BRANCH   4  20
ATOM     20  C   UNL     1      47.711   8.376  13.428  0.00  0.00    +0.000 C 
BRANCH  20  21
ATOM     21  N   UNL     1      48.027   7.958  14.765  0.00  0.00    +0.000 N 
ATOM     22  C   UNL     1      49.320   7.734  15.181  0.00  0.00    +0.000 C 
ATOM     23  O   UNL     1      50.274   7.761  14.407  0.00  0.00    +0.000 OA
ATOM     24  H   UNL     1      47.328   8.168  15.467  0.00  0.00    +0.000 HD
BRANCH  22  25
ATOM     25  C   UNL     1      49.489   7.418  16.604  0.00  0.00    +0.000 A 
ATOM     26  C   UNL     1      50.082   8.332  17.465  0.00  0.00    +0.000 A 
ATOM     27  S   UNL     1      50.200   7.772  19.077  0.00  0.00    +0.000 S 
ATOM     28  C   UNL     1      49.429   6.310  18.680  0.00  0.00    +0.000 A 
ATOM     29  N   UNL     1      49.179   5.366  19.630  0.00  0.00    +0.000 NA
ATOM     30  C   UNL     1      48.568   4.313  19.191  0.00  0.00    +0.000 A 
ATOM     31  N   UNL     1      48.188   4.096  17.887  0.00  0.00    +0.000 N 
ATOM     32  C   UNL     1      47.532   2.868  17.485  0.00  0.00    +0.000 C 
ATOM     33  C   UNL     1      48.445   5.027  16.888  0.00  0.00    +0.000 A 
ATOM     34  O   UNL     1      48.151   4.832  15.714  0.00  0.00    +0.000 OA
ATOM     35  C   UNL     1      49.114   6.235  17.342  0.00  0.00    +0.000 A 
ENDBRANCH  22  25
ENDBRANCH  20  21
ENDBRANCH   4  20
TORSDOF 7
ENDMDL
MODEL 9
REMARK VINA RESULT:    -6.474      1.809      2.693
REMARK INTER + INTRA:         -10.321
REMARK INTER:                  -9.108
REMARK INTRA:                  -1.212
REMARK UNBOUND:                -1.197
REMARK  Name = 
REMARK  9 active torsions:
REMARK  status: ('A' for Active; 'I' for Inactive)
REMARK    1  A    between atoms: C_1  and  O_2
REMARK    2  A    between atoms: O_2  and  C_3
REMARK    3  A    between atoms: C_8  and  C_9
REMARK    4  A    between atoms: N_11  and  C_12
REMARK    5  A    between atoms: C_12  and  C_13
REMARK    6  A    between atoms: C_16  and  C_17
REMARK    7  A    between atoms: C_17  and  N_18
REMARK    8  A    between atoms: C_19  and  C_21
REMARK    9  A    between atoms: N_27  and  C_28
REMARK                            x       y       z     vdW  Elec       q    Type
REMARK                         _______ _______ _______ _____ _____    ______ ____
ROOT
ATOM      1  C   UNL     1      50.129   8.522  13.606  0.00  0.00    +0.000 A 
ATOM      2  C   UNL     1      49.907   7.738  12.466  0.00  0.00    +0.000 A 
ATOM      3  C   UNL     1      48.617   7.588  11.940  0.00  0.00    +0.000 A 
ATOM      4  C   UNL     1      47.524   8.243  12.525  0.00  0.00    +0.000 A 
ATOM      5  C   UNL     1      47.744   9.005  13.680  0.00  0.00    +0.000 A 
ATOM      6  C   UNL     1      49.032   9.154  14.207  0.00  0.00    +0.000 A 
ENDROOT
BRANCH   1   7
ATOM      7  C   UNL     1      51.520   8.708  14.158  0.00  0.00    +0.000 C 
BRANCH   7  10
ATOM      8  C   UNL     1      51.870   7.521  16.287  0.00  0.00    +0.000 C 
ATOM      9  O   UNL     1      51.466   8.481  16.941  0.00  0.00    +0.000 OA
ATOM     10  N   UNL     1      51.953   7.560  14.916  0.00  0.00    +0.000 N 
ATOM     11  H   UNL     1      52.302   6.744  14.426  0.00  0.00    +0.000 HD
BRANCH   8  17
ATOM     12  C   UNL     1      53.558   5.934  17.438  0.00  0.00    +0.000 A 
ATOM     13  C   UNL     1      53.809   4.658  17.969  0.00  0.00    +0.000 A 
ATOM     14  C   UNL     1      52.788   3.713  18.086  0.00  0.00    +0.000 A 
ATOM     15  C   UNL     1      51.497   4.032  17.687  0.00  0.00    +0.000 A 
ATOM     16  C   UNL     1      51.236   5.286  17.135  0.00  0.00    +0.000 A 
ATOM     17  C   UNL     1      52.259   6.243  16.981  0.00  0.00    +0.000 A 
BRANCH  12  19
ATOM     18  C   UNL     1      55.775   6.534  16.761  0.00  0.00    +0.000 C 
ATOM     19  O   UNL     1      54.526   6.903  17.338  0.00  0.00    +0.000 OA
ENDBRANCH  12  19
ENDBRANCH   8  17
ENDBRANCH   7  10
ENDBRANCH   1   7
BRANCH   4  20
ATOM     20  C   UNL     1      46.137   8.128  11.936  0.00  0.00    +0.000 C 
BRANCH  20  21
ATOM     21  N   UNL     1      45.738   6.758  11.780  0.00  0.00    +0.000 N 
ATOM     22  C   UNL     1      44.457   6.399  11.429  0.00  0.00    +0.000 C 
ATOM     23  O   UNL     1      43.544   7.217  11.343  0.00  0.00    +0.000 OA
ATOM     24  H   UNL     1      46.487   6.101  11.595  0.00  0.00    +0.000 HD
BRANCH  22  25
ATOM     25  C   UNL     1      44.232   4.966  11.202  0.00  0.00    +0.000 A 
ATOM     26  C   UNL     1      43.429   4.232  12.064  0.00  0.00    +0.000 A 
ATOM     27  S   UNL     1      43.302   2.580  11.638  0.00  0.00    +0.000 S 
ATOM     28  C   UNL     1      44.285   2.805  10.269  0.00  0.00    +0.000 A 
ATOM     29  N   UNL     1      44.560   1.773   9.423  0.00  0.00    +0.000 NA
ATOM     30  C   UNL     1      45.302   2.093   8.413  0.00  0.00    +0.000 A 
ATOM     31  N   UNL     1      45.815   3.345   8.162  0.00  0.00    +0.000 N 
ATOM     32  C   UNL     1      46.663   3.599   7.015  0.00  0.00    +0.000 C 
ATOM     33  C   UNL     1      45.572   4.415   9.014  0.00  0.00    +0.000 A 
ATOM     34  O   UNL     1      46.056   5.527   8.829  0.00  0.00    +0.000 OA
ATOM     35  C   UNL     1      44.726   4.104  10.153  0.00  0.00    +0.000 A 
ENDBRANCH  22  25
ENDBRANCH  20  21
ENDBRANCH   4  20
TORSDOF 7
ENDMDL
