MODEL 1
REMARK VINA RESULT:    -7.261      0.000      0.000
REMARK INTER + INTRA:         -11.187
REMARK INTER:                 -10.020
REMARK INTRA:                  -1.167
REMARK UNBOUND:                -1.167
REMARK  Name = 
REMARK  7 active torsions:
REMARK  status: ('A' for Active; 'I' for Inactive)
REMARK    1  A    between atoms: C_2  and  C_21
REMARK    2  A    between atoms: N_3  and  C_4
REMARK    3  A    between atoms: C_4  and  C_5
REMARK    4  A    between atoms: C_8  and  C_9
REMARK    5  A    between atoms: C_9  and  N_10
REMARK    6  A    between atoms: C_11  and  C_13
REMARK    7  A    between atoms: C_16  and  O_17
REMARK                            x       y       z     vdW  Elec       q    Type
REMARK                         _______ _______ _______ _____ _____    ______ ____
ROOT
ATOM      1  C   UNL     1      48.635   3.598  17.033  0.00  0.00    +0.000 A 
ATOM      2  C   UNL     1      49.500   2.495  17.036  0.00  0.00    +0.000 A 
ATOM      3  C   UNL     1      50.847   2.645  17.386  0.00  0.00    +0.000 A 
ATOM      4  C   UNL     1      51.352   3.897  17.762  0.00  0.00    +0.000 A 
ATOM      5  C   UNL     1      50.483   4.996  17.772  0.00  0.00    +0.000 A 
ATOM      6  C   UNL     1      49.136   4.846  17.424  0.00  0.00    +0.000 A 
ENDROOT
BRANCH   1   7
ATOM      7  C   UNL     1      47.186   3.433  16.648  0.00  0.00    +0.000 C 
BRANCH   7  10
ATOM      8  O   UNL     1      47.181   3.096  13.884  0.00  0.00    +0.000 OA
ATOM      9  C   UNL     1      46.744   4.145  14.347  0.00  0.00    +0.000 C 
ATOM     10  N   UNL     1      46.778   4.427  15.690  0.00  0.00    +0.000 N 
ATOM     11  H   UNL     1      46.219   5.195  16.045  0.00  0.00    +0.000 HD
BRANCH   9  12
ATOM     12  C   UNL     1      46.191   5.194  13.481  0.00  0.00    +0.000 A 
ATOM     13  C   UNL     1      46.947   6.313  13.165  0.00  0.00    +0.000 A 
ATOM     14  S   UNL     1      46.124   7.431  12.171  0.00  0.00    +0.000 S 
ATOM     15  C   UNL     1      44.748   6.433  12.091  0.00  0.00    +0.000 A 
ATOM     16  N   UNL     1      43.658   6.794  11.361  0.00  0.00    +0.000 NA
ATOM     17  C   UNL     1      42.707   5.922  11.357  0.00  0.00    +0.000 A 
ATOM     18  N   UNL     1      42.743   4.723  12.023  0.00  0.00    +0.000 N 
ATOM     19  C   UNL     1      43.801   4.335  12.801  0.00  0.00    +0.000 A 
ATOM     20  O   UNL     1      43.776   3.279  13.432  0.00  0.00    +0.000 OA
ATOM     21  C   UNL     1      44.909   5.272  12.826  0.00  0.00    +0.000 A 
ATOM     22  H   UNL     1      41.956   4.089  11.990  0.00  0.00    +0.000 HD
ENDBRANCH   9  12
ENDBRANCH   7  10
ENDBRANCH   1   7
BRANCH   4  23
ATOM     23  C   UNL     1      52.794   4.056  18.167  0.00  0.00    +0.000 C 
BRANCH  23  24
ATOM     24  N   UNL     1      53.592   2.887  17.870  0.00  0.00    +0.000 N 
ATOM     25  C   UNL     1      54.521   2.447  18.785  0.00  0.00    +0.000 C 
ATOM     26  O   UNL     1      54.764   3.048  19.830  0.00  0.00    +0.000 OA
ATOM     27  H   UNL     1      53.310   2.290  17.103  0.00  0.00    +0.000 HD
BRANCH  25  28
ATOM     28  C   UNL     1      55.313   1.216  18.364  0.00  0.00    +0.000 C 
ATOM     29  C   UNL     1      55.373   0.217  19.532  0.00  0.00    +0.000 C 
ATOM     30  C   UNL     1      54.717  -1.072  19.032  0.00  0.00    +0.000 C 
ATOM     31  C   UNL     1      53.809  -0.633  17.896  0.00  0.00    +0.000 C 
ATOM     32  C   UNL     1      54.619   0.465  17.216  0.00  0.00    +0.000 C 
BRANCH  31  33
ATOM     33  O   UNL     1      52.571  -0.163  18.408  0.00  0.00    +0.000 OA
ATOM     34  H   UNL     1      52.540   0.816  18.353  0.00  0.00    +0.000 HD
ENDBRANCH  31  33
ENDBRANCH  25  28
ENDBRANCH  23  24
ENDBRANCH   4  23
TORSDOF 7
ENDMDL
MODEL 2
REMARK VINA RESULT:    -7.206      3.125     10.021
REMARK INTER + INTRA:         -11.111
REMARK INTER:                 -10.096
REMARK INTRA:                  -1.016
REMARK UNBOUND:                -1.167
REMARK  Name = 
REMARK  7 active torsions:
REMARK  status: ('A' for Active; 'I' for Inactive)
REMARK    1  A    between atoms: C_2  and  C_21
REMARK    2  A    between atoms: N_3  and  C_4
REMARK    3  A    between atoms: C_4  and  C_5
REMARK    4  A    between atoms: C_8  and  C_9
REMARK    5  A    between atoms: C_9  and  N_10
REMARK    6  A    between atoms: C_11  and  C_13
REMARK    7  A    between atoms: C_16  and  O_17
REMARK                            x       y       z     vdW  Elec       q    Type
REMARK                         _______ _______ _______ _____ _____    ______ ____
ROOT
ATOM      1  C   UNL     1      48.051   4.186  16.753  0.00  0.00    +0.000 A 
ATOM      2  C   UNL     1      47.260   3.796  15.662  0.00  0.00    +0.000 A 
ATOM      3  C   UNL     1      47.120   4.630  14.547  0.00  0.00    +0.000 A 
ATOM      4  C   UNL     1      47.787   5.862  14.489  0.00  0.00    +0.000 A 
ATOM      5  C   UNL     1      48.588   6.244  15.572  0.00  0.00    +0.000 A 
ATOM      6  C   UNL     1      48.729   5.410  16.687  0.00  0.00    +0.000 A 
ENDROOT
BRANCH   1   7
ATOM      7  C   UNL     1      48.191   3.287  17.955  0.00  0.00    +0.000 C 
BRANCH   7  10
ATOM      8  O   UNL     1      49.766   1.720  16.277  0.00  0.00    +0.000 OA
ATOM      9  C   UNL     1      50.285   2.217  17.273  0.00  0.00    +0.000 C 
ATOM     10  N   UNL     1      49.568   2.938  18.194  0.00  0.00    +0.000 N 
ATOM     11  H   UNL     1      50.066   3.503  18.873  0.00  0.00    +0.000 HD
BRANCH   9  12
ATOM     12  C   UNL     1      51.711   2.031  17.568  0.00  0.00    +0.000 A 
ATOM     13  C   UNL     1      52.307   0.791  17.392  0.00  0.00    +0.000 A 
ATOM     14  S   UNL     1      53.962   0.766  17.813  0.00  0.00    +0.000 S 
ATOM     15  C   UNL     1      53.947   2.424  18.197  0.00  0.00    +0.000 A 
ATOM     16  N   UNL     1      55.076   3.060  18.610  0.00  0.00    +0.000 NA
ATOM     17  C   UNL     1      54.927   4.324  18.826  0.00  0.00    +0.000 A 
ATOM     18  N   UNL     1      53.748   5.009  18.672  0.00  0.00    +0.000 N 
ATOM     19  C   UNL     1      52.578   4.403  18.297  0.00  0.00    +0.000 A 
ATOM     20  O   UNL     1      51.526   5.036  18.226  0.00  0.00    +0.000 OA
ATOM     21  C   UNL     1      52.693   2.983  18.023  0.00  0.00    +0.000 A 
ATOM     22  H   UNL     1      53.694   5.998  18.872  0.00  0.00    +0.000 HD
ENDBRANCH   9  12
ENDBRANCH   7  10
ENDBRANCH   1   7
BRANCH   4  23
ATOM     23  C   UNL     1      47.662   6.749  13.277  0.00  0.00    +0.000 C 
BRANCH  23  24
ATOM     24  N   UNL     1      46.790   6.195  12.265  0.00  0.00    +0.000 N 
ATOM     25  C   UNL     1      45.494   6.648  12.163  0.00  0.00    +0.000 C 
ATOM     26  O   UNL     1      45.008   7.462  12.945  0.00  0.00    +0.000 OA
ATOM     27  H   UNL     1      47.199   5.648  11.519  0.00  0.00    +0.000 HD
BRANCH  25  28
ATOM     28  C   UNL     1      44.661   5.987  11.072  0.00  0.00    +0.000 C 
ATOM     29  C   UNL     1      44.656   4.463  11.277  0.00  0.00    +0.000 C 
ATOM     30  C   UNL     1      43.193   4.057  11.468  0.00  0.00    +0.000 C 
ATOM     31  C   UNL     1      42.498   5.319  11.952  0.00  0.00    +0.000 C 
ATOM     32  C   UNL     1      43.187   6.417  11.150  0.00  0.00    +0.000 C 
BRANCH  31  33
ATOM     33  O   UNL     1      42.673   5.472  13.353  0.00  0.00    +0.000 OA
ATOM     34  H   UNL     1      43.448   6.047  13.529  0.00  0.00    +0.000 HD
ENDBRANCH  31  33
ENDBRANCH  25  28
ENDBRANCH  23  24
ENDBRANCH   4  23
TORSDOF 7
ENDMDL
MODEL 3
REMARK VINA RESULT:    -7.196      5.369      9.784
REMARK INTER + INTRA:         -11.097
REMARK INTER:                  -9.726
REMARK INTRA:                  -1.372
REMARK UNBOUND:                -1.167
REMARK  Name = 
REMARK  7 active torsions:
REMARK  status: ('A' for Active; 'I' for Inactive)
REMARK    1  A    between atoms: C_2  and  C_21
REMARK    2  A    between atoms: N_3  and  C_4
REMARK    3  A    between atoms: C_4  and  C_5
REMARK    4  A    between atoms: C_8  and  C_9
REMARK    5  A    between atoms: C_9  and  N_10
REMARK    6  A    between atoms: C_11  and  C_13
REMARK    7  A    between atoms: C_16  and  O_17
REMARK                            x       y       z     vdW  Elec       q    Type
REMARK                         _______ _______ _______ _____ _____    ______ ____
ROOT
ATOM      1  C   UNL     1      46.043   4.457  13.099  0.00  0.00    +0.000 A 
ATOM      2  C   UNL     1      46.109   5.639  12.348  0.00  0.00    +0.000 A 
ATOM      3  C   UNL     1      45.531   5.711  11.075  0.00  0.00    +0.000 A 
ATOM      4  C   UNL     1      44.855   4.608  10.536  0.00  0.00    +0.000 A 
ATOM      5  C   UNL     1      44.777   3.432  11.293  0.00  0.00    +0.000 A 
ATOM      6  C   UNL     1      45.354   3.360  12.565  0.00  0.00    +0.000 A 
ENDROOT
BRANCH   1   7
ATOM      7  C   UNL     1      46.675   4.382  14.466  0.00  0.00    +0.000 C 
BRANCH   7  10
ATOM      8  O   UNL     1      48.685   4.688  16.368  0.00  0.00    +0.000 OA
ATOM      9  C   UNL     1      48.326   5.675  15.732  0.00  0.00    +0.000 C 
ATOM     10  N   UNL     1      47.292   5.632  14.831  0.00  0.00    +0.000 N 
ATOM     11  H   UNL     1      47.174   6.401  14.180  0.00  0.00    +0.000 HD
BRANCH   9  12
ATOM     12  C   UNL     1      48.957   6.985  15.928  0.00  0.00    +0.000 A 
ATOM     13  C   UNL     1      49.032   7.545  17.195  0.00  0.00    +0.000 A 
ATOM     14  S   UNL     1      49.776   9.082  17.217  0.00  0.00    +0.000 S 
ATOM     15  C   UNL     1      50.065   9.028  15.541  0.00  0.00    +0.000 A 
ATOM     16  N   UNL     1      50.707  10.045  14.905  0.00  0.00    +0.000 NA
ATOM     17  C   UNL     1      50.894   9.850  13.642  0.00  0.00    +0.000 A 
ATOM     18  N   UNL     1      50.491   8.733  12.956  0.00  0.00    +0.000 N 
ATOM     19  C   UNL     1      49.807   7.703  13.546  0.00  0.00    +0.000 A 
ATOM     20  O   UNL     1      49.409   6.742  12.889  0.00  0.00    +0.000 OA
ATOM     21  C   UNL     1      49.586   7.862  14.971  0.00  0.00    +0.000 A 
ATOM     22  H   UNL     1      50.657   8.648  11.962  0.00  0.00    +0.000 HD
ENDBRANCH   9  12
ENDBRANCH   7  10
ENDBRANCH   1   7
BRANCH   4  23
ATOM     23  C   UNL     1      44.206   4.691   9.179  0.00  0.00    +0.000 C 
BRANCH  23  24
ATOM     24  N   UNL     1      44.545   3.572   8.327  0.00  0.00    +0.000 N 
ATOM     25  C   UNL     1      45.735   3.580   7.637  0.00  0.00    +0.000 C 
ATOM     26  O   UNL     1      46.509   4.535   7.650  0.00  0.00    +0.000 OA
ATOM     27  H   UNL     1      44.013   2.716   8.416  0.00  0.00    +0.000 HD
BRANCH  25  28
ATOM     28  C   UNL     1      45.984   2.359   6.761  0.00  0.00    +0.000 C 
ATOM     29  C   UNL     1      46.341   2.810   5.334  0.00  0.00    +0.000 C 
ATOM     30  C   UNL     1      47.738   2.258   5.042  0.00  0.00    +0.000 C 
ATOM     31  C   UNL     1      48.368   2.047   6.409  0.00  0.00    +0.000 C 
ATOM     32  C   UNL     1      47.198   1.551   7.251  0.00  0.00    +0.000 C 
BRANCH  31  33
ATOM     33  O   UNL     1      48.914   3.264   6.893  0.00  0.00    +0.000 OA
ATOM     34  H   UNL     1      49.648   3.074   7.516  0.00  0.00    +0.000 HD
ENDBRANCH  31  33
ENDBRANCH  25  28
ENDBRANCH  23  24
ENDBRANCH   4  23
TORSDOF 7
ENDMDL
MODEL 4
REMARK VINA RESULT:    -7.101      1.836      2.646
REMARK INTER + INTRA:         -10.966
REMARK INTER:                  -9.749
REMARK INTRA:                  -1.217
REMARK UNBOUND:                -1.167
REMARK  Name = 
REMARK  7 active torsions:
REMARK  status: ('A' for Active; 'I' for Inactive)
REMARK    1  A    between atoms: C_2  and  C_21
REMARK    2  A    between atoms: N_3  and  C_4
REMARK    3  A    between atoms: C_4  and  C_5
REMARK    4  A    between atoms: C_8  and  C_9
REMARK    5  A    between atoms: C_9  and  N_10
REMARK    6  A    between atoms: C_11  and  C_13
REMARK    7  A    between atoms: C_16  and  O_17
REMARK                            x       y       z     vdW  Elec       q    Type
REMARK                         _______ _______ _______ _____ _____    ______ ____
ROOT
ATOM      1  C   UNL     1      49.440   6.641  16.177  0.00  0.00    +0.000 A 
ATOM      2  C   UNL     1      48.500   5.727  16.674  0.00  0.00    +0.000 A 
ATOM      3  C   UNL     1      48.908   4.624  17.434  0.00  0.00    +0.000 A 
ATOM      4  C   UNL     1      50.263   4.424  17.731  0.00  0.00    +0.000 A 
ATOM      5  C   UNL     1      51.200   5.346  17.246  0.00  0.00    +0.000 A 
ATOM      6  C   UNL     1      50.792   6.449  16.488  0.00  0.00    +0.000 A 
ENDROOT
BRANCH   1   7
ATOM      7  C   UNL     1      48.996   7.823  15.353  0.00  0.00    +0.000 C 
BRANCH   7  10
ATOM      8  O   UNL     1      49.014   6.526  12.889  0.00  0.00    +0.000 OA
ATOM      9  C   UNL     1      47.932   6.805  13.396  0.00  0.00    +0.000 C 
ATOM     10  N   UNL     1      47.829   7.510  14.569  0.00  0.00    +0.000 N 
ATOM     11  H   UNL     1      46.939   7.528  15.056  0.00  0.00    +0.000 HD
BRANCH   9  12
ATOM     12  C   UNL     1      46.665   6.436  12.751  0.00  0.00    +0.000 A 
ATOM     13  C   UNL     1      45.911   7.393  12.089  0.00  0.00    +0.000 A 
ATOM     14  S   UNL     1      44.461   6.779  11.429  0.00  0.00    +0.000 S 
ATOM     15  C   UNL     1      44.818   5.204  11.965  0.00  0.00    +0.000 A 
ATOM     16  N   UNL     1      43.980   4.165  11.703  0.00  0.00    +0.000 NA
ATOM     17  C   UNL     1      44.398   3.022  12.133  0.00  0.00    +0.000 A 
ATOM     18  N   UNL     1      45.576   2.824  12.808  0.00  0.00    +0.000 N 
ATOM     19  C   UNL     1      46.430   3.845  13.129  0.00  0.00    +0.000 A 
ATOM     20  O   UNL     1      47.450   3.641  13.787  0.00  0.00    +0.000 OA
ATOM     21  C   UNL     1      46.018   5.152  12.652  0.00  0.00    +0.000 A 
ATOM     22  H   UNL     1      45.839   1.903  13.131  0.00  0.00    +0.000 HD
ENDBRANCH   9  12
ENDBRANCH   7  10
ENDBRANCH   1   7
BRANCH   4  23
ATOM     23  C   UNL     1      50.702   3.255  18.573  0.00  0.00    +0.000 C 
BRANCH  23  24
ATOM     24  N   UNL     1      52.079   2.881  18.336  0.00  0.00    +0.000 N 
ATOM     25  C   UNL     1      52.361   1.715  17.663  0.00  0.00    +0.000 C 
ATOM     26  O   UNL     1      51.491   0.923  17.306  0.00  0.00    +0.000 OA
ATOM     27  H   UNL     1      52.801   3.577  18.475  0.00  0.00    +0.000 HD
BRANCH  25  28
ATOM     28  C   UNL     1      53.843   1.413  17.481  0.00  0.00    +0.000 C 
ATOM     29  C   UNL     1      54.544   1.423  18.850  0.00  0.00    +0.000 C 
ATOM     30  C   UNL     1      55.146   0.029  19.038  0.00  0.00    +0.000 C 
ATOM     31  C   UNL     1      54.323  -0.876  18.136  0.00  0.00    +0.000 C 
ATOM     32  C   UNL     1      54.066   0.000  16.915  0.00  0.00    +0.000 C 
BRANCH  31  33
ATOM     33  O   UNL     1      53.126  -1.268  18.791  0.00  0.00    +0.000 OA
ATOM     34  H   UNL     1      53.333  -1.912  19.501  0.00  0.00    +0.000 HD
ENDBRANCH  31  33
ENDBRANCH  25  28
ENDBRANCH  23  24
ENDBRANCH   4  23
TORSDOF 7
ENDMDL
MODEL 5
REMARK VINA RESULT:    -7.086      2.964      9.990
REMARK INTER + INTRA:         -10.945
REMARK INTER:                  -9.980
REMARK INTRA:                  -0.965
REMARK UNBOUND:                -1.167
REMARK  Name = 
REMARK  7 active torsions:
REMARK  status: ('A' for Active; 'I' for Inactive)
REMARK    1  A    between atoms: C_2  and  C_21
REMARK    2  A    between atoms: N_3  and  C_4
REMARK    3  A    between atoms: C_4  and  C_5
REMARK    4  A    between atoms: C_8  and  C_9
REMARK    5  A    between atoms: C_9  and  N_10
REMARK    6  A    between atoms: C_11  and  C_13
REMARK    7  A    between atoms: C_16  and  O_17
REMARK                            x       y       z     vdW  Elec       q    Type
REMARK                         _______ _______ _______ _____ _____    ______ ____
ROOT
ATOM      1  C   UNL     1      48.060   5.146  15.969  0.00  0.00    +0.000 A 
ATOM      2  C   UNL     1      47.140   4.404  15.216  0.00  0.00    +0.000 A 
ATOM      3  C   UNL     1      46.758   4.825  13.936  0.00  0.00    +0.000 A 
ATOM      4  C   UNL     1      47.307   5.986  13.374  0.00  0.00    +0.000 A 
ATOM      5  C   UNL     1      48.238   6.719  14.122  0.00  0.00    +0.000 A 
ATOM      6  C   UNL     1      48.620   6.298  15.400  0.00  0.00    +0.000 A 
ENDROOT
BRANCH   1   7
ATOM      7  C   UNL     1      48.462   4.692  17.350  0.00  0.00    +0.000 C 
BRANCH   7  10
ATOM      8  O   UNL     1      50.068   4.773  19.622  0.00  0.00    +0.000 OA
ATOM      9  C   UNL     1      50.545   4.326  18.583  0.00  0.00    +0.000 C 
ATOM     10  N   UNL     1      49.851   4.318  17.399  0.00  0.00    +0.000 N 
ATOM     11  H   UNL     1      50.195   3.751  16.632  0.00  0.00    +0.000 HD
BRANCH   9  12
ATOM     12  C   UNL     1      51.916   3.804  18.532  0.00  0.00    +0.000 A 
ATOM     13  C   UNL     1      52.967   4.544  19.053  0.00  0.00    +0.000 A 
ATOM     14  S   UNL     1      54.487   3.785  18.876  0.00  0.00    +0.000 S 
ATOM     15  C   UNL     1      53.783   2.423  18.138  0.00  0.00    +0.000 A 
ATOM     16  N   UNL     1      54.542   1.362  17.751  0.00  0.00    +0.000 NA
ATOM     17  C   UNL     1      53.870   0.383  17.245  0.00  0.00    +0.000 A 
ATOM     18  N   UNL     1      52.508   0.370  17.084  0.00  0.00    +0.000 N 
ATOM     19  C   UNL     1      51.709   1.430  17.423  0.00  0.00    +0.000 A 
ATOM     20  O   UNL     1      50.497   1.408  17.211  0.00  0.00    +0.000 OA
ATOM     21  C   UNL     1      52.411   2.553  18.015  0.00  0.00    +0.000 A 
ATOM     22  H   UNL     1      52.043  -0.425  16.667  0.00  0.00    +0.000 HD
ENDBRANCH   9  12
ENDBRANCH   7  10
ENDBRANCH   1   7
BRANCH   4  23
ATOM     23  C   UNL     1      46.921   6.426  11.986  0.00  0.00    +0.000 C 
BRANCH  23  24
ATOM     24  N   UNL     1      45.906   5.584  11.393  0.00  0.00    +0.000 N 
ATOM     25  C   UNL     1      44.608   6.033  11.320  0.00  0.00    +0.000 C 
ATOM     26  O   UNL     1      44.243   7.103  11.804  0.00  0.00    +0.000 OA
ATOM     27  H   UNL     1      46.198   4.779  10.854  0.00  0.00    +0.000 HD
BRANCH  25  28
ATOM     28  C   UNL     1      43.620   5.060  10.689  0.00  0.00    +0.000 C 
ATOM     29  C   UNL     1      44.362   4.132   9.712  0.00  0.00    +0.000 C 
ATOM     30  C   UNL     1      44.146   2.705  10.222  0.00  0.00    +0.000 C 
ATOM     31  C   UNL     1      43.838   2.863  11.702  0.00  0.00    +0.000 C 
ATOM     32  C   UNL     1      42.993   4.131  11.742  0.00  0.00    +0.000 C 
BRANCH  31  33
ATOM     33  O   UNL     1      45.041   2.983  12.446  0.00  0.00    +0.000 OA
ATOM     34  H   UNL     1      45.803   2.710  11.891  0.00  0.00    +0.000 HD
ENDBRANCH  31  33
ENDBRANCH  25  28
ENDBRANCH  23  24
ENDBRANCH   4  23
TORSDOF 7
ENDMDL
MODEL 6
REMARK VINA RESULT:    -7.065      4.462      9.368
REMARK INTER + INTRA:         -10.916
REMARK INTER:                  -9.199
REMARK INTRA:                  -1.717
REMARK UNBOUND:                -1.167
REMARK  Name = 
REMARK  7 active torsions:
REMARK  status: ('A' for Active; 'I' for Inactive)
REMARK    1  A    between atoms: C_2  and  C_21
REMARK    2  A    between atoms: N_3  and  C_4
REMARK    3  A    between atoms: C_4  and  C_5
REMARK    4  A    between atoms: C_8  and  C_9
REMARK    5  A    between atoms: C_9  and  N_10
REMARK    6  A    between atoms: C_11  and  C_13
REMARK    7  A    between atoms: C_16  and  O_17
REMARK                            x       y       z     vdW  Elec       q    Type
REMARK                         _______ _______ _______ _____ _____    ______ ____
ROOT
ATOM      1  C   UNL     1      48.465   7.970  13.160  0.00  0.00    +0.000 A 
ATOM      2  C   UNL     1      47.549   8.985  13.469  0.00  0.00    +0.000 A 
ATOM      3  C   UNL     1      46.277   9.002  12.884  0.00  0.00    +0.000 A 
ATOM      4  C   UNL     1      45.888   7.993  11.994  0.00  0.00    +0.000 A 
ATOM      5  C   UNL     1      46.799   6.971  11.697  0.00  0.00    +0.000 A 
ATOM      6  C   UNL     1      48.070   6.952  12.282  0.00  0.00    +0.000 A 
ENDROOT
BRANCH   1   7
ATOM      7  C   UNL     1      49.836   7.960  13.787  0.00  0.00    +0.000 C 
BRANCH   7  10
ATOM      8  O   UNL     1      49.337   8.482  16.476  0.00  0.00    +0.000 OA
ATOM      9  C   UNL     1      49.589   7.328  16.140  0.00  0.00    +0.000 C 
ATOM     10  N   UNL     1      49.923   6.994  14.851  0.00  0.00    +0.000 N 
ATOM     11  H   UNL     1      49.910   6.017  14.578  0.00  0.00    +0.000 HD
BRANCH   9  12
ATOM     12  C   UNL     1      49.594   6.229  17.114  0.00  0.00    +0.000 A 
ATOM     13  C   UNL     1      50.441   6.269  18.211  0.00  0.00    +0.000 A 
ATOM     14  S   UNL     1      50.321   4.892  19.213  0.00  0.00    +0.000 S 
ATOM     15  C   UNL     1      49.099   4.219  18.238  0.00  0.00    +0.000 A 
ATOM     16  N   UNL     1      48.523   3.028  18.554  0.00  0.00    +0.000 NA
ATOM     17  C   UNL     1      47.582   2.661  17.749  0.00  0.00    +0.000 A 
ATOM     18  N   UNL     1      47.170   3.375  16.652  0.00  0.00    +0.000 N 
ATOM     19  C   UNL     1      47.747   4.558  16.273  0.00  0.00    +0.000 A 
ATOM     20  O   UNL     1      47.393   5.142  15.251  0.00  0.00    +0.000 OA
ATOM     21  C   UNL     1      48.800   5.027  17.155  0.00  0.00    +0.000 A 
ATOM     22  H   UNL     1      46.435   3.024  16.053  0.00  0.00    +0.000 HD
ENDBRANCH   9  12
ENDBRANCH   7  10
ENDBRANCH   1   7
BRANCH   4  23
ATOM     23  C   UNL     1      44.510   7.992  11.385  0.00  0.00    +0.000 C 
BRANCH  23  24
ATOM     24  N   UNL     1      44.133   6.700  10.854  0.00  0.00    +0.000 N 
ATOM     25  C   UNL     1      43.483   5.797  11.664  0.00  0.00    +0.000 C 
ATOM     26  O   UNL     1      43.265   6.005  12.856  0.00  0.00    +0.000 OA
ATOM     27  H   UNL     1      44.157   6.562   9.852  0.00  0.00    +0.000 HD
BRANCH  25  28
ATOM     28  C   UNL     1      43.145   4.465  11.007  0.00  0.00    +0.000 C 
ATOM     29  C   UNL     1      44.121   4.197   9.848  0.00  0.00    +0.000 C 
ATOM     30  C   UNL     1      44.842   2.890  10.183  0.00  0.00    +0.000 C 
ATOM     31  C   UNL     1      44.734   2.760  11.693  0.00  0.00    +0.000 C 
ATOM     32  C   UNL     1      43.334   3.291  11.982  0.00  0.00    +0.000 C 
BRANCH  31  33
ATOM     33  O   UNL     1      45.750   3.521  12.327  0.00  0.00    +0.000 OA
ATOM     34  H   UNL     1      46.211   4.077  11.663  0.00  0.00    +0.000 HD
ENDBRANCH  31  33
ENDBRANCH  25  28
ENDBRANCH  23  24
ENDBRANCH   4  23
TORSDOF 7
ENDMDL
MODEL 7
REMARK VINA RESULT:    -6.872      2.194      3.442
REMARK INTER + INTRA:         -10.650
REMARK INTER:                  -9.434
REMARK INTRA:                  -1.216
REMARK UNBOUND:                -1.167
REMARK  Name = 
REMARK  7 active torsions:
REMARK  status: ('A' for Active; 'I' for Inactive)
REMARK    1  A    between atoms: C_2  and  C_21
REMARK    2  A    between atoms: N_3  and  C_4
REMARK    3  A    between atoms: C_4  and  C_5
REMARK    4  A    between atoms: C_8  and  C_9
REMARK    5  A    between atoms: C_9  and  N_10
REMARK    6  A    between atoms: C_11  and  C_13
REMARK    7  A    between atoms: C_16  and  O_17
REMARK                            x       y       z     vdW  Elec       q    Type
REMARK                         _______ _______ _______ _____ _____    ______ ____
ROOT
ATOM      1  C   UNL     1      48.662   3.496  17.241  0.00  0.00    +0.000 A 
ATOM      2  C   UNL     1      49.541   2.427  17.020  0.00  0.00    +0.000 A 
ATOM      3  C   UNL     1      50.883   2.512  17.408  0.00  0.00    +0.000 A 
ATOM      4  C   UNL     1      51.369   3.660  18.048  0.00  0.00    +0.000 A 
ATOM      5  C   UNL     1      50.486   4.722  18.282  0.00  0.00    +0.000 A 
ATOM      6  C   UNL     1      49.145   4.638  17.894  0.00  0.00    +0.000 A 
ENDROOT
BRANCH   1   7
ATOM      7  C   UNL     1      47.219   3.403  16.813  0.00  0.00    +0.000 C 
BRANCH   7  10
ATOM      8  O   UNL     1      47.281   3.119  14.044  0.00  0.00    +0.000 OA
ATOM      9  C   UNL     1      46.875   4.178  14.516  0.00  0.00    +0.000 C 
ATOM     10  N   UNL     1      46.883   4.432  15.864  0.00  0.00    +0.000 N 
ATOM     11  H   UNL     1      46.347   5.217  16.219  0.00  0.00    +0.000 HD
BRANCH   9  12
ATOM     12  C   UNL     1      46.394   5.266  13.656  0.00  0.00    +0.000 A 
ATOM     13  C   UNL     1      47.169   6.398  13.457  0.00  0.00    +0.000 A 
ATOM     14  S   UNL     1      46.430   7.561  12.450  0.00  0.00    +0.000 S 
ATOM     15  C   UNL     1      45.069   6.568  12.208  0.00  0.00    +0.000 A 
ATOM     16  N   UNL     1      44.043   6.963  11.406  0.00  0.00    +0.000 NA
ATOM     17  C   UNL     1      43.098   6.093  11.281  0.00  0.00    +0.000 A 
ATOM     18  N   UNL     1      43.082   4.864  11.892  0.00  0.00    +0.000 N 
ATOM     19  C   UNL     1      44.073   4.440  12.737  0.00  0.00    +0.000 A 
ATOM     20  O   UNL     1      43.998   3.356  13.315  0.00  0.00    +0.000 OA
ATOM     21  C   UNL     1      45.171   5.374  12.899  0.00  0.00    +0.000 A 
ATOM     22  H   UNL     1      42.304   4.233  11.763  0.00  0.00    +0.000 HD
ENDBRANCH   9  12
ENDBRANCH   7  10
ENDBRANCH   1   7
BRANCH   4  23
ATOM     23  C   UNL     1      52.805   3.743  18.494  0.00  0.00    +0.000 C 
BRANCH  23  24
ATOM     24  N   UNL     1      53.505   4.870  17.919  0.00  0.00    +0.000 N 
ATOM     25  C   UNL     1      54.603   4.653  17.118  0.00  0.00    +0.000 C 
ATOM     26  O   UNL     1      55.071   3.533  16.918  0.00  0.00    +0.000 OA
ATOM     27  H   UNL     1      53.059   5.778  17.936  0.00  0.00    +0.000 HD
BRANCH  25  28
ATOM     28  C   UNL     1      55.270   5.910  16.577  0.00  0.00    +0.000 C 
ATOM     29  C   UNL     1      55.306   5.856  15.040  0.00  0.00    +0.000 C 
ATOM     30  C   UNL     1      54.524   7.075  14.546  0.00  0.00    +0.000 C 
ATOM     31  C   UNL     1      53.600   7.438  15.697  0.00  0.00    +0.000 C 
ATOM     32  C   UNL     1      54.462   7.172  16.925  0.00  0.00    +0.000 C 
BRANCH  31  33
ATOM     33  O   UNL     1      52.431   6.633  15.663  0.00  0.00    +0.000 OA
ATOM     34  H   UNL     1      51.999   6.711  14.785  0.00  0.00    +0.000 HD
ENDBRANCH  31  33
ENDBRANCH  25  28
ENDBRANCH  23  24
ENDBRANCH   4  23
TORSDOF 7
ENDMDL
MODEL 8
REMARK VINA RESULT:    -6.716      4.720      7.269
REMARK INTER + INTRA:         -10.435
REMARK INTER:                  -9.447
REMARK INTRA:                  -0.988
REMARK UNBOUND:                -1.167
REMARK  Name = 
REMARK  7 active torsions:
REMARK  status: ('A' for Active; 'I' for Inactive)
REMARK    1  A    between atoms: C_2  and  C_21
REMARK    2  A    between atoms: N_3  and  C_4
REMARK    3  A    between atoms: C_4  and  C_5
REMARK    4  A    between atoms: C_8  and  C_9
REMARK    5  A    between atoms: C_9  and  N_10
REMARK    6  A    between atoms: C_11  and  C_13
REMARK    7  A    between atoms: C_16  and  O_17
REMARK                            x       y       z     vdW  Elec       q    Type
REMARK                         _______ _______ _______ _____ _____    ______ ____
ROOT
ATOM      1  C   UNL     1      45.560   5.796  11.752  0.00  0.00    +0.000 A 
ATOM      2  C   UNL     1      46.386   5.112  12.656  0.00  0.00    +0.000 A 
ATOM      3  C   UNL     1      47.256   5.812  13.499  0.00  0.00    +0.000 A 
ATOM      4  C   UNL     1      47.303   7.213  13.472  0.00  0.00    +0.000 A 
ATOM      5  C   UNL     1      46.467   7.895  12.579  0.00  0.00    +0.000 A 
ATOM      6  C   UNL     1      45.596   7.196  11.737  0.00  0.00    +0.000 A 
ENDROOT
BRANCH   1   7
ATOM      7  C   UNL     1      44.630   5.035  10.841  0.00  0.00    +0.000 C 
BRANCH   7  10
ATOM      8  O   UNL     1      43.684   2.527  10.090  0.00  0.00    +0.000 OA
ATOM      9  C   UNL     1      44.769   2.899   9.652  0.00  0.00    +0.000 C 
ATOM     10  N   UNL     1      45.346   4.086  10.029  0.00  0.00    +0.000 N 
ATOM     11  H   UNL     1      46.123   4.449   9.487  0.00  0.00    +0.000 HD
BRANCH   9  12
ATOM     12  C   UNL     1      45.545   2.070   8.722  0.00  0.00    +0.000 A 
ATOM     13  C   UNL     1      45.469   0.687   8.785  0.00  0.00    +0.000 A 
ATOM     14  S   UNL     1      46.463  -0.102   7.642  0.00  0.00    +0.000 S 
ATOM     15  C   UNL     1      46.992   1.380   6.995  0.00  0.00    +0.000 A 
ATOM     16  N   UNL     1      47.857   1.422   5.947  0.00  0.00    +0.000 NA
ATOM     17  C   UNL     1      48.138   2.612   5.534  0.00  0.00    +0.000 A 
ATOM     18  N   UNL     1      47.637   3.767   6.079  0.00  0.00    +0.000 N 
ATOM     19  C   UNL     1      46.794   3.775   7.159  0.00  0.00    +0.000 A 
ATOM     20  O   UNL     1      46.410   4.831   7.660  0.00  0.00    +0.000 OA
ATOM     21  C   UNL     1      46.430   2.461   7.653  0.00  0.00    +0.000 A 
ATOM     22  H   UNL     1      47.908   4.670   5.716  0.00  0.00    +0.000 HD
ENDBRANCH   9  12
ENDBRANCH   7  10
ENDBRANCH   1   7
BRANCH   4  23
ATOM     23  C   UNL     1      48.217   7.971  14.399  0.00  0.00    +0.000 C 
BRANCH  23  24
ATOM     24  N   UNL     1      48.257   7.408  15.731  0.00  0.00    +0.000 N 
ATOM     25  C   UNL     1      49.412   6.814  16.184  0.00  0.00    +0.000 C 
ATOM     26  O   UNL     1      50.410   6.671  15.479  0.00  0.00    +0.000 OA
ATOM     27  H   UNL     1      47.518   7.646  16.380  0.00  0.00    +0.000 HD
BRANCH  25  28
ATOM     28  C   UNL     1      49.338   6.245  17.594  0.00  0.00    +0.000 C 
ATOM     29  C   UNL     1      48.108   6.817  18.319  0.00  0.00    +0.000 C 
ATOM     30  C   UNL     1      47.232   5.620  18.695  0.00  0.00    +0.000 C 
ATOM     31  C   UNL     1      47.627   4.525  17.719  0.00  0.00    +0.000 C 
ATOM     32  C   UNL     1      49.132   4.721  17.577  0.00  0.00    +0.000 C 
BRANCH  31  33
ATOM     33  O   UNL     1      46.935   4.687  16.490  0.00  0.00    +0.000 OA
ATOM     34  H   UNL     1      47.499   4.379  15.749  0.00  0.00    +0.000 HD
ENDBRANCH  31  33
ENDBRANCH  25  28
ENDBRANCH  23  24
ENDBRANCH   4  23
TORSDOF 7
ENDMDL
MODEL 9
REMARK VINA RESULT:    -6.600      3.576      5.197
REMARK INTER + INTRA:         -10.274
REMARK INTER:                  -8.973
REMARK INTRA:                  -1.301
REMARK UNBOUND:                -1.167
REMARK  Name = 
REMARK  7 active torsions:
REMARK  status: ('A' for Active; 'I' for Inactive)
REMARK    1  A    between atoms: C_2  and  C_21
REMARK    2  A    between atoms: N_3  and  C_4
REMARK    3  A    between atoms: C_4  and  C_5
REMARK    4  A    between atoms: C_8  and  C_9
REMARK    5  A    between atoms: C_9  and  N_10
REMARK    6  A    between atoms: C_11  and  C_13
REMARK    7  A    between atoms: C_16  and  O_17
REMARK                            x       y       z     vdW  Elec       q    Type
REMARK                         _______ _______ _______ _____ _____    ______ ____
ROOT
ATOM      1  C   UNL     1      48.471   7.873  13.018  0.00  0.00    +0.000 A 
ATOM      2  C   UNL     1      48.265   6.986  14.084  0.00  0.00    +0.000 A 
ATOM      3  C   UNL     1      49.106   7.007  15.204  0.00  0.00    +0.000 A 
ATOM      4  C   UNL     1      50.155   7.931  15.290  0.00  0.00    +0.000 A 
ATOM      5  C   UNL     1      50.351   8.826  14.231  0.00  0.00    +0.000 A 
ATOM      6  C   UNL     1      49.511   8.806  13.112  0.00  0.00    +0.000 A 
ENDROOT
BRANCH   1   7
ATOM      7  C   UNL     1      47.567   7.840  11.811  0.00  0.00    +0.000 C 
BRANCH   7  10
ATOM      8  O   UNL     1      44.798   7.588  11.673  0.00  0.00    +0.000 OA
ATOM      9  C   UNL     1      45.484   6.573  11.589  0.00  0.00    +0.000 C 
ATOM     10  N   UNL     1      46.850   6.595  11.723  0.00  0.00    +0.000 N 
ATOM     11  H   UNL     1      47.385   5.784  11.434  0.00  0.00    +0.000 HD
BRANCH   9  12
ATOM     12  C   UNL     1      44.877   5.253  11.381  0.00  0.00    +0.000 A 
ATOM     13  C   UNL     1      44.081   4.685  12.364  0.00  0.00    +0.000 A 
ATOM     14  S   UNL     1      43.488   3.138  11.950  0.00  0.00    +0.000 S 
ATOM     15  C   UNL     1      44.238   3.198  10.423  0.00  0.00    +0.000 A 
ATOM     16  N   UNL     1      44.106   2.176   9.534  0.00  0.00    +0.000 NA
ATOM     17  C   UNL     1      44.693   2.376   8.402  0.00  0.00    +0.000 A 
ATOM     18  N   UNL     1      45.406   3.503   8.079  0.00  0.00    +0.000 N 
ATOM     19  C   UNL     1      45.598   4.538   8.955  0.00  0.00    +0.000 A 
ATOM     20  O   UNL     1      46.293   5.508   8.655  0.00  0.00    +0.000 OA
ATOM     21  C   UNL     1      44.943   4.374  10.240  0.00  0.00    +0.000 A 
ATOM     22  H   UNL     1      45.854   3.592   7.178  0.00  0.00    +0.000 HD
ENDBRANCH   9  12
ENDBRANCH   7  10
ENDBRANCH   1   7
BRANCH   4  23
ATOM     23  C   UNL     1      51.044   7.976  16.506  0.00  0.00    +0.000 C 
BRANCH  23  24
ATOM     24  N   UNL     1      50.702   6.969  17.487  0.00  0.00    +0.000 N 
ATOM     25  C   UNL     1      51.448   5.815  17.565  0.00  0.00    +0.000 C 
ATOM     26  O   UNL     1      52.362   5.557  16.784  0.00  0.00    +0.000 OA
ATOM     27  H   UNL     1      50.066   7.216  18.234  0.00  0.00    +0.000 HD
BRANCH  25  28
ATOM     28  C   UNL     1      50.992   4.819  18.623  0.00  0.00    +0.000 C 
ATOM     29  C   UNL     1      49.587   5.200  19.121  0.00  0.00    +0.000 C 
ATOM     30  C   UNL     1      48.681   4.006  18.815  0.00  0.00    +0.000 C 
ATOM     31  C   UNL     1      49.376   3.270  17.682  0.00  0.00    +0.000 C 
ATOM     32  C   UNL     1      50.851   3.402  18.041  0.00  0.00    +0.000 C 
BRANCH  31  33
ATOM     33  O   UNL     1      49.059   3.872  16.436  0.00  0.00    +0.000 OA
ATOM     34  H   UNL     1      49.759   4.514  16.190  0.00  0.00    +0.000 HD
ENDBRANCH  31  33
ENDBRANCH  25  28
ENDBRANCH  23  24
ENDBRANCH   4  23
TORSDOF 7
ENDMDL
