MODEL 1
REMARK VINA RESULT:    -7.391      0.000      0.000
REMARK INTER + INTRA:          -9.695
REMARK INTER:                  -9.119
REMARK INTRA:                  -0.576
REMARK UNBOUND:                -0.576
REMARK  Name = 
REMARK  6 active torsions:
REMARK  status: ('A' for Active; 'I' for Inactive)
REMARK    1  A    between atoms: C_1  and  C_2
REMARK    2  A    between atoms: C_2  and  C_3
REMARK    3  A    between atoms: C_2  and  C_4
REMARK    4  A    between atoms: C_2  and  C_19
REMARK    5  A    between atoms: C_4  and  N_5
REMARK    6  A    between atoms: C_10  and  C_11
REMARK                            x       y       z     vdW  Elec       q    Type
REMARK                         _______ _______ _______ _____ _____    ______ ____
ROOT
ATOM      1  N   UNL     1      45.453   4.903  12.275  0.00  0.00    +0.000 N 
ATOM      2  C   UNL     1      46.471   5.490  13.023  0.00  0.00    +0.000 A 
ATOM      3  N   UNL     1      47.175   6.507  12.506  0.00  0.00    +0.000 NA
ATOM      4  C   UNL     1      48.157   7.019  13.259  0.00  0.00    +0.000 A 
ATOM      5  C   UNL     1      48.468   6.552  14.508  0.00  0.00    +0.000 A 
ATOM      6  C   UNL     1      47.705   5.498  14.971  0.00  0.00    +0.000 A 
ATOM      7  N   UNL     1      46.699   4.969  14.235  0.00  0.00    +0.000 NA
ATOM      8  H   UNL     1      45.287   3.988  12.680  0.00  0.00    +0.000 HD
ENDROOT
BRANCH   6   9
ATOM      9  C   UNL     1      47.944   4.863  16.278  0.00  0.00    +0.000 A 
ATOM     10  C   UNL     1      47.697   3.501  16.517  0.00  0.00    +0.000 A 
ATOM     11  C   UNL     1      47.925   2.950  17.776  0.00  0.00    +0.000 A 
ATOM     12  C   UNL     1      48.403   3.776  18.776  0.00  0.00    +0.000 A 
ATOM     13  F   UNL     1      48.617   3.249  19.990  0.00  0.00    +0.000 F 
ATOM     14  N   UNL     1      48.663   5.084  18.606  0.00  0.00    +0.000 NA
ATOM     15  C   UNL     1      48.423   5.593  17.370  0.00  0.00    +0.000 A 
ENDBRANCH   6   9
BRANCH   1  16
ATOM     16  C   UNL     1      45.713   4.914  10.839  0.00  0.00    +0.000 C 
BRANCH  16  18
ATOM     17  C   UNL     1      44.260   2.865  11.055  0.00  0.00    +0.000 C 
ATOM     18  C   UNL     1      44.804   3.917  10.057  0.00  0.00    +0.000 C 
ATOM     19  C   UNL     1      43.577   4.715   9.545  0.00  0.00    +0.000 C 
BRANCH  18  20
ATOM     20  C   UNL     1      45.528   3.298   8.844  0.00  0.00    +0.000 A 
ATOM     21  C   UNL     1      46.044   4.080   7.795  0.00  0.00    +0.000 A 
ATOM     22  C   UNL     1      46.739   3.505   6.726  0.00  0.00    +0.000 A 
ATOM     23  C   UNL     1      46.935   2.129   6.678  0.00  0.00    +0.000 A 
ATOM     24  C   UNL     1      46.425   1.333   7.698  0.00  0.00    +0.000 A 
ATOM     25 CL   UNL     1      46.669  -0.370   7.650  0.00  0.00    +0.000 Cl
ATOM     26  C   UNL     1      45.727   1.904   8.765  0.00  0.00    +0.000 A 
ENDBRANCH  18  20
ENDBRANCH  16  18
ENDBRANCH   1  16
TORSDOF 4
ENDMDL
MODEL 2
REMARK VINA RESULT:    -7.235      4.479      8.516
REMARK INTER + INTRA:          -9.502
REMARK INTER:                  -8.765
REMARK INTRA:                  -0.737
REMARK UNBOUND:                -0.576
REMARK  Name = 
REMARK  6 active torsions:
REMARK  status: ('A' for Active; 'I' for Inactive)
REMARK    1  A    between atoms: C_1  and  C_2
REMARK    2  A    between atoms: C_2  and  C_3
REMARK    3  A    between atoms: C_2  and  C_4
REMARK    4  A    between atoms: C_2  and  C_19
REMARK    5  A    between atoms: C_4  and  N_5
REMARK    6  A    between atoms: C_10  and  C_11
REMARK                            x       y       z     vdW  Elec       q    Type
REMARK                         _______ _______ _______ _____ _____    ______ ____
ROOT
ATOM      1  N   UNL     1      45.436   6.671  11.116  0.00  0.00    +0.000 N 
ATOM      2  C   UNL     1      45.067   5.374  10.764  0.00  0.00    +0.000 A 
ATOM      3  N   UNL     1      44.202   4.697  11.531  0.00  0.00    +0.000 NA
ATOM      4  C   UNL     1      43.898   3.447  11.159  0.00  0.00    +0.000 A 
ATOM      5  C   UNL     1      44.431   2.843  10.051  0.00  0.00    +0.000 A 
ATOM      6  C   UNL     1      45.321   3.600   9.314  0.00  0.00    +0.000 A 
ATOM      7  N   UNL     1      45.636   4.870   9.662  0.00  0.00    +0.000 NA
ATOM      8  H   UNL     1      46.306   6.866  10.632  0.00  0.00    +0.000 HD
ENDROOT
BRANCH   6   9
ATOM      9  C   UNL     1      46.004   3.075   8.119  0.00  0.00    +0.000 A 
ATOM     10  C   UNL     1      46.438   1.742   8.018  0.00  0.00    +0.000 A 
ATOM     11  C   UNL     1      47.093   1.296   6.872  0.00  0.00    +0.000 A 
ATOM     12  C   UNL     1      47.300   2.195   5.843  0.00  0.00    +0.000 A 
ATOM     13  F   UNL     1      47.936   1.769   4.743  0.00  0.00    +0.000 F 
ATOM     14  N   UNL     1      46.903   3.479   5.881  0.00  0.00    +0.000 NA
ATOM     15  C   UNL     1      46.275   3.886   7.014  0.00  0.00    +0.000 A 
ENDBRANCH   6   9
BRANCH   1  16
ATOM     16  C   UNL     1      45.461   6.891  12.558  0.00  0.00    +0.000 C 
BRANCH  16  18
ATOM     17  C   UNL     1      47.882   7.148  11.904  0.00  0.00    +0.000 C 
ATOM     18  C   UNL     1      46.897   7.170  13.099  0.00  0.00    +0.000 C 
ATOM     19  C   UNL     1      46.909   8.618  13.653  0.00  0.00    +0.000 C 
BRANCH  18  20
ATOM     20  C   UNL     1      47.289   6.205  14.237  0.00  0.00    +0.000 A 
ATOM     21  C   UNL     1      46.753   4.909  14.343  0.00  0.00    +0.000 A 
ATOM     22  C   UNL     1      47.155   4.030  15.354  0.00  0.00    +0.000 A 
ATOM     23  C   UNL     1      48.106   4.427  16.288  0.00  0.00    +0.000 A 
ATOM     24  C   UNL     1      48.643   5.707  16.211  0.00  0.00    +0.000 A 
ATOM     25 CL   UNL     1      49.824   6.204  17.360  0.00  0.00    +0.000 Cl
ATOM     26  C   UNL     1      48.240   6.589  15.204  0.00  0.00    +0.000 A 
ENDBRANCH  18  20
ENDBRANCH  16  18
ENDBRANCH   1  16
TORSDOF 4
ENDMDL
MODEL 3
REMARK VINA RESULT:    -7.058      2.161      3.318
REMARK INTER + INTRA:          -9.285
REMARK INTER:                  -8.689
REMARK INTRA:                  -0.596
REMARK UNBOUND:                -0.576
REMARK  Name = 
REMARK  6 active torsions:
REMARK  status: ('A' for Active; 'I' for Inactive)
REMARK    1  A    between atoms: C_1  and  C_2
REMARK    2  A    between atoms: C_2  and  C_3
REMARK    3  A    between atoms: C_2  and  C_4
REMARK    4  A    between atoms: C_2  and  C_19
REMARK    5  A    between atoms: C_4  and  N_5
REMARK    6  A    between atoms: C_10  and  C_11
REMARK                            x       y       z     vdW  Elec       q    Type
REMARK                         _______ _______ _______ _____ _____    ______ ____
ROOT
ATOM      1  N   UNL     1      46.626   5.197  14.107  0.00  0.00    +0.000 N 
ATOM      2  C   UNL     1      47.331   4.585  15.141  0.00  0.00    +0.000 A 
ATOM      3  N   UNL     1      47.528   3.260  15.119  0.00  0.00    +0.000 NA
ATOM      4  C   UNL     1      48.193   2.720  16.149  0.00  0.00    +0.000 A 
ATOM      5  C   UNL     1      48.665   3.453  17.205  0.00  0.00    +0.000 A 
ATOM      6  C   UNL     1      48.417   4.811  17.162  0.00  0.00    +0.000 A 
ATOM      7  N   UNL     1      47.757   5.383  16.127  0.00  0.00    +0.000 NA
ATOM      8  H   UNL     1      46.306   6.092  14.464  0.00  0.00    +0.000 HD
ENDROOT
BRANCH   6   9
ATOM      9  C   UNL     1      48.830   5.724  18.242  0.00  0.00    +0.000 A 
ATOM     10  C   UNL     1      48.176   5.772  19.485  0.00  0.00    +0.000 A 
ATOM     11  C   UNL     1      48.594   6.664  20.471  0.00  0.00    +0.000 A 
ATOM     12  C   UNL     1      49.666   7.491  20.195  0.00  0.00    +0.000 A 
ATOM     13  F   UNL     1      50.065   8.354  21.139  0.00  0.00    +0.000 F 
ATOM     14  N   UNL     1      50.333   7.486  19.027  0.00  0.00    +0.000 NA
ATOM     15  C   UNL     1      49.897   6.612  18.084  0.00  0.00    +0.000 A 
ENDBRANCH   6   9
BRANCH   1  16
ATOM     16  C   UNL     1      45.587   4.345  13.536  0.00  0.00    +0.000 C 
BRANCH  16  18
ATOM     17  C   UNL     1      43.208   4.905  12.920  0.00  0.00    +0.000 C 
ATOM     18  C   UNL     1      44.688   5.101  12.510  0.00  0.00    +0.000 C 
ATOM     19  C   UNL     1      44.990   6.615  12.657  0.00  0.00    +0.000 C 
BRANCH  18  20
ATOM     20  C   UNL     1      44.984   4.680  11.056  0.00  0.00    +0.000 A 
ATOM     21  C   UNL     1      45.586   5.549  10.128  0.00  0.00    +0.000 A 
ATOM     22  C   UNL     1      45.890   5.135   8.827  0.00  0.00    +0.000 A 
ATOM     23  C   UNL     1      45.596   3.838   8.419  0.00  0.00    +0.000 A 
ATOM     24  C   UNL     1      44.991   2.964   9.313  0.00  0.00    +0.000 A 
ATOM     25 CL   UNL     1      44.629   1.355   8.818  0.00  0.00    +0.000 Cl
ATOM     26  C   UNL     1      44.683   3.375  10.613  0.00  0.00    +0.000 A 
ENDBRANCH  18  20
ENDBRANCH  16  18
ENDBRANCH   1  16
TORSDOF 4
ENDMDL
MODEL 4
REMARK VINA RESULT:    -7.012      4.268      8.661
REMARK INTER + INTRA:          -9.227
REMARK INTER:                  -8.637
REMARK INTRA:                  -0.590
REMARK UNBOUND:                -0.576
REMARK  Name = 
REMARK  6 active torsions:
REMARK  status: ('A' for Active; 'I' for Inactive)
REMARK    1  A    between atoms: C_1  and  C_2
REMARK    2  A    between atoms: C_2  and  C_3
REMARK    3  A    between atoms: C_2  and  C_4
REMARK    4  A    between atoms: C_2  and  C_19
REMARK    5  A    between atoms: C_4  and  N_5
REMARK    6  A    between atoms: C_10  and  C_11
REMARK                            x       y       z     vdW  Elec       q    Type
REMARK                         _______ _______ _______ _____ _____    ______ ____
ROOT
ATOM      1  N   UNL     1      46.941   4.855  14.298  0.00  0.00    +0.000 N 
ATOM      2  C   UNL     1      45.819   4.607  13.511  0.00  0.00    +0.000 A 
ATOM      3  N   UNL     1      44.601   4.604  14.071  0.00  0.00    +0.000 NA
ATOM      4  C   UNL     1      43.559   4.339  13.273  0.00  0.00    +0.000 A 
ATOM      5  C   UNL     1      43.685   4.071  11.936  0.00  0.00    +0.000 A 
ATOM      6  C   UNL     1      44.971   4.085  11.431  0.00  0.00    +0.000 A 
ATOM      7  N   UNL     1      46.041   4.361  12.214  0.00  0.00    +0.000 NA
ATOM      8  H   UNL     1      47.739   4.493  13.787  0.00  0.00    +0.000 HD
ENDROOT
BRANCH   6   9
ATOM      9  C   UNL     1      45.270   3.779  10.022  0.00  0.00    +0.000 A 
ATOM     10  C   UNL     1      45.202   2.478   9.497  0.00  0.00    +0.000 A 
ATOM     11  C   UNL     1      45.509   2.236   8.160  0.00  0.00    +0.000 A 
ATOM     12  C   UNL     1      45.876   3.308   7.368  0.00  0.00    +0.000 A 
ATOM     13  F   UNL     1      46.178   3.077   6.083  0.00  0.00    +0.000 F 
ATOM     14  N   UNL     1      45.953   4.574   7.812  0.00  0.00    +0.000 NA
ATOM     15  C   UNL     1      45.656   4.776   9.122  0.00  0.00    +0.000 A 
ENDBRANCH   6   9
BRANCH   1  16
ATOM     16  C   UNL     1      46.803   4.368  15.667  0.00  0.00    +0.000 C 
BRANCH  16  18
ATOM     17  C   UNL     1      48.460   6.236  16.015  0.00  0.00    +0.000 C 
ATOM     18  C   UNL     1      47.915   4.916  16.614  0.00  0.00    +0.000 C 
ATOM     19  C   UNL     1      47.236   5.288  17.957  0.00  0.00    +0.000 C 
BRANCH  18  20
ATOM     20  C   UNL     1      49.012   3.868  16.891  0.00  0.00    +0.000 A 
ATOM     21  C   UNL     1      48.861   2.512  16.551  0.00  0.00    +0.000 A 
ATOM     22  C   UNL     1      49.885   1.584  16.767  0.00  0.00    +0.000 A 
ATOM     23  C   UNL     1      51.089   1.990  17.332  0.00  0.00    +0.000 A 
ATOM     24  C   UNL     1      51.259   3.323  17.687  0.00  0.00    +0.000 A 
ATOM     25 CL   UNL     1      52.749   3.835  18.381  0.00  0.00    +0.000 Cl
ATOM     26  C   UNL     1      50.237   4.252  17.476  0.00  0.00    +0.000 A 
ENDBRANCH  18  20
ENDBRANCH  16  18
ENDBRANCH   1  16
TORSDOF 4
ENDMDL
MODEL 5
REMARK VINA RESULT:    -6.963      4.434      8.100
REMARK INTER + INTRA:          -9.168
REMARK INTER:                  -8.473
REMARK INTRA:                  -0.695
REMARK UNBOUND:                -0.576
REMARK  Name = 
REMARK  6 active torsions:
REMARK  status: ('A' for Active; 'I' for Inactive)
REMARK    1  A    between atoms: C_1  and  C_2
REMARK    2  A    between atoms: C_2  and  C_3
REMARK    3  A    between atoms: C_2  and  C_4
REMARK    4  A    between atoms: C_2  and  C_19
REMARK    5  A    between atoms: C_4  and  N_5
REMARK    6  A    between atoms: C_10  and  C_11
REMARK                            x       y       z     vdW  Elec       q    Type
REMARK                         _______ _______ _______ _____ _____    ______ ____
ROOT
ATOM      1  N   UNL     1      46.315   7.490  11.456  0.00  0.00    +0.000 N 
ATOM      2  C   UNL     1      45.430   6.460  11.148  0.00  0.00    +0.000 A 
ATOM      3  N   UNL     1      44.247   6.389  11.775  0.00  0.00    +0.000 NA
ATOM      4  C   UNL     1      43.443   5.367  11.457  0.00  0.00    +0.000 A 
ATOM      5  C   UNL     1      43.777   4.406  10.540  0.00  0.00    +0.000 A 
ATOM      6  C   UNL     1      45.014   4.540   9.941  0.00  0.00    +0.000 A 
ATOM      7  N   UNL     1      45.841   5.571  10.236  0.00  0.00    +0.000 NA
ATOM      8  H   UNL     1      47.233   7.185  11.147  0.00  0.00    +0.000 HD
ENDROOT
BRANCH   6   9
ATOM      9  C   UNL     1      45.528   3.566   8.963  0.00  0.00    +0.000 A 
ATOM     10  C   UNL     1      46.110   3.950   7.743  0.00  0.00    +0.000 A 
ATOM     11  C   UNL     1      46.567   2.989   6.844  0.00  0.00    +0.000 A 
ATOM     12  C   UNL     1      46.438   1.657   7.186  0.00  0.00    +0.000 A 
ATOM     13  F   UNL     1      46.872   0.731   6.319  0.00  0.00    +0.000 F 
ATOM     14  N   UNL     1      45.896   1.230   8.339  0.00  0.00    +0.000 NA
ATOM     15  C   UNL     1      45.451   2.189   9.191  0.00  0.00    +0.000 A 
ENDBRANCH   6   9
BRANCH   1  16
ATOM     16  C   UNL     1      46.236   7.921  12.848  0.00  0.00    +0.000 C 
BRANCH  16  18
ATOM     17  C   UNL     1      47.476   8.760  14.875  0.00  0.00    +0.000 C 
ATOM     18  C   UNL     1      47.635   8.009  13.530  0.00  0.00    +0.000 C 
ATOM     19  C   UNL     1      48.069   6.562  13.883  0.00  0.00    +0.000 C 
BRANCH  18  20
ATOM     20  C   UNL     1      48.699   8.629  12.602  0.00  0.00    +0.000 A 
ATOM     21  C   UNL     1      48.704   9.996  12.271  0.00  0.00    +0.000 A 
ATOM     22  C   UNL     1      49.704  10.550  11.465  0.00  0.00    +0.000 A 
ATOM     23  C   UNL     1      50.726   9.749  10.967  0.00  0.00    +0.000 A 
ATOM     24  C   UNL     1      50.737   8.394  11.272  0.00  0.00    +0.000 A 
ATOM     25 CL   UNL     1      52.003   7.396  10.666  0.00  0.00    +0.000 Cl
ATOM     26  C   UNL     1      49.738   7.835  12.074  0.00  0.00    +0.000 A 
ENDBRANCH  18  20
ENDBRANCH  16  18
ENDBRANCH   1  16
TORSDOF 4
ENDMDL
MODEL 6
REMARK VINA RESULT:    -6.880      3.738      8.109
REMARK INTER + INTRA:          -9.065
REMARK INTER:                  -8.365
REMARK INTRA:                  -0.700
REMARK UNBOUND:                -0.576
REMARK  Name = 
REMARK  6 active torsions:
REMARK  status: ('A' for Active; 'I' for Inactive)
REMARK    1  A    between atoms: C_1  and  C_2
REMARK    2  A    between atoms: C_2  and  C_3
REMARK    3  A    between atoms: C_2  and  C_4
REMARK    4  A    between atoms: C_2  and  C_19
REMARK    5  A    between atoms: C_4  and  N_5
REMARK    6  A    between atoms: C_10  and  C_11
REMARK                            x       y       z     vdW  Elec       q    Type
REMARK                         _______ _______ _______ _____ _____    ______ ____
ROOT
ATOM      1  N   UNL     1      48.692   6.959  14.337  0.00  0.00    +0.000 N 
ATOM      2  C   UNL     1      47.574   7.248  13.558  0.00  0.00    +0.000 A 
ATOM      3  N   UNL     1      46.978   8.443  13.668  0.00  0.00    +0.000 NA
ATOM      4  C   UNL     1      45.894   8.661  12.912  0.00  0.00    +0.000 A 
ATOM      5  C   UNL     1      45.378   7.727  12.053  0.00  0.00    +0.000 A 
ATOM      6  C   UNL     1      46.041   6.517  11.999  0.00  0.00    +0.000 A 
ATOM      7  N   UNL     1      47.146   6.276  12.744  0.00  0.00    +0.000 NA
ATOM      8  H   UNL     1      48.778   5.948  14.358  0.00  0.00    +0.000 HD
ENDROOT
BRANCH   6   9
ATOM      9  C   UNL     1      45.584   5.403  11.151  0.00  0.00    +0.000 A 
ATOM     10  C   UNL     1      45.655   5.438   9.749  0.00  0.00    +0.000 A 
ATOM     11  C   UNL     1      45.196   4.364   8.989  0.00  0.00    +0.000 A 
ATOM     12  C   UNL     1      44.675   3.268   9.651  0.00  0.00    +0.000 A 
ATOM     13  F   UNL     1      44.226   2.237   8.922  0.00  0.00    +0.000 F 
ATOM     14  N   UNL     1      44.586   3.176  10.989  0.00  0.00    +0.000 NA
ATOM     15  C   UNL     1      45.034   4.241  11.702  0.00  0.00    +0.000 A 
ENDBRANCH   6   9
BRANCH   1  16
ATOM     16  C   UNL     1      48.669   7.611  15.642  0.00  0.00    +0.000 C 
BRANCH  16  18
ATOM     17  C   UNL     1      51.025   6.923  16.215  0.00  0.00    +0.000 C 
ATOM     18  C   UNL     1      49.554   6.878  16.696  0.00  0.00    +0.000 C 
ATOM     19  C   UNL     1      49.493   7.704  18.007  0.00  0.00    +0.000 C 
BRANCH  18  20
ATOM     20  C   UNL     1      49.048   5.451  16.991  0.00  0.00    +0.000 A 
ATOM     21  C   UNL     1      47.683   5.157  17.161  0.00  0.00    +0.000 A 
ATOM     22  C   UNL     1      47.238   3.849  17.381  0.00  0.00    +0.000 A 
ATOM     23  C   UNL     1      48.149   2.800  17.438  0.00  0.00    +0.000 A 
ATOM     24  C   UNL     1      49.504   3.067  17.284  0.00  0.00    +0.000 A 
ATOM     25 CL   UNL     1      50.638   1.773  17.347  0.00  0.00    +0.000 Cl
ATOM     26  C   UNL     1      49.953   4.372  17.068  0.00  0.00    +0.000 A 
ENDBRANCH  18  20
ENDBRANCH  16  18
ENDBRANCH   1  16
TORSDOF 4
ENDMDL
MODEL 7
REMARK VINA RESULT:    -6.837      3.734      7.895
REMARK INTER + INTRA:          -9.012
REMARK INTER:                  -8.341
REMARK INTRA:                  -0.671
REMARK UNBOUND:                -0.576
REMARK  Name = 
REMARK  6 active torsions:
REMARK  status: ('A' for Active; 'I' for Inactive)
REMARK    1  A    between atoms: C_1  and  C_2
REMARK    2  A    between atoms: C_2  and  C_3
REMARK    3  A    between atoms: C_2  and  C_4
REMARK    4  A    between atoms: C_2  and  C_19
REMARK    5  A    between atoms: C_4  and  N_5
REMARK    6  A    between atoms: C_10  and  C_11
REMARK                            x       y       z     vdW  Elec       q    Type
REMARK                         _______ _______ _______ _____ _____    ______ ____
ROOT
ATOM      1  N   UNL     1      49.383   6.651  15.456  0.00  0.00    +0.000 N 
ATOM      2  C   UNL     1      48.391   7.094  14.584  0.00  0.00    +0.000 A 
ATOM      3  N   UNL     1      48.143   8.405  14.470  0.00  0.00    +0.000 NA
ATOM      4  C   UNL     1      47.164   8.775  13.634  0.00  0.00    +0.000 A 
ATOM      5  C   UNL     1      46.416   7.884  12.912  0.00  0.00    +0.000 A 
ATOM      6  C   UNL     1      46.725   6.548  13.087  0.00  0.00    +0.000 A 
ATOM      7  N   UNL     1      47.717   6.149  13.917  0.00  0.00    +0.000 NA
ATOM      8  H   UNL     1      49.190   5.672  15.643  0.00  0.00    +0.000 HD
ENDROOT
BRANCH   6   9
ATOM      9  C   UNL     1      45.985   5.471  12.407  0.00  0.00    +0.000 A 
ATOM     10  C   UNL     1      45.533   5.581  11.081  0.00  0.00    +0.000 A 
ATOM     11  C   UNL     1      44.824   4.540  10.486  0.00  0.00    +0.000 A 
ATOM     12  C   UNL     1      44.583   3.401  11.231  0.00  0.00    +0.000 A 
ATOM     13  F   UNL     1      43.895   2.401  10.663  0.00  0.00    +0.000 F 
ATOM     14  N   UNL     1      44.995   3.237  12.500  0.00  0.00    +0.000 NA
ATOM     15  C   UNL     1      45.676   4.272  13.055  0.00  0.00    +0.000 A 
ENDBRANCH   6   9
BRANCH   1  16
ATOM     16  C   UNL     1      49.531   7.495  16.637  0.00  0.00    +0.000 C 
BRANCH  16  18
ATOM     17  C   UNL     1      50.382   6.939  18.943  0.00  0.00    +0.000 C 
ATOM     18  C   UNL     1      49.202   6.740  17.961  0.00  0.00    +0.000 C 
ATOM     19  C   UNL     1      47.974   7.439  18.599  0.00  0.00    +0.000 C 
BRANCH  18  20
ATOM     20  C   UNL     1      48.851   5.258  17.715  0.00  0.00    +0.000 A 
ATOM     21  C   UNL     1      47.527   4.817  17.545  0.00  0.00    +0.000 A 
ATOM     22  C   UNL     1      47.230   3.476  17.275  0.00  0.00    +0.000 A 
ATOM     23  C   UNL     1      48.254   2.541  17.171  0.00  0.00    +0.000 A 
ATOM     24  C   UNL     1      49.570   2.951  17.345  0.00  0.00    +0.000 A 
ATOM     25 CL   UNL     1      50.844   1.800  17.211  0.00  0.00    +0.000 Cl
ATOM     26  C   UNL     1      49.870   4.288  17.618  0.00  0.00    +0.000 A 
ENDBRANCH  18  20
ENDBRANCH  16  18
ENDBRANCH   1  16
TORSDOF 4
ENDMDL
MODEL 8
REMARK VINA RESULT:    -6.787      3.968      4.837
REMARK INTER + INTRA:          -8.949
REMARK INTER:                  -8.304
REMARK INTRA:                  -0.646
REMARK UNBOUND:                -0.576
REMARK  Name = 
REMARK  6 active torsions:
REMARK  status: ('A' for Active; 'I' for Inactive)
REMARK    1  A    between atoms: C_1  and  C_2
REMARK    2  A    between atoms: C_2  and  C_3
REMARK    3  A    between atoms: C_2  and  C_4
REMARK    4  A    between atoms: C_2  and  C_19
REMARK    5  A    between atoms: C_4  and  N_5
REMARK    6  A    between atoms: C_10  and  C_11
REMARK                            x       y       z     vdW  Elec       q    Type
REMARK                         _______ _______ _______ _____ _____    ______ ____
ROOT
ATOM      1  N   UNL     1      46.191   5.513  12.125  0.00  0.00    +0.000 N 
ATOM      2  C   UNL     1      46.587   6.848  12.132  0.00  0.00    +0.000 A 
ATOM      3  N   UNL     1      45.662   7.816  12.173  0.00  0.00    +0.000 NA
ATOM      4  C   UNL     1      46.097   9.083  12.157  0.00  0.00    +0.000 A 
ATOM      5  C   UNL     1      47.422   9.421  12.095  0.00  0.00    +0.000 A 
ATOM      6  C   UNL     1      48.317   8.370  12.048  0.00  0.00    +0.000 A 
ATOM      7  N   UNL     1      47.904   7.081  12.075  0.00  0.00    +0.000 NA
ATOM      8  H   UNL     1      46.975   4.979  11.764  0.00  0.00    +0.000 HD
ENDROOT
BRANCH   6   9
ATOM      9  C   UNL     1      49.772   8.575  11.942  0.00  0.00    +0.000 A 
ATOM     10  C   UNL     1      50.593   7.773  11.132  0.00  0.00    +0.000 A 
ATOM     11  C   UNL     1      51.968   7.997  11.077  0.00  0.00    +0.000 A 
ATOM     12  C   UNL     1      52.495   9.027  11.832  0.00  0.00    +0.000 A 
ATOM     13  F   UNL     1      53.818   9.239  11.786  0.00  0.00    +0.000 F 
ATOM     14  N   UNL     1      51.759   9.829  12.621  0.00  0.00    +0.000 NA
ATOM     15  C   UNL     1      50.424   9.581  12.660  0.00  0.00    +0.000 A 
ENDBRANCH   6   9
BRANCH   1  16
ATOM     16  C   UNL     1      44.919   5.293  11.443  0.00  0.00    +0.000 C 
BRANCH  16  18
ATOM     17  C   UNL     1      45.253   2.910  12.192  0.00  0.00    +0.000 C 
ATOM     18  C   UNL     1      44.696   3.799  11.053  0.00  0.00    +0.000 C 
ATOM     19  C   UNL     1      43.166   3.556  11.011  0.00  0.00    +0.000 C 
BRANCH  18  20
ATOM     20  C   UNL     1      45.286   3.464   9.668  0.00  0.00    +0.000 A 
ATOM     21  C   UNL     1      45.562   4.454   8.708  0.00  0.00    +0.000 A 
ATOM     22  C   UNL     1      46.141   4.137   7.474  0.00  0.00    +0.000 A 
ATOM     23  C   UNL     1      46.456   2.818   7.168  0.00  0.00    +0.000 A 
ATOM     24  C   UNL     1      46.183   1.820   8.096  0.00  0.00    +0.000 A 
ATOM     25 CL   UNL     1      46.576   0.185   7.728  0.00  0.00    +0.000 Cl
ATOM     26  C   UNL     1      45.602   2.132   9.328  0.00  0.00    +0.000 A 
ENDBRANCH  18  20
ENDBRANCH  16  18
ENDBRANCH   1  16
TORSDOF 4
ENDMDL
MODEL 9
REMARK VINA RESULT:    -6.330      3.170      5.033
REMARK INTER + INTRA:          -8.386
REMARK INTER:                  -7.949
REMARK INTRA:                  -0.437
REMARK UNBOUND:                -0.576
REMARK  Name = 
REMARK  6 active torsions:
REMARK  status: ('A' for Active; 'I' for Inactive)
REMARK    1  A    between atoms: C_1  and  C_2
REMARK    2  A    between atoms: C_2  and  C_3
REMARK    3  A    between atoms: C_2  and  C_4
REMARK    4  A    between atoms: C_2  and  C_19
REMARK    5  A    between atoms: C_4  and  N_5
REMARK    6  A    between atoms: C_10  and  C_11
REMARK                            x       y       z     vdW  Elec       q    Type
REMARK                         _______ _______ _______ _____ _____    ______ ____
ROOT
ATOM      1  N   UNL     1      47.892   6.471  14.807  0.00  0.00    +0.000 N 
ATOM      2  C   UNL     1      48.600   6.359  16.001  0.00  0.00    +0.000 A 
ATOM      3  N   UNL     1      48.620   7.385  16.862  0.00  0.00    +0.000 NA
ATOM      4  C   UNL     1      49.333   7.232  17.985  0.00  0.00    +0.000 A 
ATOM      5  C   UNL     1      50.035   6.094  18.280  0.00  0.00    +0.000 A 
ATOM      6  C   UNL     1      49.974   5.082  17.342  0.00  0.00    +0.000 A 
ATOM      7  N   UNL     1      49.251   5.207  16.204  0.00  0.00    +0.000 NA
ATOM      8  H   UNL     1      48.266   5.764  14.181  0.00  0.00    +0.000 HD
ENDROOT
BRANCH   6   9
ATOM      9  C   UNL     1      50.706   3.813  17.501  0.00  0.00    +0.000 A 
ATOM     10  C   UNL     1      52.021   3.753  17.991  0.00  0.00    +0.000 A 
ATOM     11  C   UNL     1      52.677   2.529  18.109  0.00  0.00    +0.000 A 
ATOM     12  C   UNL     1      52.000   1.384  17.736  0.00  0.00    +0.000 A 
ATOM     13  F   UNL     1      52.632   0.207  17.842  0.00  0.00    +0.000 F 
ATOM     14  N   UNL     1      50.741   1.379  17.265  0.00  0.00    +0.000 NA
ATOM     15  C   UNL     1      50.131   2.587  17.154  0.00  0.00    +0.000 A 
ENDBRANCH   6   9
BRANCH   1  16
ATOM     16  C   UNL     1      47.873   7.829  14.275  0.00  0.00    +0.000 C 
BRANCH  16  18
ATOM     17  C   UNL     1      47.653   9.345  12.272  0.00  0.00    +0.000 C 
ATOM     18  C   UNL     1      47.712   7.865  12.724  0.00  0.00    +0.000 C 
ATOM     19  C   UNL     1      49.007   7.268  12.111  0.00  0.00    +0.000 C 
BRANCH  18  20
ATOM     20  C   UNL     1      46.510   7.027  12.243  0.00  0.00    +0.000 A 
ATOM     21  C   UNL     1      45.306   6.954  12.967  0.00  0.00    +0.000 A 
ATOM     22  C   UNL     1      44.209   6.228  12.492  0.00  0.00    +0.000 A 
ATOM     23  C   UNL     1      44.289   5.553  11.279  0.00  0.00    +0.000 A 
ATOM     24  C   UNL     1      45.471   5.601  10.550  0.00  0.00    +0.000 A 
ATOM     25 CL   UNL     1      45.577   4.773   9.044  0.00  0.00    +0.000 Cl
ATOM     26  C   UNL     1      46.571   6.322  11.023  0.00  0.00    +0.000 A 
ENDBRANCH  18  20
ENDBRANCH  16  18
ENDBRANCH   1  16
TORSDOF 4
ENDMDL
