MODEL 1
REMARK VINA RESULT:    -8.751      0.000      0.000
REMARK INTER + INTRA:         -13.861
REMARK INTER:                 -13.099
REMARK INTRA:                  -0.762
REMARK UNBOUND:                -0.762
REMARK  Name = 
REMARK  9 active torsions:
REMARK  status: ('A' for Active; 'I' for Inactive)
REMARK    1  A    between atoms: N_1  and  C_2
REMARK    2  A    between atoms: C_2  and  N_3
REMARK    3  A    between atoms: C_2  and  C_19
REMARK    4  A    between atoms: N_3  and  C_4
REMARK    5  A    between atoms: C_4  and  C_5
REMARK    6  A    between atoms: C_8  and  C_9
REMARK    7  A    between atoms: C_9  and  N_10
REMARK    8  A    between atoms: N_10  and  C_11
REMARK    9  A    between atoms: C_11  and  C_12
REMARK                            x       y       z     vdW  Elec       q    Type
REMARK                         _______ _______ _______ _____ _____    ______ ____
ROOT
ATOM      1  N   UNL     1      46.781   4.483  16.028  0.00  0.00    +0.000 NA
ATOM      2  H   UNL     1      46.827   5.290  16.655  0.00  0.00    +0.000 HD
ENDROOT
BRANCH   1   3
ATOM      3  C   UNL     1      47.502   3.420  16.696  0.00  0.00    +0.000 C 
BRANCH   3   4
ATOM      4  C   UNL     1      48.665   4.023  17.468  0.00  0.00    +0.000 A 
ATOM      5  C   UNL     1      48.621   5.205  18.200  0.00  0.00    +0.000 A 
ATOM      6  S   UNL     1      50.079   5.581  19.001  0.00  0.00    +0.000 S 
ATOM      7  C   UNL     1      50.828   4.174  18.410  0.00  0.00    +0.000 A 
ATOM      8  N   UNL     1      52.112   3.874  18.739  0.00  0.00    +0.000 NA
ATOM      9  C   UNL     1      52.545   2.772  18.222  0.00  0.00    +0.000 A 
ATOM     10  N   UNL     1      51.815   1.947  17.400  0.00  0.00    +0.000 N 
ATOM     11  C   UNL     1      50.526   2.229  17.012  0.00  0.00    +0.000 A 
ATOM     12  O   UNL     1      49.909   1.523  16.219  0.00  0.00    +0.000 OA
ATOM     13  C   UNL     1      49.984   3.443  17.597  0.00  0.00    +0.000 A 
ATOM     14  H   UNL     1      52.231   1.116  17.013  0.00  0.00    +0.000 HD
ENDBRANCH   3   4
BRANCH   3  15
ATOM     15  N   UNL     1      46.595   2.832  17.652  0.00  0.00    +0.000 NA
ATOM     16  H   UNL     1      47.122   2.313  18.345  0.00  0.00    +0.000 HD
ATOM     17  H   UNL     1      46.076   2.129  17.124  0.00  0.00    +0.000 HD
ENDBRANCH   3  15
ENDBRANCH   1   3
BRANCH   1  18
ATOM     18  C   UNL     1      47.392   4.902  14.754  0.00  0.00    +0.000 C 
BRANCH  18  19
ATOM     19  C   UNL     1      46.420   4.943  13.591  0.00  0.00    +0.000 A 
ATOM     20  C   UNL     1      46.610   5.827  12.536  0.00  0.00    +0.000 A 
ATOM     21  C   UNL     1      45.733   5.781  11.452  0.00  0.00    +0.000 A 
ATOM     22  C   UNL     1      44.694   4.847  11.434  0.00  0.00    +0.000 A 
ATOM     23  C   UNL     1      44.572   4.016  12.539  0.00  0.00    +0.000 A 
ATOM     24  N   UNL     1      45.405   4.039  13.603  0.00  0.00    +0.000 NA
BRANCH  22  25
ATOM     25  C   UNL     1      43.752   4.733  10.265  0.00  0.00    +0.000 C 
BRANCH  25  26
ATOM     26  N   UNL     1      44.489   4.399   9.047  0.00  0.00    +0.000 NA
ATOM     27  H   UNL     1      45.445   4.745   9.135  0.00  0.00    +0.000 HD
BRANCH  26  28
ATOM     28  C   UNL     1      44.550   2.959   8.831  0.00  0.00    +0.000 C 
BRANCH  28  29
ATOM     29  C   UNL     1      45.755   2.657   8.009  0.00  0.00    +0.000 A 
ATOM     30  C   UNL     1      46.464   3.426   7.108  0.00  0.00    +0.000 A 
ATOM     31  C   UNL     1      47.531   2.636   6.615  0.00  0.00    +0.000 A 
ATOM     32  C   UNL     1      47.445   1.404   7.220  0.00  0.00    +0.000 A 
ATOM     33  N   UNL     1      46.361   1.422   8.058  0.00  0.00    +0.000 N 
ATOM     34  H   UNL     1      46.023   0.643   8.610  0.00  0.00    +0.000 HD
ENDBRANCH  28  29
ENDBRANCH  26  28
ENDBRANCH  25  26
ENDBRANCH  22  25
ENDBRANCH  18  19
ENDBRANCH   1  18
TORSDOF 9
ENDMDL
MODEL 2
REMARK VINA RESULT:    -7.470      1.962      2.570
REMARK INTER + INTRA:         -11.943
REMARK INTER:                 -10.969
REMARK INTRA:                  -0.974
REMARK UNBOUND:                -0.762
REMARK  Name = 
REMARK  9 active torsions:
REMARK  status: ('A' for Active; 'I' for Inactive)
REMARK    1  A    between atoms: N_1  and  C_2
REMARK    2  A    between atoms: C_2  and  N_3
REMARK    3  A    between atoms: C_2  and  C_19
REMARK    4  A    between atoms: N_3  and  C_4
REMARK    5  A    between atoms: C_4  and  C_5
REMARK    6  A    between atoms: C_8  and  C_9
REMARK    7  A    between atoms: C_9  and  N_10
REMARK    8  A    between atoms: N_10  and  C_11
REMARK    9  A    between atoms: C_11  and  C_12
REMARK                            x       y       z     vdW  Elec       q    Type
REMARK                         _______ _______ _______ _____ _____    ______ ____
ROOT
ATOM      1  N   UNL     1      48.158   6.137  15.001  0.00  0.00    +0.000 NA
ATOM      2  H   UNL     1      47.208   6.362  15.306  0.00  0.00    +0.000 HD
ENDROOT
BRANCH   1   3
ATOM      3  C   UNL     1      49.022   7.095  15.658  0.00  0.00    +0.000 C 
BRANCH   3   4
ATOM      4  C   UNL     1      48.718   7.094  17.147  0.00  0.00    +0.000 A 
ATOM      5  C   UNL     1      48.301   8.196  17.886  0.00  0.00    +0.000 A 
ATOM      6  S   UNL     1      47.987   7.855  19.527  0.00  0.00    +0.000 S 
ATOM      7  C   UNL     1      48.387   6.216  19.317  0.00  0.00    +0.000 A 
ATOM      8  N   UNL     1      48.313   5.340  20.352  0.00  0.00    +0.000 NA
ATOM      9  C   UNL     1      48.640   4.129  20.043  0.00  0.00    +0.000 A 
ATOM     10  N   UNL     1      49.042   3.715  18.795  0.00  0.00    +0.000 N 
ATOM     11  C   UNL     1      49.166   4.574  17.728  0.00  0.00    +0.000 A 
ATOM     12  O   UNL     1      49.594   4.208  16.636  0.00  0.00    +0.000 OA
ATOM     13  C   UNL     1      48.775   5.942  18.019  0.00  0.00    +0.000 A 
ATOM     14  H   UNL     1      49.307   2.757  18.637  0.00  0.00    +0.000 HD
ENDBRANCH   3   4
BRANCH   3  15
ATOM     15  N   UNL     1      50.377   6.630  15.483  0.00  0.00    +0.000 NA
ATOM     16  H   UNL     1      50.372   5.755  14.971  0.00  0.00    +0.000 HD
ATOM     17  H   UNL     1      50.697   6.393  16.423  0.00  0.00    +0.000 HD
ENDBRANCH   3  15
ENDBRANCH   1   3
BRANCH   1  18
ATOM     18  C   UNL     1      48.167   6.244  13.531  0.00  0.00    +0.000 C 
BRANCH  18  19
ATOM     19  C   UNL     1      46.909   5.714  12.870  0.00  0.00    +0.000 A 
ATOM     20  C   UNL     1      46.480   6.221  11.650  0.00  0.00    +0.000 A 
ATOM     21  C   UNL     1      45.359   5.655  11.042  0.00  0.00    +0.000 A 
ATOM     22  C   UNL     1      44.698   4.586  11.653  0.00  0.00    +0.000 A 
ATOM     23  C   UNL     1      45.190   4.157  12.879  0.00  0.00    +0.000 A 
ATOM     24  N   UNL     1      46.271   4.687  13.491  0.00  0.00    +0.000 NA
BRANCH  22  25
ATOM     25  C   UNL     1      43.513   3.917  11.011  0.00  0.00    +0.000 C 
BRANCH  25  26
ATOM     26  N   UNL     1      43.830   3.523   9.639  0.00  0.00    +0.000 NA
ATOM     27  H   UNL     1      44.346   4.281   9.190  0.00  0.00    +0.000 HD
BRANCH  26  28
ATOM     28  C   UNL     1      44.662   2.327   9.600  0.00  0.00    +0.000 C 
BRANCH  28  29
ATOM     29  C   UNL     1      45.620   2.458   8.467  0.00  0.00    +0.000 A 
ATOM     30  C   UNL     1      45.928   3.526   7.647  0.00  0.00    +0.000 A 
ATOM     31  C   UNL     1      46.919   3.093   6.731  0.00  0.00    +0.000 A 
ATOM     32  C   UNL     1      47.186   1.772   7.009  0.00  0.00    +0.000 A 
ATOM     33  N   UNL     1      46.391   1.393   8.057  0.00  0.00    +0.000 N 
ATOM     34  H   UNL     1      46.339   0.465   8.458  0.00  0.00    +0.000 HD
ENDBRANCH  28  29
ENDBRANCH  26  28
ENDBRANCH  25  26
ENDBRANCH  22  25
ENDBRANCH  18  19
ENDBRANCH   1  18
TORSDOF 9
ENDMDL
MODEL 3
REMARK VINA RESULT:    -7.190      2.010      2.436
REMARK INTER + INTRA:         -11.524
REMARK INTER:                 -10.540
REMARK INTRA:                  -0.984
REMARK UNBOUND:                -0.762
REMARK  Name = 
REMARK  9 active torsions:
REMARK  status: ('A' for Active; 'I' for Inactive)
REMARK    1  A    between atoms: N_1  and  C_2
REMARK    2  A    between atoms: C_2  and  N_3
REMARK    3  A    between atoms: C_2  and  C_19
REMARK    4  A    between atoms: N_3  and  C_4
REMARK    5  A    between atoms: C_4  and  C_5
REMARK    6  A    between atoms: C_8  and  C_9
REMARK    7  A    between atoms: C_9  and  N_10
REMARK    8  A    between atoms: N_10  and  C_11
REMARK    9  A    between atoms: C_11  and  C_12
REMARK                            x       y       z     vdW  Elec       q    Type
REMARK                         _______ _______ _______ _____ _____    ______ ____
ROOT
ATOM      1  N   UNL     1      48.345   5.875  14.830  0.00  0.00    +0.000 NA
ATOM      2  H   UNL     1      47.474   5.484  15.197  0.00  0.00    +0.000 HD
ENDROOT
BRANCH   1   3
ATOM      3  C   UNL     1      48.804   6.823  15.822  0.00  0.00    +0.000 C 
BRANCH   3   4
ATOM      4  C   UNL     1      50.250   6.511  16.171  0.00  0.00    +0.000 A 
ATOM      5  C   UNL     1      51.354   7.266  15.786  0.00  0.00    +0.000 A 
ATOM      6  S   UNL     1      52.839   6.682  16.387  0.00  0.00    +0.000 S 
ATOM      7  C   UNL     1      52.069   5.400  17.195  0.00  0.00    +0.000 A 
ATOM      8  N   UNL     1      52.781   4.510  17.934  0.00  0.00    +0.000 NA
ATOM      9  C   UNL     1      52.063   3.594  18.494  0.00  0.00    +0.000 A 
ATOM     10  N   UNL     1      50.697   3.483  18.378  0.00  0.00    +0.000 N 
ATOM     11  C   UNL     1      49.940   4.339  17.612  0.00  0.00    +0.000 A 
ATOM     12  O   UNL     1      48.732   4.187  17.456  0.00  0.00    +0.000 OA
ATOM     13  C   UNL     1      50.702   5.407  16.989  0.00  0.00    +0.000 A 
ATOM     14  H   UNL     1      50.208   2.724  18.823  0.00  0.00    +0.000 HD
ENDBRANCH   3   4
BRANCH   3  15
ATOM     15  N   UNL     1      48.769   8.127  15.206  0.00  0.00    +0.000 NA
ATOM     16  H   UNL     1      48.051   8.146  14.491  0.00  0.00    +0.000 HD
ATOM     17  H   UNL     1      49.655   8.206  14.705  0.00  0.00    +0.000 HD
ENDBRANCH   3  15
ENDBRANCH   1   3
BRANCH   1  18
ATOM     18  C   UNL     1      48.018   6.490  13.531  0.00  0.00    +0.000 C 
BRANCH  18  19
ATOM     19  C   UNL     1      46.888   5.799  12.792  0.00  0.00    +0.000 A 
ATOM     20  C   UNL     1      46.253   4.691  13.339  0.00  0.00    +0.000 A 
ATOM     21  C   UNL     1      45.171   4.131  12.659  0.00  0.00    +0.000 A 
ATOM     22  C   UNL     1      44.733   4.695  11.458  0.00  0.00    +0.000 A 
ATOM     23  C   UNL     1      45.439   5.791  10.980  0.00  0.00    +0.000 A 
ATOM     24  N   UNL     1      46.491   6.353  11.616  0.00  0.00    +0.000 NA
BRANCH  22  25
ATOM     25  C   UNL     1      43.542   4.151  10.716  0.00  0.00    +0.000 C 
BRANCH  25  26
ATOM     26  N   UNL     1      43.940   3.673   9.393  0.00  0.00    +0.000 NA
ATOM     27  H   UNL     1      44.533   4.377   8.953  0.00  0.00    +0.000 HD
BRANCH  26  28
ATOM     28  C   UNL     1      44.700   2.431   9.474  0.00  0.00    +0.000 C 
BRANCH  28  29
ATOM     29  C   UNL     1      45.687   2.410   8.359  0.00  0.00    +0.000 A 
ATOM     30  C   UNL     1      46.094   3.393   7.479  0.00  0.00    +0.000 A 
ATOM     31  C   UNL     1      47.065   2.825   6.618  0.00  0.00    +0.000 A 
ATOM     32  C   UNL     1      47.222   1.508   6.988  0.00  0.00    +0.000 A 
ATOM     33  N   UNL     1      46.378   1.263   8.038  0.00  0.00    +0.000 N 
ATOM     34  H   UNL     1      46.245   0.372   8.499  0.00  0.00    +0.000 HD
ENDBRANCH  28  29
ENDBRANCH  26  28
ENDBRANCH  25  26
ENDBRANCH  22  25
ENDBRANCH  18  19
ENDBRANCH   1  18
TORSDOF 9
ENDMDL
MODEL 4
REMARK VINA RESULT:    -7.156      3.123      8.914
REMARK INTER + INTRA:         -11.473
REMARK INTER:                 -10.567
REMARK INTRA:                  -0.906
REMARK UNBOUND:                -0.762
REMARK  Name = 
REMARK  9 active torsions:
REMARK  status: ('A' for Active; 'I' for Inactive)
REMARK    1  A    between atoms: N_1  and  C_2
REMARK    2  A    between atoms: C_2  and  N_3
REMARK    3  A    between atoms: C_2  and  C_19
REMARK    4  A    between atoms: N_3  and  C_4
REMARK    5  A    between atoms: C_4  and  C_5
REMARK    6  A    between atoms: C_8  and  C_9
REMARK    7  A    between atoms: C_9  and  N_10
REMARK    8  A    between atoms: N_10  and  C_11
REMARK    9  A    between atoms: C_11  and  C_12
REMARK                            x       y       z     vdW  Elec       q    Type
REMARK                         _______ _______ _______ _____ _____    ______ ____
ROOT
ATOM      1  N   UNL     1      44.903   7.021  12.327  0.00  0.00    +0.000 NA
ATOM      2  H   UNL     1      44.543   6.389  13.047  0.00  0.00    +0.000 HD
ENDROOT
BRANCH   1   3
ATOM      3  C   UNL     1      44.251   6.629  11.096  0.00  0.00    +0.000 C 
BRANCH   3   4
ATOM      4  C   UNL     1      44.095   5.118  11.079  0.00  0.00    +0.000 A 
ATOM      5  C   UNL     1      43.338   4.375  11.979  0.00  0.00    +0.000 A 
ATOM      6  S   UNL     1      43.319   2.701  11.655  0.00  0.00    +0.000 S 
ATOM      7  C   UNL     1      44.315   2.899  10.292  0.00  0.00    +0.000 A 
ATOM      8  N   UNL     1      44.678   1.835   9.530  0.00  0.00    +0.000 NA
ATOM      9  C   UNL     1      45.430   2.138   8.524  0.00  0.00    +0.000 A 
ATOM     10  N   UNL     1      45.860   3.406   8.216  0.00  0.00    +0.000 N 
ATOM     11  C   UNL     1      45.547   4.507   8.979  0.00  0.00    +0.000 A 
ATOM     12  O   UNL     1      45.995   5.625   8.736  0.00  0.00    +0.000 OA
ATOM     13  C   UNL     1      44.673   4.220  10.103  0.00  0.00    +0.000 A 
ATOM     14  H   UNL     1      46.468   3.561   7.429  0.00  0.00    +0.000 HD
ENDBRANCH   3   4
BRANCH   3  15
ATOM     15  N   UNL     1      42.930   7.211  11.115  0.00  0.00    +0.000 NA
ATOM     16  H   UNL     1      42.935   8.046  11.690  0.00  0.00    +0.000 HD
ATOM     17  H   UNL     1      42.353   6.537  11.620  0.00  0.00    +0.000 HD
ENDBRANCH   3  15
ENDBRANCH   1   3
BRANCH   1  18
ATOM     18  C   UNL     1      46.366   6.845  12.304  0.00  0.00    +0.000 C 
BRANCH  18  19
ATOM     19  C   UNL     1      46.911   6.072  13.490  0.00  0.00    +0.000 A 
ATOM     20  C   UNL     1      47.907   6.612  14.293  0.00  0.00    +0.000 A 
ATOM     21  C   UNL     1      48.327   5.899  15.416  0.00  0.00    +0.000 A 
ATOM     22  C   UNL     1      47.736   4.671  15.726  0.00  0.00    +0.000 A 
ATOM     23  C   UNL     1      46.759   4.204  14.857  0.00  0.00    +0.000 A 
ATOM     24  N   UNL     1      46.334   4.871  13.762  0.00  0.00    +0.000 NA
BRANCH  22  25
ATOM     25  C   UNL     1      48.127   3.890  16.952  0.00  0.00    +0.000 C 
BRANCH  25  26
ATOM     26  N   UNL     1      49.402   3.209  16.738  0.00  0.00    +0.000 NA
ATOM     27  H   UNL     1      49.706   3.372  15.777  0.00  0.00    +0.000 HD
BRANCH  26  28
ATOM     28  C   UNL     1      50.439   3.713  17.629  0.00  0.00    +0.000 C 
BRANCH  28  29
ATOM     29  C   UNL     1      51.495   2.670  17.762  0.00  0.00    +0.000 A 
ATOM     30  C   UNL     1      52.838   2.762  18.068  0.00  0.00    +0.000 A 
ATOM     31  C   UNL     1      53.372   1.450  18.062  0.00  0.00    +0.000 A 
ATOM     32  C   UNL     1      52.344   0.590  17.746  0.00  0.00    +0.000 A 
ATOM     33  N   UNL     1      51.212   1.338  17.559  0.00  0.00    +0.000 N 
ATOM     34  H   UNL     1      50.306   0.985  17.280  0.00  0.00    +0.000 HD
ENDBRANCH  28  29
ENDBRANCH  26  28
ENDBRANCH  25  26
ENDBRANCH  22  25
ENDBRANCH  18  19
ENDBRANCH   1  18
TORSDOF 9
ENDMDL
MODEL 5
REMARK VINA RESULT:    -7.155      2.745      3.647
REMARK INTER + INTRA:         -11.473
REMARK INTER:                 -10.502
REMARK INTRA:                  -0.971
REMARK UNBOUND:                -0.762
REMARK  Name = 
REMARK  9 active torsions:
REMARK  status: ('A' for Active; 'I' for Inactive)
REMARK    1  A    between atoms: N_1  and  C_2
REMARK    2  A    between atoms: C_2  and  N_3
REMARK    3  A    between atoms: C_2  and  C_19
REMARK    4  A    between atoms: N_3  and  C_4
REMARK    5  A    between atoms: C_4  and  C_5
REMARK    6  A    between atoms: C_8  and  C_9
REMARK    7  A    between atoms: C_9  and  N_10
REMARK    8  A    between atoms: N_10  and  C_11
REMARK    9  A    between atoms: C_11  and  C_12
REMARK                            x       y       z     vdW  Elec       q    Type
REMARK                         _______ _______ _______ _____ _____    ______ ____
ROOT
ATOM      1  N   UNL     1      47.899   7.292  15.144  0.00  0.00    +0.000 NA
ATOM      2  H   UNL     1      47.554   8.247  15.266  0.00  0.00    +0.000 HD
ENDROOT
BRANCH   1   3
ATOM      3  C   UNL     1      49.133   7.216  15.895  0.00  0.00    +0.000 C 
BRANCH   3   4
ATOM      4  C   UNL     1      48.945   6.255  17.057  0.00  0.00    +0.000 A 
ATOM      5  C   UNL     1      49.322   4.916  17.067  0.00  0.00    +0.000 A 
ATOM      6  S   UNL     1      49.027   4.120  18.545  0.00  0.00    +0.000 S 
ATOM      7  C   UNL     1      48.388   5.535  19.240  0.00  0.00    +0.000 A 
ATOM      8  N   UNL     1      47.952   5.547  20.526  0.00  0.00    +0.000 NA
ATOM      9  C   UNL     1      47.499   6.692  20.919  0.00  0.00    +0.000 A 
ATOM     10  N   UNL     1      47.436   7.823  20.141  0.00  0.00    +0.000 N 
ATOM     11  C   UNL     1      47.833   7.847  18.824  0.00  0.00    +0.000 A 
ATOM     12  O   UNL     1      47.706   8.843  18.116  0.00  0.00    +0.000 OA
ATOM     13  C   UNL     1      48.382   6.590  18.347  0.00  0.00    +0.000 A 
ATOM     14  H   UNL     1      47.045   8.674  20.509  0.00  0.00    +0.000 HD
ENDBRANCH   3   4
BRANCH   3  15
ATOM     15  N   UNL     1      50.129   6.654  15.014  0.00  0.00    +0.000 NA
ATOM     16  H   UNL     1      50.652   5.938  15.506  0.00  0.00    +0.000 HD
ATOM     17  H   UNL     1      50.793   7.412  14.851  0.00  0.00    +0.000 HD
ENDBRANCH   3  15
ENDBRANCH   1   3
BRANCH   1  18
ATOM     18  C   UNL     1      48.075   7.089  13.694  0.00  0.00    +0.000 C 
BRANCH  18  19
ATOM     19  C   UNL     1      47.150   6.043  13.103  0.00  0.00    +0.000 A 
ATOM     20  C   UNL     1      46.957   4.824  13.740  0.00  0.00    +0.000 A 
ATOM     21  C   UNL     1      46.041   3.920  13.201  0.00  0.00    +0.000 A 
ATOM     22  C   UNL     1      45.326   4.254  12.048  0.00  0.00    +0.000 A 
ATOM     23  C   UNL     1      45.597   5.488  11.472  0.00  0.00    +0.000 A 
ATOM     24  N   UNL     1      46.479   6.382  11.971  0.00  0.00    +0.000 NA
BRANCH  22  25
ATOM     25  C   UNL     1      44.296   3.328  11.458  0.00  0.00    +0.000 C 
BRANCH  25  26
ATOM     26  N   UNL     1      44.898   2.486  10.426  0.00  0.00    +0.000 NA
ATOM     27  H   UNL     1      44.524   1.540  10.514  0.00  0.00    +0.000 HD
BRANCH  26  28
ATOM     28  C   UNL     1      44.589   2.969   9.086  0.00  0.00    +0.000 C 
BRANCH  28  29
ATOM     29  C   UNL     1      45.721   2.615   8.185  0.00  0.00    +0.000 A 
ATOM     30  C   UNL     1      46.426   3.365   7.263  0.00  0.00    +0.000 A 
ATOM     31  C   UNL     1      47.407   2.523   6.684  0.00  0.00    +0.000 A 
ATOM     32  C   UNL     1      47.274   1.280   7.261  0.00  0.00    +0.000 A 
ATOM     33  N   UNL     1      46.246   1.343   8.163  0.00  0.00    +0.000 N 
ATOM     34  H   UNL     1      45.891   0.571   8.714  0.00  0.00    +0.000 HD
ENDBRANCH  28  29
ENDBRANCH  26  28
ENDBRANCH  25  26
ENDBRANCH  22  25
ENDBRANCH  18  19
ENDBRANCH   1  18
TORSDOF 9
ENDMDL
MODEL 6
REMARK VINA RESULT:    -6.979      3.203      4.280
REMARK INTER + INTRA:         -11.209
REMARK INTER:                 -10.337
REMARK INTRA:                  -0.873
REMARK UNBOUND:                -0.762
REMARK  Name = 
REMARK  9 active torsions:
REMARK  status: ('A' for Active; 'I' for Inactive)
REMARK    1  A    between atoms: N_1  and  C_2
REMARK    2  A    between atoms: C_2  and  N_3
REMARK    3  A    between atoms: C_2  and  C_19
REMARK    4  A    between atoms: N_3  and  C_4
REMARK    5  A    between atoms: C_4  and  C_5
REMARK    6  A    between atoms: C_8  and  C_9
REMARK    7  A    between atoms: C_9  and  N_10
REMARK    8  A    between atoms: N_10  and  C_11
REMARK    9  A    between atoms: C_11  and  C_12
REMARK                            x       y       z     vdW  Elec       q    Type
REMARK                         _______ _______ _______ _____ _____    ______ ____
ROOT
ATOM      1  N   UNL     1      47.852   6.784  15.117  0.00  0.00    +0.000 NA
ATOM      2  H   UNL     1      47.689   7.793  15.088  0.00  0.00    +0.000 HD
ENDROOT
BRANCH   1   3
ATOM      3  C   UNL     1      48.935   6.584  16.057  0.00  0.00    +0.000 C 
BRANCH   3   4
ATOM      4  C   UNL     1      48.526   7.147  17.408  0.00  0.00    +0.000 A 
ATOM      5  C   UNL     1      48.464   6.428  18.596  0.00  0.00    +0.000 A 
ATOM      6  S   UNL     1      48.024   7.363  19.953  0.00  0.00    +0.000 S 
ATOM      7  C   UNL     1      47.906   8.772  19.009  0.00  0.00    +0.000 A 
ATOM      8  N   UNL     1      47.574   9.964  19.571  0.00  0.00    +0.000 NA
ATOM      9  C   UNL     1      47.528  10.947  18.734  0.00  0.00    +0.000 A 
ATOM     10  N   UNL     1      47.776  10.846  17.385  0.00  0.00    +0.000 N 
ATOM     11  C   UNL     1      48.080   9.654  16.769  0.00  0.00    +0.000 A 
ATOM     12  O   UNL     1      48.228   9.562  15.553  0.00  0.00    +0.000 OA
ATOM     13  C   UNL     1      48.176   8.525  17.677  0.00  0.00    +0.000 A 
ATOM     14  H   UNL     1      47.695  11.653  16.790  0.00  0.00    +0.000 HD
ENDBRANCH   3   4
BRANCH   3  15
ATOM     15  N   UNL     1      49.106   5.159  16.205  0.00  0.00    +0.000 NA
ATOM     16  H   UNL     1      50.007   4.884  15.829  0.00  0.00    +0.000 HD
ATOM     17  H   UNL     1      48.413   4.744  15.582  0.00  0.00    +0.000 HD
ENDBRANCH   3  15
ENDBRANCH   1   3
BRANCH   1  18
ATOM     18  C   UNL     1      48.180   6.369  13.741  0.00  0.00    +0.000 C 
BRANCH  18  19
ATOM     19  C   UNL     1      46.966   6.029  12.897  0.00  0.00    +0.000 A 
ATOM     20  C   UNL     1      46.799   6.586  11.636  0.00  0.00    +0.000 A 
ATOM     21  C   UNL     1      45.706   6.189  10.864  0.00  0.00    +0.000 A 
ATOM     22  C   UNL     1      44.812   5.235  11.357  0.00  0.00    +0.000 A 
ATOM     23  C   UNL     1      45.052   4.746  12.634  0.00  0.00    +0.000 A 
ATOM     24  N   UNL     1      46.100   5.112  13.404  0.00  0.00    +0.000 NA
BRANCH  22  25
ATOM     25  C   UNL     1      43.646   4.746  10.540  0.00  0.00    +0.000 C 
BRANCH  25  26
ATOM     26  N   UNL     1      44.105   4.240   9.248  0.00  0.00    +0.000 NA
ATOM     27  H   UNL     1      44.940   4.757   8.969  0.00  0.00    +0.000 HD
BRANCH  26  28
ATOM     28  C   UNL     1      44.453   2.826   9.314  0.00  0.00    +0.000 C 
BRANCH  28  29
ATOM     29  C   UNL     1      45.605   2.581   8.403  0.00  0.00    +0.000 A 
ATOM     30  C   UNL     1      46.300   1.427   8.095  0.00  0.00    +0.000 A 
ATOM     31  C   UNL     1      47.308   1.769   7.161  0.00  0.00    +0.000 A 
ATOM     32  C   UNL     1      47.210   3.121   6.926  0.00  0.00    +0.000 A 
ATOM     33  N   UNL     1      46.181   3.607   7.687  0.00  0.00    +0.000 N 
ATOM     34  H   UNL     1      45.896   4.576   7.753  0.00  0.00    +0.000 HD
ENDBRANCH  28  29
ENDBRANCH  26  28
ENDBRANCH  25  26
ENDBRANCH  22  25
ENDBRANCH  18  19
ENDBRANCH   1  18
TORSDOF 9
ENDMDL
MODEL 7
REMARK VINA RESULT:    -6.786      3.552      8.716
REMARK INTER + INTRA:         -10.920
REMARK INTER:                  -9.709
REMARK INTRA:                  -1.211
REMARK UNBOUND:                -0.762
REMARK  Name = 
REMARK  9 active torsions:
REMARK  status: ('A' for Active; 'I' for Inactive)
REMARK    1  A    between atoms: N_1  and  C_2
REMARK    2  A    between atoms: C_2  and  N_3
REMARK    3  A    between atoms: C_2  and  C_19
REMARK    4  A    between atoms: N_3  and  C_4
REMARK    5  A    between atoms: C_4  and  C_5
REMARK    6  A    between atoms: C_8  and  C_9
REMARK    7  A    between atoms: C_9  and  N_10
REMARK    8  A    between atoms: N_10  and  C_11
REMARK    9  A    between atoms: C_11  and  C_12
REMARK                            x       y       z     vdW  Elec       q    Type
REMARK                         _______ _______ _______ _____ _____    ______ ____
ROOT
ATOM      1  N   UNL     1      44.939   7.345  12.726  0.00  0.00    +0.000 NA
ATOM      2  H   UNL     1      45.364   6.534  13.184  0.00  0.00    +0.000 HD
ENDROOT
BRANCH   1   3
ATOM      3  C   UNL     1      44.609   6.914  11.384  0.00  0.00    +0.000 C 
BRANCH   3   4
ATOM      4  C   UNL     1      44.334   5.420  11.399  0.00  0.00    +0.000 A 
ATOM      5  C   UNL     1      43.630   4.738  12.386  0.00  0.00    +0.000 A 
ATOM      6  S   UNL     1      43.443   3.071  12.083  0.00  0.00    +0.000 S 
ATOM      7  C   UNL     1      44.289   3.190  10.613  0.00  0.00    +0.000 A 
ATOM      8  N   UNL     1      44.478   2.100   9.824  0.00  0.00    +0.000 NA
ATOM      9  C   UNL     1      45.131   2.343   8.736  0.00  0.00    +0.000 A 
ATOM     10  N   UNL     1      45.620   3.574   8.369  0.00  0.00    +0.000 N 
ATOM     11  C   UNL     1      45.484   4.697   9.152  0.00  0.00    +0.000 A 
ATOM     12  O   UNL     1      45.987   5.775   8.850  0.00  0.00    +0.000 OA
ATOM     13  C   UNL     1      44.725   4.479  10.371  0.00  0.00    +0.000 A 
ATOM     14  H   UNL     1      46.145   3.681   7.516  0.00  0.00    +0.000 HD
ENDBRANCH   3   4
BRANCH   3  15
ATOM     15  N   UNL     1      43.386   7.585  11.015  0.00  0.00    +0.000 NA
ATOM     16  H   UNL     1      43.333   8.480  11.490  0.00  0.00    +0.000 HD
ATOM     17  H   UNL     1      42.641   7.017  11.421  0.00  0.00    +0.000 HD
ENDBRANCH   3  15
ENDBRANCH   1   3
BRANCH   1  18
ATOM     18  C   UNL     1      45.939   8.427  12.771  0.00  0.00    +0.000 C 
BRANCH  18  19
ATOM     19  C   UNL     1      47.169   8.093  13.593  0.00  0.00    +0.000 A 
ATOM     20  C   UNL     1      47.943   6.979  13.293  0.00  0.00    +0.000 A 
ATOM     21  C   UNL     1      49.106   6.750  14.028  0.00  0.00    +0.000 A 
ATOM     22  C   UNL     1      49.483   7.642  15.036  0.00  0.00    +0.000 A 
ATOM     23  C   UNL     1      48.639   8.718  15.274  0.00  0.00    +0.000 A 
ATOM     24  N   UNL     1      47.507   8.964  14.580  0.00  0.00    +0.000 NA
BRANCH  22  25
ATOM     25  C   UNL     1      50.753   7.458  15.822  0.00  0.00    +0.000 C 
BRANCH  25  26
ATOM     26  N   UNL     1      50.884   6.070  16.262  0.00  0.00    +0.000 NA
ATOM     27  H   UNL     1      51.875   5.853  16.377  0.00  0.00    +0.000 HD
BRANCH  26  28
ATOM     28  C   UNL     1      50.224   5.845  17.542  0.00  0.00    +0.000 C 
BRANCH  28  29
ATOM     29  C   UNL     1      49.142   4.841  17.345  0.00  0.00    +0.000 A 
ATOM     30  C   UNL     1      47.785   4.988  17.134  0.00  0.00    +0.000 A 
ATOM     31  C   UNL     1      47.227   3.692  17.008  0.00  0.00    +0.000 A 
ATOM     32  C   UNL     1      48.253   2.787  17.152  0.00  0.00    +0.000 A 
ATOM     33  N   UNL     1      49.409   3.490  17.362  0.00  0.00    +0.000 N 
ATOM     34  H   UNL     1      50.323   3.093  17.540  0.00  0.00    +0.000 HD
ENDBRANCH  28  29
ENDBRANCH  26  28
ENDBRANCH  25  26
ENDBRANCH  22  25
ENDBRANCH  18  19
ENDBRANCH   1  18
TORSDOF 9
ENDMDL
MODEL 8
REMARK VINA RESULT:    -6.768      2.785      3.445
REMARK INTER + INTRA:         -10.893
REMARK INTER:                 -10.062
REMARK INTRA:                  -0.830
REMARK UNBOUND:                -0.762
REMARK  Name = 
REMARK  9 active torsions:
REMARK  status: ('A' for Active; 'I' for Inactive)
REMARK    1  A    between atoms: N_1  and  C_2
REMARK    2  A    between atoms: C_2  and  N_3
REMARK    3  A    between atoms: C_2  and  C_19
REMARK    4  A    between atoms: N_3  and  C_4
REMARK    5  A    between atoms: C_4  and  C_5
REMARK    6  A    between atoms: C_8  and  C_9
REMARK    7  A    between atoms: C_9  and  N_10
REMARK    8  A    between atoms: N_10  and  C_11
REMARK    9  A    between atoms: C_11  and  C_12
REMARK                            x       y       z     vdW  Elec       q    Type
REMARK                         _______ _______ _______ _____ _____    ______ ____
ROOT
ATOM      1  N   UNL     1      47.176   7.459  13.984  0.00  0.00    +0.000 NA
ATOM      2  H   UNL     1      47.438   8.340  14.434  0.00  0.00    +0.000 HD
ENDROOT
BRANCH   1   3
ATOM      3  C   UNL     1      48.362   6.998  13.295  0.00  0.00    +0.000 C 
BRANCH   3   4
ATOM      4  C   UNL     1      49.586   7.374  14.113  0.00  0.00    +0.000 A 
ATOM      5  C   UNL     1      50.635   8.175  13.674  0.00  0.00    +0.000 A 
ATOM      6  S   UNL     1      51.834   8.458  14.852  0.00  0.00    +0.000 S 
ATOM      7  C   UNL     1      50.997   7.529  16.004  0.00  0.00    +0.000 A 
ATOM      8  N   UNL     1      51.482   7.374  17.264  0.00  0.00    +0.000 NA
ATOM      9  C   UNL     1      50.736   6.648  18.030  0.00  0.00    +0.000 A 
ATOM     10  N   UNL     1      49.555   6.058  17.650  0.00  0.00    +0.000 N 
ATOM     11  C   UNL     1      49.045   6.158  16.376  0.00  0.00    +0.000 A 
ATOM     12  O   UNL     1      48.026   5.568  16.027  0.00  0.00    +0.000 OA
ATOM     13  C   UNL     1      49.832   6.994  15.487  0.00  0.00    +0.000 A 
ATOM     14  H   UNL     1      49.041   5.483  18.297  0.00  0.00    +0.000 HD
ENDBRANCH   3   4
BRANCH   3  15
ATOM     15  N   UNL     1      48.288   5.557  13.248  0.00  0.00    +0.000 NA
ATOM     16  H   UNL     1      47.316   5.268  13.221  0.00  0.00    +0.000 HD
ATOM     17  H   UNL     1      48.639   5.245  14.155  0.00  0.00    +0.000 HD
ENDBRANCH   3  15
ENDBRANCH   1   3
BRANCH   1  18
ATOM     18  C   UNL     1      46.050   7.764  13.084  0.00  0.00    +0.000 C 
BRANCH  18  19
ATOM     19  C   UNL     1      45.387   6.535  12.491  0.00  0.00    +0.000 A 
ATOM     20  C   UNL     1      45.179   6.431  11.121  0.00  0.00    +0.000 A 
ATOM     21  C   UNL     1      44.633   5.253  10.611  0.00  0.00    +0.000 A 
ATOM     22  C   UNL     1      44.321   4.197  11.472  0.00  0.00    +0.000 A 
ATOM     23  C   UNL     1      44.550   4.398  12.826  0.00  0.00    +0.000 A 
ATOM     24  N   UNL     1      45.075   5.528  13.349  0.00  0.00    +0.000 NA
BRANCH  22  25
ATOM     25  C   UNL     1      43.774   2.892  10.959  0.00  0.00    +0.000 C 
BRANCH  25  26
ATOM     26  N   UNL     1      44.779   2.198  10.155  0.00  0.00    +0.000 NA
ATOM     27  H   UNL     1      44.739   1.200  10.369  0.00  0.00    +0.000 HD
BRANCH  26  28
ATOM     28  C   UNL     1      44.536   2.362   8.728  0.00  0.00    +0.000 C 
BRANCH  28  29
ATOM     29  C   UNL     1      45.832   2.213   8.009  0.00  0.00    +0.000 A 
ATOM     30  C   UNL     1      46.643   1.114   7.804  0.00  0.00    +0.000 A 
ATOM     31  C   UNL     1      47.761   1.540   7.046  0.00  0.00    +0.000 A 
ATOM     32  C   UNL     1      47.609   2.888   6.812  0.00  0.00    +0.000 A 
ATOM     33  N   UNL     1      46.442   3.289   7.405  0.00  0.00    +0.000 N 
ATOM     34  H   UNL     1      46.084   4.236   7.435  0.00  0.00    +0.000 HD
ENDBRANCH  28  29
ENDBRANCH  26  28
ENDBRANCH  25  26
ENDBRANCH  22  25
ENDBRANCH  18  19
ENDBRANCH   1  18
TORSDOF 9
ENDMDL
MODEL 9
REMARK VINA RESULT:    -6.740      5.298      8.431
REMARK INTER + INTRA:         -10.851
REMARK INTER:                 -10.081
REMARK INTRA:                  -0.770
REMARK UNBOUND:                -0.762
REMARK  Name = 
REMARK  9 active torsions:
REMARK  status: ('A' for Active; 'I' for Inactive)
REMARK    1  A    between atoms: N_1  and  C_2
REMARK    2  A    between atoms: C_2  and  N_3
REMARK    3  A    between atoms: C_2  and  C_19
REMARK    4  A    between atoms: N_3  and  C_4
REMARK    5  A    between atoms: C_4  and  C_5
REMARK    6  A    between atoms: C_8  and  C_9
REMARK    7  A    between atoms: C_9  and  N_10
REMARK    8  A    between atoms: N_10  and  C_11
REMARK    9  A    between atoms: C_11  and  C_12
REMARK                            x       y       z     vdW  Elec       q    Type
REMARK                         _______ _______ _______ _____ _____    ______ ____
ROOT
ATOM      1  N   UNL     1      44.981   7.092  12.730  0.00  0.00    +0.000 NA
ATOM      2  H   UNL     1      45.657   6.389  13.037  0.00  0.00    +0.000 HD
ENDROOT
BRANCH   1   3
ATOM      3  C   UNL     1      44.629   6.738  11.372  0.00  0.00    +0.000 C 
BRANCH   3   4
ATOM      4  C   UNL     1      44.343   5.247  11.310  0.00  0.00    +0.000 A 
ATOM      5  C   UNL     1      43.607   4.526  12.245  0.00  0.00    +0.000 A 
ATOM      6  S   UNL     1      43.417   2.876  11.859  0.00  0.00    +0.000 S 
ATOM      7  C   UNL     1      44.303   3.057  10.419  0.00  0.00    +0.000 A 
ATOM      8  N   UNL     1      44.505   2.003   9.586  0.00  0.00    +0.000 NA
ATOM      9  C   UNL     1      45.190   2.291   8.528  0.00  0.00    +0.000 A 
ATOM     10  N   UNL     1      45.697   3.533   8.232  0.00  0.00    +0.000 N 
ATOM     11  C   UNL     1      45.548   4.619   9.063  0.00  0.00    +0.000 A 
ATOM     12  O   UNL     1      46.066   5.707   8.825  0.00  0.00    +0.000 OA
ATOM     13  C   UNL     1      44.754   4.352  10.250  0.00  0.00    +0.000 A 
ATOM     14  H   UNL     1      46.245   3.675   7.400  0.00  0.00    +0.000 HD
ENDBRANCH   3   4
BRANCH   3  15
ATOM     15  N   UNL     1      43.405   7.436  11.059  0.00  0.00    +0.000 NA
ATOM     16  H   UNL     1      42.661   6.765  10.905  0.00  0.00    +0.000 HD
ATOM     17  H   UNL     1      43.573   7.868  10.149  0.00  0.00    +0.000 HD
ENDBRANCH   3  15
ENDBRANCH   1   3
BRANCH   1  18
ATOM     18  C   UNL     1      45.651   8.400  12.844  0.00  0.00    +0.000 C 
BRANCH  18  19
ATOM     19  C   UNL     1      47.134   8.361  12.524  0.00  0.00    +0.000 A 
ATOM     20  C   UNL     1      47.870   7.197  12.708  0.00  0.00    +0.000 A 
ATOM     21  C   UNL     1      49.213   7.184  12.332  0.00  0.00    +0.000 A 
ATOM     22  C   UNL     1      49.792   8.324  11.767  0.00  0.00    +0.000 A 
ATOM     23  C   UNL     1      48.983   9.444  11.636  0.00  0.00    +0.000 A 
ATOM     24  N   UNL     1      47.680   9.487  11.993  0.00  0.00    +0.000 NA
BRANCH  22  25
ATOM     25  C   UNL     1      51.224   8.339  11.305  0.00  0.00    +0.000 C 
BRANCH  25  26
ATOM     26  N   UNL     1      51.562   7.077  10.648  0.00  0.00    +0.000 NA
ATOM     27  H   UNL     1      50.779   6.792  10.059  0.00  0.00    +0.000 HD
BRANCH  26  28
ATOM     28  C   UNL     1      52.739   7.210   9.798  0.00  0.00    +0.000 C 
BRANCH  28  29
ATOM     29  C   UNL     1      53.862   6.461  10.427  0.00  0.00    +0.000 A 
ATOM     30  C   UNL     1      55.038   6.893  11.009  0.00  0.00    +0.000 A 
ATOM     31  C   UNL     1      55.745   5.748  11.451  0.00  0.00    +0.000 A 
ATOM     32  C   UNL     1      54.989   4.646  11.123  0.00  0.00    +0.000 A 
ATOM     33  N   UNL     1      53.853   5.086  10.497  0.00  0.00    +0.000 N 
ATOM     34  H   UNL     1      53.124   4.501  10.107  0.00  0.00    +0.000 HD
ENDBRANCH  28  29
ENDBRANCH  26  28
ENDBRANCH  25  26
ENDBRANCH  22  25
ENDBRANCH  18  19
ENDBRANCH   1  18
TORSDOF 9
ENDMDL
