MODEL 1
REMARK VINA RESULT:    -8.448      0.000      0.000
REMARK INTER + INTRA:         -14.005
REMARK INTER:                 -12.647
REMARK INTRA:                  -1.359
REMARK UNBOUND:                -1.359
REMARK  Name = 
REMARK  10 active torsions:
REMARK  status: ('A' for Active; 'I' for Inactive)
REMARK    1  A    between atoms: C_1  and  O_2
REMARK    2  A    between atoms: O_2  and  C_3
REMARK    3  A    between atoms: C_10  and  C_11
REMARK    4  A    between atoms: N_13  and  C_14
REMARK    5  A    between atoms: C_14  and  C_15
REMARK    6  A    between atoms: C_18  and  O_19
REMARK    7  A    between atoms: O_19  and  C_20
REMARK    8  A    between atoms: C_20  and  C_21
REMARK    9  A    between atoms: C_21  and  O_22
REMARK   10  A    between atoms: C_21  and  C_23
REMARK                            x       y       z     vdW  Elec       q    Type
REMARK                         _______ _______ _______ _____ _____    ______ ____
ROOT
ATOM      1  C   UNL     1      46.190   7.253  12.527  0.00  0.00    +0.000 A 
ATOM      2  C   UNL     1      46.679   6.687  11.342  0.00  0.00    +0.000 A 
ATOM      3  C   UNL     1      45.872   5.854  10.555  0.00  0.00    +0.000 A 
ATOM      4  C   UNL     1      44.556   5.585  10.931  0.00  0.00    +0.000 A 
ATOM      5  C   UNL     1      44.046   6.191  12.082  0.00  0.00    +0.000 A 
ATOM      6  C   UNL     1      44.851   7.022  12.871  0.00  0.00    +0.000 A 
ENDROOT
BRANCH   1   7
ATOM      7  C   UNL     1      47.075   8.118  13.391  0.00  0.00    +0.000 C 
BRANCH   7  10
ATOM      8  C   UNL     1      48.775   6.861  14.675  0.00  0.00    +0.000 C 
ATOM      9  O   UNL     1      49.600   6.965  13.773  0.00  0.00    +0.000 OA
ATOM     10  N   UNL     1      47.520   7.403  14.559  0.00  0.00    +0.000 N 
ATOM     11  H   UNL     1      46.835   7.251  15.289  0.00  0.00    +0.000 HD
BRANCH   8  19
ATOM     12  C   UNL     1      47.298   4.215  16.313  0.00  0.00    +0.000 A 
ATOM     13  N   UNL     1      46.929   3.220  17.145  0.00  0.00    +0.000 NA
ATOM     14  C   UNL     1      47.646   3.032  18.256  0.00  0.00    +0.000 A 
ATOM     15  N   UNL     1      48.710   3.728  18.649  0.00  0.00    +0.000 NA
ATOM     16  C   UNL     1      49.051   4.701  17.787  0.00  0.00    +0.000 A 
ATOM     17  S   UNL     1      50.390   5.691  18.124  0.00  0.00    +0.000 S 
ATOM     18  C   UNL     1      50.161   6.577  16.691  0.00  0.00    +0.000 A 
ATOM     19  C   UNL     1      49.077   6.150  15.931  0.00  0.00    +0.000 A 
ATOM     20  C   UNL     1      48.416   5.023  16.592  0.00  0.00    +0.000 A 
BRANCH  12  22
ATOM     21  C   UNL     1      47.084   3.634  14.058  0.00  0.00    +0.000 C 
ATOM     22  O   UNL     1      46.571   4.387  15.155  0.00  0.00    +0.000 OA
ENDBRANCH  12  22
ENDBRANCH   8  19
ENDBRANCH   7  10
ENDBRANCH   1   7
BRANCH   4  23
ATOM     23  O   UNL     1      43.687   4.750  10.279  0.00  0.00    +0.000 OA
BRANCH  23  24
ATOM     24  C   UNL     1      44.151   4.159   9.052  0.00  0.00    +0.000 C 
BRANCH  24  25
ATOM     25  C   UNL     1      44.925   2.866   9.355  0.00  0.00    +0.000 C 
BRANCH  25  26
ATOM     26  C   UNL     1      45.827   2.472   8.200  0.00  0.00    +0.000 A 
ATOM     27  C   UNL     1      46.107   3.366   7.167  0.00  0.00    +0.000 A 
ATOM     28  C   UNL     1      46.967   2.975   6.145  0.00  0.00    +0.000 A 
ATOM     29  C   UNL     1      47.526   1.706   6.176  0.00  0.00    +0.000 A 
ATOM     30  C   UNL     1      47.204   0.877   7.237  0.00  0.00    +0.000 A 
ATOM     31  N   UNL     1      46.380   1.231   8.249  0.00  0.00    +0.000 NA
ENDBRANCH  25  26
BRANCH  25  32
ATOM     32  O   UNL     1      44.028   1.807   9.723  0.00  0.00    +0.000 OA
ATOM     33  H   UNL     1      44.518   0.977   9.588  0.00  0.00    +0.000 HD
ENDBRANCH  25  32
ENDBRANCH  24  25
ENDBRANCH  23  24
ENDBRANCH   4  23
TORSDOF 9
ENDMDL
MODEL 2
REMARK VINA RESULT:    -7.863      1.914      2.301
REMARK INTER + INTRA:         -13.129
REMARK INTER:                 -12.082
REMARK INTRA:                  -1.046
REMARK UNBOUND:                -1.359
REMARK  Name = 
REMARK  10 active torsions:
REMARK  status: ('A' for Active; 'I' for Inactive)
REMARK    1  A    between atoms: C_1  and  O_2
REMARK    2  A    between atoms: O_2  and  C_3
REMARK    3  A    between atoms: C_10  and  C_11
REMARK    4  A    between atoms: N_13  and  C_14
REMARK    5  A    between atoms: C_14  and  C_15
REMARK    6  A    between atoms: C_18  and  O_19
REMARK    7  A    between atoms: O_19  and  C_20
REMARK    8  A    between atoms: C_20  and  C_21
REMARK    9  A    between atoms: C_21  and  O_22
REMARK   10  A    between atoms: C_21  and  C_23
REMARK                            x       y       z     vdW  Elec       q    Type
REMARK                         _______ _______ _______ _____ _____    ______ ____
ROOT
ATOM      1  C   UNL     1      47.375   6.413  13.091  0.00  0.00    +0.000 A 
ATOM      2  C   UNL     1      46.919   6.819  11.830  0.00  0.00    +0.000 A 
ATOM      3  C   UNL     1      45.877   6.138  11.186  0.00  0.00    +0.000 A 
ATOM      4  C   UNL     1      45.261   5.046  11.800  0.00  0.00    +0.000 A 
ATOM      5  C   UNL     1      45.675   4.672  13.081  0.00  0.00    +0.000 A 
ATOM      6  C   UNL     1      46.717   5.350  13.725  0.00  0.00    +0.000 A 
ENDROOT
BRANCH   1   7
ATOM      7  C   UNL     1      48.523   7.127  13.763  0.00  0.00    +0.000 C 
BRANCH   7  10
ATOM      8  C   UNL     1      49.138   6.854  16.143  0.00  0.00    +0.000 C 
ATOM      9  O   UNL     1      50.186   6.285  15.855  0.00  0.00    +0.000 OA
ATOM     10  N   UNL     1      48.277   7.296  15.172  0.00  0.00    +0.000 N 
ATOM     11  H   UNL     1      47.389   7.705  15.433  0.00  0.00    +0.000 HD
BRANCH   8  19
ATOM     12  C   UNL     1      48.902   4.828  18.920  0.00  0.00    +0.000 A 
ATOM     13  N   UNL     1      48.724   4.276  20.136  0.00  0.00    +0.000 NA
ATOM     14  C   UNL     1      48.288   5.060  21.125  0.00  0.00    +0.000 A 
ATOM     15  N   UNL     1      48.002   6.358  21.050  0.00  0.00    +0.000 NA
ATOM     16  C   UNL     1      48.204   6.872  19.825  0.00  0.00    +0.000 A 
ATOM     17  S   UNL     1      47.893   8.518  19.543  0.00  0.00    +0.000 S 
ATOM     18  C   UNL     1      48.347   8.377  17.910  0.00  0.00    +0.000 A 
ATOM     19  C   UNL     1      48.740   7.094  17.543  0.00  0.00    +0.000 A 
ATOM     20  C   UNL     1      48.654   6.196  18.696  0.00  0.00    +0.000 A 
BRANCH  12  22
ATOM     21  C   UNL     1      48.343   3.315  17.228  0.00  0.00    +0.000 C 
ATOM     22  O   UNL     1      49.377   4.020  17.910  0.00  0.00    +0.000 OA
ENDBRANCH  12  22
ENDBRANCH   8  19
ENDBRANCH   7  10
ENDBRANCH   1   7
BRANCH   4  23
ATOM     23  O   UNL     1      44.274   4.269  11.256  0.00  0.00    +0.000 OA
BRANCH  23  24
ATOM     24  C   UNL     1      44.685   3.040  10.630  0.00  0.00    +0.000 C 
BRANCH  24  25
ATOM     25  C   UNL     1      44.338   3.076   9.133  0.00  0.00    +0.000 C 
BRANCH  25  26
ATOM     26  C   UNL     1      45.508   2.627   8.278  0.00  0.00    +0.000 A 
ATOM     27  C   UNL     1      46.175   3.523   7.442  0.00  0.00    +0.000 A 
ATOM     28  C   UNL     1      47.265   3.077   6.701  0.00  0.00    +0.000 A 
ATOM     29  C   UNL     1      47.664   1.753   6.809  0.00  0.00    +0.000 A 
ATOM     30  C   UNL     1      46.955   0.925   7.663  0.00  0.00    +0.000 A 
ATOM     31  N   UNL     1      45.899   1.330   8.403  0.00  0.00    +0.000 NA
ENDBRANCH  25  26
BRANCH  25  32
ATOM     32  O   UNL     1      43.859   4.374   8.750  0.00  0.00    +0.000 OA
ATOM     33  H   UNL     1      44.548   4.761   8.182  0.00  0.00    +0.000 HD
ENDBRANCH  25  32
ENDBRANCH  24  25
ENDBRANCH  23  24
ENDBRANCH   4  23
TORSDOF 9
ENDMDL
MODEL 3
REMARK VINA RESULT:    -7.738      2.586      3.367
REMARK INTER + INTRA:         -12.942
REMARK INTER:                 -11.736
REMARK INTRA:                  -1.205
REMARK UNBOUND:                -1.359
REMARK  Name = 
REMARK  10 active torsions:
REMARK  status: ('A' for Active; 'I' for Inactive)
REMARK    1  A    between atoms: C_1  and  O_2
REMARK    2  A    between atoms: O_2  and  C_3
REMARK    3  A    between atoms: C_10  and  C_11
REMARK    4  A    between atoms: N_13  and  C_14
REMARK    5  A    between atoms: C_14  and  C_15
REMARK    6  A    between atoms: C_18  and  O_19
REMARK    7  A    between atoms: O_19  and  C_20
REMARK    8  A    between atoms: C_20  and  C_21
REMARK    9  A    between atoms: C_21  and  O_22
REMARK   10  A    between atoms: C_21  and  C_23
REMARK                            x       y       z     vdW  Elec       q    Type
REMARK                         _______ _______ _______ _____ _____    ______ ____
ROOT
ATOM      1  C   UNL     1      47.631   6.441  13.447  0.00  0.00    +0.000 A 
ATOM      2  C   UNL     1      47.034   5.273  13.938  0.00  0.00    +0.000 A 
ATOM      3  C   UNL     1      46.039   4.610  13.206  0.00  0.00    +0.000 A 
ATOM      4  C   UNL     1      45.634   5.097  11.963  0.00  0.00    +0.000 A 
ATOM      5  C   UNL     1      46.266   6.231  11.445  0.00  0.00    +0.000 A 
ATOM      6  C   UNL     1      47.259   6.895  12.175  0.00  0.00    +0.000 A 
ENDROOT
BRANCH   1   7
ATOM      7  C   UNL     1      48.676   7.172  14.256  0.00  0.00    +0.000 C 
BRANCH   7  10
ATOM      8  C   UNL     1      49.162   6.491  16.584  0.00  0.00    +0.000 C 
ATOM      9  O   UNL     1      50.197   5.923  16.251  0.00  0.00    +0.000 OA
ATOM     10  N   UNL     1      48.369   7.126  15.663  0.00  0.00    +0.000 N 
ATOM     11  H   UNL     1      47.488   7.533  15.950  0.00  0.00    +0.000 HD
BRANCH   8  19
ATOM     12  C   UNL     1      47.826   8.959  18.582  0.00  0.00    +0.000 A 
ATOM     13  N   UNL     1      47.298   9.719  19.562  0.00  0.00    +0.000 NA
ATOM     14  C   UNL     1      47.100   9.155  20.757  0.00  0.00    +0.000 A 
ATOM     15  N   UNL     1      47.366   7.898  21.102  0.00  0.00    +0.000 NA
ATOM     16  C   UNL     1      47.880   7.173  20.094  0.00  0.00    +0.000 A 
ATOM     17  S   UNL     1      48.280   5.542  20.351  0.00  0.00    +0.000 S 
ATOM     18  C   UNL     1      48.817   5.366  18.748  0.00  0.00    +0.000 A 
ATOM     19  C   UNL     1      48.708   6.525  17.987  0.00  0.00    +0.000 A 
ATOM     20  C   UNL     1      48.143   7.605  18.799  0.00  0.00    +0.000 A 
BRANCH  12  22
ATOM     21  C   UNL     1      49.238  10.244  17.232  0.00  0.00    +0.000 C 
ATOM     22  O   UNL     1      48.004   9.540  17.345  0.00  0.00    +0.000 OA
ENDBRANCH  12  22
ENDBRANCH   8  19
ENDBRANCH   7  10
ENDBRANCH   1   7
BRANCH   4  23
ATOM     23  O   UNL     1      44.640   4.574  11.178  0.00  0.00    +0.000 OA
BRANCH  23  24
ATOM     24  C   UNL     1      44.820   3.223  10.716  0.00  0.00    +0.000 C 
BRANCH  24  25
ATOM     25  C   UNL     1      44.381   3.112   9.247  0.00  0.00    +0.000 C 
BRANCH  25  26
ATOM     26  C   UNL     1      45.511   2.618   8.362  0.00  0.00    +0.000 A 
ATOM     27  C   UNL     1      46.191   3.489   7.510  0.00  0.00    +0.000 A 
ATOM     28  C   UNL     1      47.244   3.001   6.742  0.00  0.00    +0.000 A 
ATOM     29  C   UNL     1      47.593   1.662   6.839  0.00  0.00    +0.000 A 
ATOM     30  C   UNL     1      46.874   0.862   7.711  0.00  0.00    +0.000 A 
ATOM     31  N   UNL     1      45.854   1.307   8.477  0.00  0.00    +0.000 NA
ENDBRANCH  25  26
BRANCH  25  32
ATOM     32  O   UNL     1      43.837   4.355   8.780  0.00  0.00    +0.000 OA
ATOM     33  H   UNL     1      44.416   4.651   8.056  0.00  0.00    +0.000 HD
ENDBRANCH  25  32
ENDBRANCH  24  25
ENDBRANCH  23  24
ENDBRANCH   4  23
TORSDOF 9
ENDMDL
MODEL 4
REMARK VINA RESULT:    -7.388      1.614      2.078
REMARK INTER + INTRA:         -12.418
REMARK INTER:                 -11.330
REMARK INTRA:                  -1.087
REMARK UNBOUND:                -1.359
REMARK  Name = 
REMARK  10 active torsions:
REMARK  status: ('A' for Active; 'I' for Inactive)
REMARK    1  A    between atoms: C_1  and  O_2
REMARK    2  A    between atoms: O_2  and  C_3
REMARK    3  A    between atoms: C_10  and  C_11
REMARK    4  A    between atoms: N_13  and  C_14
REMARK    5  A    between atoms: C_14  and  C_15
REMARK    6  A    between atoms: C_18  and  O_19
REMARK    7  A    between atoms: O_19  and  C_20
REMARK    8  A    between atoms: C_20  and  C_21
REMARK    9  A    between atoms: C_21  and  O_22
REMARK   10  A    between atoms: C_21  and  C_23
REMARK                            x       y       z     vdW  Elec       q    Type
REMARK                         _______ _______ _______ _____ _____    ______ ____
ROOT
ATOM      1  C   UNL     1      47.065   7.364  13.353  0.00  0.00    +0.000 A 
ATOM      2  C   UNL     1      47.319   5.991  13.462  0.00  0.00    +0.000 A 
ATOM      3  C   UNL     1      46.434   5.049  12.918  0.00  0.00    +0.000 A 
ATOM      4  C   UNL     1      45.286   5.465  12.244  0.00  0.00    +0.000 A 
ATOM      5  C   UNL     1      45.057   6.834  12.086  0.00  0.00    +0.000 A 
ATOM      6  C   UNL     1      45.938   7.777  12.629  0.00  0.00    +0.000 A 
ENDROOT
BRANCH   1   7
ATOM      7  C   UNL     1      48.001   8.374  13.972  0.00  0.00    +0.000 C 
BRANCH   7  10
ATOM      8  C   UNL     1      49.435   7.645  15.851  0.00  0.00    +0.000 C 
ATOM      9  O   UNL     1      50.399   7.478  15.111  0.00  0.00    +0.000 OA
ATOM     10  N   UNL     1      48.231   8.084  15.364  0.00  0.00    +0.000 N 
ATOM     11  H   UNL     1      47.432   8.154  15.982  0.00  0.00    +0.000 HD
BRANCH   8  19
ATOM     12  C   UNL     1      48.726   4.895  17.800  0.00  0.00    +0.000 A 
ATOM     13  N   UNL     1      48.529   3.988  18.779  0.00  0.00    +0.000 NA
ATOM     14  C   UNL     1      48.777   4.359  20.037  0.00  0.00    +0.000 A 
ATOM     15  N   UNL     1      49.207   5.548  20.452  0.00  0.00    +0.000 NA
ATOM     16  C   UNL     1      49.400   6.418  19.445  0.00  0.00    +0.000 A 
ATOM     17  S   UNL     1      49.952   7.988  19.787  0.00  0.00    +0.000 S 
ATOM     18  C   UNL     1      49.931   8.410  18.140  0.00  0.00    +0.000 A 
ATOM     19  C   UNL     1      49.510   7.383  17.301  0.00  0.00    +0.000 A 
ATOM     20  C   UNL     1      49.195   6.190  18.089  0.00  0.00    +0.000 A 
BRANCH  12  22
ATOM     21  C   UNL     1      47.816   3.247  16.413  0.00  0.00    +0.000 C 
ATOM     22  O   UNL     1      48.494   4.498  16.501  0.00  0.00    +0.000 OA
ENDBRANCH  12  22
ENDBRANCH   8  19
ENDBRANCH   7  10
ENDBRANCH   1   7
BRANCH   4  23
ATOM     23  O   UNL     1      44.321   4.647  11.718  0.00  0.00    +0.000 OA
BRANCH  23  24
ATOM     24  C   UNL     1      44.773   3.456  11.049  0.00  0.00    +0.000 C 
BRANCH  24  25
ATOM     25  C   UNL     1      44.236   3.432   9.608  0.00  0.00    +0.000 C 
BRANCH  25  26
ATOM     26  C   UNL     1      45.314   3.031   8.618  0.00  0.00    +0.000 A 
ATOM     27  C   UNL     1      45.801   1.725   8.574  0.00  0.00    +0.000 A 
ATOM     28  C   UNL     1      46.764   1.391   7.627  0.00  0.00    +0.000 A 
ATOM     29  C   UNL     1      47.220   2.364   6.749  0.00  0.00    +0.000 A 
ATOM     30  C   UNL     1      46.684   3.637   6.851  0.00  0.00    +0.000 A 
ATOM     31  N   UNL     1      45.741   3.989   7.753  0.00  0.00    +0.000 NA
ENDBRANCH  25  26
BRANCH  25  32
ATOM     32  O   UNL     1      43.632   4.689   9.266  0.00  0.00    +0.000 OA
ATOM     33  H   UNL     1      42.677   4.519   9.188  0.00  0.00    +0.000 HD
ENDBRANCH  25  32
ENDBRANCH  24  25
ENDBRANCH  23  24
ENDBRANCH   4  23
TORSDOF 9
ENDMDL
MODEL 5
REMARK VINA RESULT:    -6.659      2.375      3.199
REMARK INTER + INTRA:         -11.327
REMARK INTER:                 -10.258
REMARK INTRA:                  -1.069
REMARK UNBOUND:                -1.359
REMARK  Name = 
REMARK  10 active torsions:
REMARK  status: ('A' for Active; 'I' for Inactive)
REMARK    1  A    between atoms: C_1  and  O_2
REMARK    2  A    between atoms: O_2  and  C_3
REMARK    3  A    between atoms: C_10  and  C_11
REMARK    4  A    between atoms: N_13  and  C_14
REMARK    5  A    between atoms: C_14  and  C_15
REMARK    6  A    between atoms: C_18  and  O_19
REMARK    7  A    between atoms: O_19  and  C_20
REMARK    8  A    between atoms: C_20  and  C_21
REMARK    9  A    between atoms: C_21  and  O_22
REMARK   10  A    between atoms: C_21  and  C_23
REMARK                            x       y       z     vdW  Elec       q    Type
REMARK                         _______ _______ _______ _____ _____    ______ ____
ROOT
ATOM      1  C   UNL     1      48.168   6.706  12.879  0.00  0.00    +0.000 A 
ATOM      2  C   UNL     1      47.617   7.040  11.635  0.00  0.00    +0.000 A 
ATOM      3  C   UNL     1      46.435   6.434  11.185  0.00  0.00    +0.000 A 
ATOM      4  C   UNL     1      45.777   5.494  11.977  0.00  0.00    +0.000 A 
ATOM      5  C   UNL     1      46.294   5.198  13.241  0.00  0.00    +0.000 A 
ATOM      6  C   UNL     1      47.475   5.801  13.693  0.00  0.00    +0.000 A 
ENDROOT
BRANCH   1   7
ATOM      7  C   UNL     1      49.461   7.333  13.342  0.00  0.00    +0.000 C 
BRANCH   7  10
ATOM      8  C   UNL     1      50.841   7.436  15.392  0.00  0.00    +0.000 C 
ATOM      9  O   UNL     1      51.568   8.302  14.915  0.00  0.00    +0.000 OA
ATOM     10  N   UNL     1      49.789   6.917  14.682  0.00  0.00    +0.000 N 
ATOM     11  H   UNL     1      49.242   6.160  15.071  0.00  0.00    +0.000 HD
BRANCH   8  19
ATOM     12  C   UNL     1      49.936   8.520  18.535  0.00  0.00    +0.000 A 
ATOM     13  N   UNL     1      49.717   8.708  19.852  0.00  0.00    +0.000 NA
ATOM     14  C   UNL     1      50.211   7.807  20.705  0.00  0.00    +0.000 A 
ATOM     15  N   UNL     1      50.910   6.716  20.402  0.00  0.00    +0.000 NA
ATOM     16  C   UNL     1      51.096   6.561  19.080  0.00  0.00    +0.000 A 
ATOM     17  S   UNL     1      51.967   5.220  18.506  0.00  0.00    +0.000 S 
ATOM     18  C   UNL     1      51.774   5.719  16.892  0.00  0.00    +0.000 A 
ATOM     19  C   UNL     1      51.054   6.900  16.750  0.00  0.00    +0.000 A 
ATOM     20  C   UNL     1      50.648   7.400  18.066  0.00  0.00    +0.000 A 
BRANCH  12  22
ATOM     21  C   UNL     1      47.988   9.321  17.522  0.00  0.00    +0.000 C 
ATOM     22  O   UNL     1      49.402   9.439  17.657  0.00  0.00    +0.000 OA
ENDBRANCH  12  22
ENDBRANCH   8  19
ENDBRANCH   7  10
ENDBRANCH   1   7
BRANCH   4  23
ATOM     23  O   UNL     1      44.651   4.796  11.630  0.00  0.00    +0.000 OA
BRANCH  23  24
ATOM     24  C   UNL     1      44.842   3.463  11.122  0.00  0.00    +0.000 C 
BRANCH  24  25
ATOM     25  C   UNL     1      44.278   3.364   9.695  0.00  0.00    +0.000 C 
BRANCH  25  26
ATOM     26  C   UNL     1      45.341   2.927   8.704  0.00  0.00    +0.000 A 
ATOM     27  C   UNL     1      45.975   3.853   7.874  0.00  0.00    +0.000 A 
ATOM     28  C   UNL     1      46.968   3.415   7.004  0.00  0.00    +0.000 A 
ATOM     29  C   UNL     1      47.306   2.069   6.980  0.00  0.00    +0.000 A 
ATOM     30  C   UNL     1      46.636   1.213   7.837  0.00  0.00    +0.000 A 
ATOM     31  N   UNL     1      45.674   1.609   8.700  0.00  0.00    +0.000 NA
ENDBRANCH  25  26
BRANCH  25  32
ATOM     32  O   UNL     1      43.653   4.596   9.305  0.00  0.00    +0.000 OA
ATOM     33  H   UNL     1      44.114   5.301   9.793  0.00  0.00    +0.000 HD
ENDBRANCH  25  32
ENDBRANCH  24  25
ENDBRANCH  23  24
ENDBRANCH   4  23
TORSDOF 9
ENDMDL
MODEL 6
REMARK VINA RESULT:    -6.472      3.769      5.372
REMARK INTER + INTRA:         -11.046
REMARK INTER:                  -9.890
REMARK INTRA:                  -1.157
REMARK UNBOUND:                -1.359
REMARK  Name = 
REMARK  10 active torsions:
REMARK  status: ('A' for Active; 'I' for Inactive)
REMARK    1  A    between atoms: C_1  and  O_2
REMARK    2  A    between atoms: O_2  and  C_3
REMARK    3  A    between atoms: C_10  and  C_11
REMARK    4  A    between atoms: N_13  and  C_14
REMARK    5  A    between atoms: C_14  and  C_15
REMARK    6  A    between atoms: C_18  and  O_19
REMARK    7  A    between atoms: O_19  and  C_20
REMARK    8  A    between atoms: C_20  and  C_21
REMARK    9  A    between atoms: C_21  and  O_22
REMARK   10  A    between atoms: C_21  and  C_23
REMARK                            x       y       z     vdW  Elec       q    Type
REMARK                         _______ _______ _______ _____ _____    ______ ____
ROOT
ATOM      1  C   UNL     1      48.206   6.694  13.845  0.00  0.00    +0.000 A 
ATOM      2  C   UNL     1      47.407   5.585  14.154  0.00  0.00    +0.000 A 
ATOM      3  C   UNL     1      46.401   5.156  13.277  0.00  0.00    +0.000 A 
ATOM      4  C   UNL     1      46.185   5.821  12.070  0.00  0.00    +0.000 A 
ATOM      5  C   UNL     1      47.015   6.893  11.733  0.00  0.00    +0.000 A 
ATOM      6  C   UNL     1      48.021   7.324  12.608  0.00  0.00    +0.000 A 
ENDROOT
BRANCH   1   7
ATOM      7  C   UNL     1      49.264   7.174  14.809  0.00  0.00    +0.000 C 
BRANCH   7  10
ATOM      8  C   UNL     1      51.446   8.306  14.535  0.00  0.00    +0.000 C 
ATOM      9  O   UNL     1      51.239   9.039  15.497  0.00  0.00    +0.000 OA
ATOM     10  N   UNL     1      50.526   7.369  14.142  0.00  0.00    +0.000 N 
ATOM     11  H   UNL     1      50.689   6.819  13.308  0.00  0.00    +0.000 HD
BRANCH   8  19
ATOM     12  C   UNL     1      52.092   8.740  11.179  0.00  0.00    +0.000 A 
ATOM     13  N   UNL     1      52.618   8.894   9.948  0.00  0.00    +0.000 NA
ATOM     14  C   UNL     1      53.948   8.869   9.825  0.00  0.00    +0.000 A 
ATOM     15  N   UNL     1      54.839   8.707  10.801  0.00  0.00    +0.000 NA
ATOM     16  C   UNL     1      54.273   8.569  12.012  0.00  0.00    +0.000 A 
ATOM     17  S   UNL     1      55.259   8.354  13.379  0.00  0.00    +0.000 S 
ATOM     18  C   UNL     1      53.906   8.262  14.405  0.00  0.00    +0.000 A 
ATOM     19  C   UNL     1      52.688   8.389  13.744  0.00  0.00    +0.000 A 
ATOM     20  C   UNL     1      52.915   8.575  12.309  0.00  0.00    +0.000 A 
BRANCH  12  22
ATOM     21  C   UNL     1      50.219  10.126  11.368  0.00  0.00    +0.000 C 
ATOM     22  O   UNL     1      50.720   8.793  11.303  0.00  0.00    +0.000 OA
ENDBRANCH  12  22
ENDBRANCH   8  19
ENDBRANCH   7  10
ENDBRANCH   1   7
BRANCH   4  23
ATOM     23  O   UNL     1      45.204   5.534  11.158  0.00  0.00    +0.000 OA
BRANCH  23  24
ATOM     24  C   UNL     1      45.633   5.214   9.822  0.00  0.00    +0.000 C 
BRANCH  24  25
ATOM     25  C   UNL     1      44.842   4.004   9.297  0.00  0.00    +0.000 C 
BRANCH  25  26
ATOM     26  C   UNL     1      45.687   3.141   8.377  0.00  0.00    +0.000 A 
ATOM     27  C   UNL     1      46.407   3.704   7.323  0.00  0.00    +0.000 A 
ATOM     28  C   UNL     1      47.196   2.881   6.525  0.00  0.00    +0.000 A 
ATOM     29  C   UNL     1      47.249   1.521   6.794  0.00  0.00    +0.000 A 
ATOM     30  C   UNL     1      46.511   1.038   7.862  0.00  0.00    +0.000 A 
ATOM     31  N   UNL     1      45.743   1.813   8.660  0.00  0.00    +0.000 NA
ENDBRANCH  25  26
BRANCH  25  32
ATOM     32  O   UNL     1      43.622   4.424   8.669  0.00  0.00    +0.000 OA
ATOM     33  H   UNL     1      43.300   5.186   9.183  0.00  0.00    +0.000 HD
ENDBRANCH  25  32
ENDBRANCH  24  25
ENDBRANCH  23  24
ENDBRANCH   4  23
TORSDOF 9
ENDMDL
MODEL 7
REMARK VINA RESULT:    -6.458      2.014      3.599
REMARK INTER + INTRA:         -11.026
REMARK INTER:                 -10.919
REMARK INTRA:                  -0.107
REMARK UNBOUND:                -1.359
REMARK  Name = 
REMARK  10 active torsions:
REMARK  status: ('A' for Active; 'I' for Inactive)
REMARK    1  A    between atoms: C_1  and  O_2
REMARK    2  A    between atoms: O_2  and  C_3
REMARK    3  A    between atoms: C_10  and  C_11
REMARK    4  A    between atoms: N_13  and  C_14
REMARK    5  A    between atoms: C_14  and  C_15
REMARK    6  A    between atoms: C_18  and  O_19
REMARK    7  A    between atoms: O_19  and  C_20
REMARK    8  A    between atoms: C_20  and  C_21
REMARK    9  A    between atoms: C_21  and  O_22
REMARK   10  A    between atoms: C_21  and  C_23
REMARK                            x       y       z     vdW  Elec       q    Type
REMARK                         _______ _______ _______ _____ _____    ______ ____
ROOT
ATOM      1  C   UNL     1      46.548   4.671  13.894  0.00  0.00    +0.000 A 
ATOM      2  C   UNL     1      45.821   3.610  13.337  0.00  0.00    +0.000 A 
ATOM      3  C   UNL     1      45.250   3.720  12.062  0.00  0.00    +0.000 A 
ATOM      4  C   UNL     1      45.407   4.888  11.315  0.00  0.00    +0.000 A 
ATOM      5  C   UNL     1      46.178   5.927  11.844  0.00  0.00    +0.000 A 
ATOM      6  C   UNL     1      46.749   5.820  13.118  0.00  0.00    +0.000 A 
ENDROOT
BRANCH   1   7
ATOM      7  C   UNL     1      47.130   4.561  15.283  0.00  0.00    +0.000 C 
BRANCH   7  10
ATOM      8  C   UNL     1      48.671   5.841  16.734  0.00  0.00    +0.000 C 
ATOM      9  O   UNL     1      48.854   4.876  17.469  0.00  0.00    +0.000 OA
ATOM     10  N   UNL     1      47.843   5.760  15.644  0.00  0.00    +0.000 N 
ATOM     11  H   UNL     1      47.656   6.585  15.089  0.00  0.00    +0.000 HD
BRANCH   8  19
ATOM     12  C   UNL     1      50.245   8.120  14.685  0.00  0.00    +0.000 A 
ATOM     13  N   UNL     1      50.897   9.159  14.126  0.00  0.00    +0.000 NA
ATOM     14  C   UNL     1      51.306  10.147  14.925  0.00  0.00    +0.000 A 
ATOM     15  N   UNL     1      51.140  10.232  16.243  0.00  0.00    +0.000 NA
ATOM     16  C   UNL     1      50.477   9.183  16.758  0.00  0.00    +0.000 A 
ATOM     17  S   UNL     1      50.170   9.121  18.428  0.00  0.00    +0.000 S 
ATOM     18  C   UNL     1      49.375   7.625  18.280  0.00  0.00    +0.000 A 
ATOM     19  C   UNL     1      49.323   7.142  16.976  0.00  0.00    +0.000 A 
ATOM     20  C   UNL     1      49.984   8.081  16.068  0.00  0.00    +0.000 A 
BRANCH  12  22
ATOM     21  C   UNL     1      49.815   7.488  12.476  0.00  0.00    +0.000 C 
ATOM     22  O   UNL     1      49.802   7.116  13.852  0.00  0.00    +0.000 OA
ENDBRANCH  12  22
ENDBRANCH   8  19
ENDBRANCH   7  10
ENDBRANCH   1   7
BRANCH   4  23
ATOM     23  O   UNL     1      44.857   5.138  10.086  0.00  0.00    +0.000 OA
BRANCH  23  24
ATOM     24  C   UNL     1      44.076   4.082   9.497  0.00  0.00    +0.000 C 
BRANCH  24  25
ATOM     25  C   UNL     1      44.834   2.749   9.607  0.00  0.00    +0.000 C 
BRANCH  25  26
ATOM     26  C   UNL     1      45.688   2.490   8.380  0.00  0.00    +0.000 A 
ATOM     27  C   UNL     1      45.877   3.477   7.413  0.00  0.00    +0.000 A 
ATOM     28  C   UNL     1      46.696   3.208   6.320  0.00  0.00    +0.000 A 
ATOM     29  C   UNL     1      47.305   1.966   6.216  0.00  0.00    +0.000 A 
ATOM     30  C   UNL     1      47.073   1.040   7.220  0.00  0.00    +0.000 A 
ATOM     31  N   UNL     1      46.291   1.274   8.297  0.00  0.00    +0.000 NA
ENDBRANCH  25  26
BRANCH  25  32
ATOM     32  O   UNL     1      43.929   1.666   9.871  0.00  0.00    +0.000 OA
ATOM     33  H   UNL     1      44.297   1.184  10.633  0.00  0.00    +0.000 HD
ENDBRANCH  25  32
ENDBRANCH  24  25
ENDBRANCH  23  24
ENDBRANCH   4  23
TORSDOF 9
ENDMDL
MODEL 8
REMARK VINA RESULT:    -6.456      4.997      6.636
REMARK INTER + INTRA:         -11.023
REMARK INTER:                  -9.699
REMARK INTRA:                  -1.324
REMARK UNBOUND:                -1.359
REMARK  Name = 
REMARK  10 active torsions:
REMARK  status: ('A' for Active; 'I' for Inactive)
REMARK    1  A    between atoms: C_1  and  O_2
REMARK    2  A    between atoms: O_2  and  C_3
REMARK    3  A    between atoms: C_10  and  C_11
REMARK    4  A    between atoms: N_13  and  C_14
REMARK    5  A    between atoms: C_14  and  C_15
REMARK    6  A    between atoms: C_18  and  O_19
REMARK    7  A    between atoms: O_19  and  C_20
REMARK    8  A    between atoms: C_20  and  C_21
REMARK    9  A    between atoms: C_21  and  O_22
REMARK   10  A    between atoms: C_21  and  C_23
REMARK                            x       y       z     vdW  Elec       q    Type
REMARK                         _______ _______ _______ _____ _____    ______ ____
ROOT
ATOM      1  C   UNL     1      48.648   6.984  12.623  0.00  0.00    +0.000 A 
ATOM      2  C   UNL     1      47.953   7.274  11.442  0.00  0.00    +0.000 A 
ATOM      3  C   UNL     1      46.663   6.769  11.223  0.00  0.00    +0.000 A 
ATOM      4  C   UNL     1      46.041   5.977  12.188  0.00  0.00    +0.000 A 
ATOM      5  C   UNL     1      46.709   5.732  13.391  0.00  0.00    +0.000 A 
ATOM      6  C   UNL     1      47.998   6.234  13.611  0.00  0.00    +0.000 A 
ENDROOT
BRANCH   1   7
ATOM      7  C   UNL     1      50.051   7.499  12.838  0.00  0.00    +0.000 C 
BRANCH   7  10
ATOM      8  C   UNL     1      51.650   8.899  11.572  0.00  0.00    +0.000 C 
ATOM      9  O   UNL     1      52.163   9.326  12.601  0.00  0.00    +0.000 OA
ATOM     10  N   UNL     1      50.614   8.000  11.611  0.00  0.00    +0.000 N 
ATOM     11  H   UNL     1      50.165   7.710  10.751  0.00  0.00    +0.000 HD
BRANCH   8  19
ATOM     12  C   UNL     1      53.025   7.221   8.895  0.00  0.00    +0.000 A 
ATOM     13  N   UNL     1      53.566   6.823   7.726  0.00  0.00    +0.000 NA
ATOM     14  C   UNL     1      53.794   7.750   6.792  0.00  0.00    +0.000 A 
ATOM     15  N   UNL     1      53.543   9.054   6.880  0.00  0.00    +0.000 NA
ATOM     16  C   UNL     1      52.995   9.406   8.056  0.00  0.00    +0.000 A 
ATOM     17  S   UNL     1      52.603  11.034   8.346  0.00  0.00    +0.000 S 
ATOM     18  C   UNL     1      52.022  10.671   9.902  0.00  0.00    +0.000 A 
ATOM     19  C   UNL     1      52.110   9.324  10.236  0.00  0.00    +0.000 A 
ATOM     20  C   UNL     1      52.692   8.569   9.124  0.00  0.00    +0.000 A 
BRANCH  12  22
ATOM     21  C   UNL     1      53.940   5.562  10.265  0.00  0.00    +0.000 C 
ATOM     22  O   UNL     1      52.768   6.256   9.845  0.00  0.00    +0.000 OA
ENDBRANCH  12  22
ENDBRANCH   8  19
ENDBRANCH   7  10
ENDBRANCH   1   7
BRANCH   4  23
ATOM     23  O   UNL     1      44.812   5.384  12.073  0.00  0.00    +0.000 OA
BRANCH  23  24
ATOM     24  C   UNL     1      44.793   4.000  11.677  0.00  0.00    +0.000 C 
BRANCH  24  25
ATOM     25  C   UNL     1      44.067   3.853  10.330  0.00  0.00    +0.000 C 
BRANCH  25  26
ATOM     26  C   UNL     1      45.006   3.370   9.239  0.00  0.00    +0.000 A 
ATOM     27  C   UNL     1      45.637   4.271   8.382  0.00  0.00    +0.000 A 
ATOM     28  C   UNL     1      46.517   3.787   7.418  0.00  0.00    +0.000 A 
ATOM     29  C   UNL     1      46.746   2.421   7.331  0.00  0.00    +0.000 A 
ATOM     30  C   UNL     1      46.086   1.591   8.221  0.00  0.00    +0.000 A 
ATOM     31  N   UNL     1      45.234   2.031   9.174  0.00  0.00    +0.000 NA
ENDBRANCH  25  26
BRANCH  25  32
ATOM     32  O   UNL     1      43.407   5.076   9.968  0.00  0.00    +0.000 OA
ATOM     33  H   UNL     1      44.037   5.571   9.415  0.00  0.00    +0.000 HD
ENDBRANCH  25  32
ENDBRANCH  24  25
ENDBRANCH  23  24
ENDBRANCH   4  23
TORSDOF 9
ENDMDL
MODEL 9
REMARK VINA RESULT:    -6.339      2.377      3.283
REMARK INTER + INTRA:         -10.848
REMARK INTER:                  -9.826
REMARK INTRA:                  -1.022
REMARK UNBOUND:                -1.359
REMARK  Name = 
REMARK  10 active torsions:
REMARK  status: ('A' for Active; 'I' for Inactive)
REMARK    1  A    between atoms: C_1  and  O_2
REMARK    2  A    between atoms: O_2  and  C_3
REMARK    3  A    between atoms: C_10  and  C_11
REMARK    4  A    between atoms: N_13  and  C_14
REMARK    5  A    between atoms: C_14  and  C_15
REMARK    6  A    between atoms: C_18  and  O_19
REMARK    7  A    between atoms: O_19  and  C_20
REMARK    8  A    between atoms: C_20  and  C_21
REMARK    9  A    between atoms: C_21  and  O_22
REMARK   10  A    between atoms: C_21  and  C_23
REMARK                            x       y       z     vdW  Elec       q    Type
REMARK                         _______ _______ _______ _____ _____    ______ ____
ROOT
ATOM      1  C   UNL     1      47.943   6.838  14.428  0.00  0.00    +0.000 A 
ATOM      2  C   UNL     1      47.518   5.578  14.868  0.00  0.00    +0.000 A 
ATOM      3  C   UNL     1      46.817   4.715  14.014  0.00  0.00    +0.000 A 
ATOM      4  C   UNL     1      46.542   5.092  12.700  0.00  0.00    +0.000 A 
ATOM      5  C   UNL     1      47.012   6.325  12.240  0.00  0.00    +0.000 A 
ATOM      6  C   UNL     1      47.710   7.189  13.092  0.00  0.00    +0.000 A 
ENDROOT
BRANCH   1   7
ATOM      7  C   UNL     1      48.663   7.779  15.363  0.00  0.00    +0.000 C 
BRANCH   7  10
ATOM      8  C   UNL     1      51.094   7.338  15.488  0.00  0.00    +0.000 C 
ATOM      9  O   UNL     1      51.324   8.077  14.537  0.00  0.00    +0.000 OA
ATOM     10  N   UNL     1      49.817   7.147  15.950  0.00  0.00    +0.000 N 
ATOM     11  H   UNL     1      49.643   6.484  16.695  0.00  0.00    +0.000 HD
BRANCH   8  19
ATOM     12  C   UNL     1      51.161   4.470  17.396  0.00  0.00    +0.000 A 
ATOM     13  N   UNL     1      51.467   3.404  18.162  0.00  0.00    +0.000 NA
ATOM     14  C   UNL     1      52.737   3.251  18.548  0.00  0.00    +0.000 A 
ATOM     15  N   UNL     1      53.763   4.046  18.256  0.00  0.00    +0.000 NA
ATOM     16  C   UNL     1      53.418   5.089  17.481  0.00  0.00    +0.000 A 
ATOM     17  S   UNL     1      54.602   6.210  17.005  0.00  0.00    +0.000 S 
ATOM     18  C   UNL     1      53.461   7.127  16.140  0.00  0.00    +0.000 A 
ATOM     19  C   UNL     1      52.169   6.612  16.190  0.00  0.00    +0.000 A 
ATOM     20  C   UNL     1      52.150   5.389  16.995  0.00  0.00    +0.000 A 
BRANCH  12  22
ATOM     21  C   UNL     1      48.923   3.967  17.847  0.00  0.00    +0.000 C 
ATOM     22  O   UNL     1      49.855   4.608  16.979  0.00  0.00    +0.000 OA
ENDBRANCH  12  22
ENDBRANCH   8  19
ENDBRANCH   7  10
ENDBRANCH   1   7
BRANCH   4  23
ATOM     23  O   UNL     1      45.824   4.365  11.787  0.00  0.00    +0.000 OA
BRANCH  23  24
ATOM     24  C   UNL     1      45.206   5.097  10.713  0.00  0.00    +0.000 C 
BRANCH  24  25
ATOM     25  C   UNL     1      44.449   4.129   9.790  0.00  0.00    +0.000 C 
BRANCH  25  26
ATOM     26  C   UNL     1      45.389   3.427   8.826  0.00  0.00    +0.000 A 
ATOM     27  C   UNL     1      45.573   2.046   8.879  0.00  0.00    +0.000 A 
ATOM     28  C   UNL     1      46.417   1.438   7.954  0.00  0.00    +0.000 A 
ATOM     29  C   UNL     1      47.057   2.219   7.003  0.00  0.00    +0.000 A 
ATOM     30  C   UNL     1      46.820   3.583   7.011  0.00  0.00    +0.000 A 
ATOM     31  N   UNL     1      45.999   4.201   7.890  0.00  0.00    +0.000 NA
ENDBRANCH  25  26
BRANCH  25  32
ATOM     32  O   UNL     1      43.383   4.804   9.105  0.00  0.00    +0.000 OA
ATOM     33  H   UNL     1      42.893   4.116   8.621  0.00  0.00    +0.000 HD
ENDBRANCH  25  32
ENDBRANCH  24  25
ENDBRANCH  23  24
ENDBRANCH   4  23
TORSDOF 9
ENDMDL
