MODEL 1
REMARK VINA RESULT:    -8.443      0.000      0.000
REMARK INTER + INTRA:         -13.053
REMARK INTER:                 -11.898
REMARK INTRA:                  -1.155
REMARK UNBOUND:                -1.155
REMARK  Name = 
REMARK  8 active torsions:
REMARK  status: ('A' for Active; 'I' for Inactive)
REMARK    1  A    between atoms: C_1  and  C_2
REMARK    2  A    between atoms: C_2  and  N_3
REMARK    3  A    between atoms: C_2  and  C_25
REMARK    4  A    between atoms: N_3  and  C_4
REMARK    5  A    between atoms: C_4  and  C_5
REMARK    6  A    between atoms: C_8  and  C_9
REMARK    7  A    between atoms: C_9  and  N_10
REMARK    8  A    between atoms: C_11  and  C_13
REMARK                            x       y       z     vdW  Elec       q    Type
REMARK                         _______ _______ _______ _____ _____    ______ ____
ROOT
ATOM      1  C   UNL     1      44.546   5.450  10.961  0.00  0.00    +0.000 A 
ATOM      2  C   UNL     1      45.765   5.887  10.437  0.00  0.00    +0.000 A 
ATOM      3  C   UNL     1      46.566   6.756  11.176  0.00  0.00    +0.000 A 
ATOM      4  C   UNL     1      46.130   7.169  12.433  0.00  0.00    +0.000 A 
ATOM      5  N   UNL     1      44.930   6.790  12.943  0.00  0.00    +0.000 NA
ATOM      6  C   UNL     1      44.176   5.945  12.204  0.00  0.00    +0.000 A 
ENDROOT
BRANCH   1   7
ATOM      7  C   UNL     1      43.631   4.543  10.186  0.00  0.00    +0.000 C 
BRANCH   7   8
ATOM      8  N   UNL     1      44.242   4.080   8.937  0.00  0.00    +0.000 NA
ATOM      9  H   UNL     1      44.862   4.815   8.589  0.00  0.00    +0.000 HD
BRANCH   8  11
ATOM     10  C   UNL     1      44.197   1.602   9.273  0.00  0.00    +0.000 C 
ATOM     11  C   UNL     1      45.062   2.862   9.123  0.00  0.00    +0.000 C 
BRANCH  11  12
ATOM     12  C   UNL     1      46.045   2.654   7.965  0.00  0.00    +0.000 A 
ATOM     13  C   UNL     1      46.204   3.637   6.985  0.00  0.00    +0.000 A 
ATOM     14  C   UNL     1      47.017   3.378   5.884  0.00  0.00    +0.000 A 
ATOM     15  C   UNL     1      47.674   2.161   5.794  0.00  0.00    +0.000 A 
ATOM     16  C   UNL     1      47.497   1.252   6.824  0.00  0.00    +0.000 A 
ATOM     17  N   UNL     1      46.698   1.464   7.898  0.00  0.00    +0.000 NA
ENDBRANCH  11  12
ENDBRANCH   8  11
ENDBRANCH   7   8
ENDBRANCH   1   7
BRANCH   4  18
ATOM     18  C   UNL     1      46.970   8.106  13.267  0.00  0.00    +0.000 C 
BRANCH  18  19
ATOM     19  N   UNL     1      47.439   7.458  14.471  0.00  0.00    +0.000 N 
ATOM     20  C   UNL     1      48.633   6.792  14.528  0.00  0.00    +0.000 C 
ATOM     21  O   UNL     1      49.407   6.751  13.576  0.00  0.00    +0.000 OA
ATOM     22  H   UNL     1      46.719   7.256  15.160  0.00  0.00    +0.000 HD
BRANCH  20  23
ATOM     23  C   UNL     1      48.981   6.194  15.822  0.00  0.00    +0.000 A 
ATOM     24  C   UNL     1      50.020   6.730  16.572  0.00  0.00    +0.000 A 
ATOM     25  S   UNL     1      50.254   5.950  18.071  0.00  0.00    +0.000 S 
ATOM     26  C   UNL     1      49.008   4.837  17.749  0.00  0.00    +0.000 A 
ATOM     27  N   UNL     1      48.700   3.852  18.637  0.00  0.00    +0.000 NA
ATOM     28  C   UNL     1      47.756   3.062  18.249  0.00  0.00    +0.000 A 
ATOM     29  N   UNL     1      47.089   3.171  17.057  0.00  0.00    +0.000 N 
ATOM     30  C   UNL     1      47.339   4.166  16.149  0.00  0.00    +0.000 A 
ATOM     31  O   UNL     1      46.686   4.267  15.116  0.00  0.00    +0.000 OA
ATOM     32  C   UNL     1      48.408   5.075  16.524  0.00  0.00    +0.000 A 
ATOM     33  H   UNL     1      46.349   2.524  16.817  0.00  0.00    +0.000 HD
ENDBRANCH  20  23
ENDBRANCH  18  19
ENDBRANCH   4  18
TORSDOF 7
ENDMDL
MODEL 2
REMARK VINA RESULT:    -8.247      1.983      2.299
REMARK INTER + INTRA:         -12.777
REMARK INTER:                 -12.013
REMARK INTRA:                  -0.763
REMARK UNBOUND:                -1.155
REMARK  Name = 
REMARK  8 active torsions:
REMARK  status: ('A' for Active; 'I' for Inactive)
REMARK    1  A    between atoms: C_1  and  C_2
REMARK    2  A    between atoms: C_2  and  N_3
REMARK    3  A    between atoms: C_2  and  C_25
REMARK    4  A    between atoms: N_3  and  C_4
REMARK    5  A    between atoms: C_4  and  C_5
REMARK    6  A    between atoms: C_8  and  C_9
REMARK    7  A    between atoms: C_9  and  N_10
REMARK    8  A    between atoms: C_11  and  C_13
REMARK                            x       y       z     vdW  Elec       q    Type
REMARK                         _______ _______ _______ _____ _____    ______ ____
ROOT
ATOM      1  C   UNL     1      45.453   4.449  12.269  0.00  0.00    +0.000 A 
ATOM      2  C   UNL     1      45.509   5.795  11.897  0.00  0.00    +0.000 A 
ATOM      3  C   UNL     1      46.492   6.623  12.437  0.00  0.00    +0.000 A 
ATOM      4  C   UNL     1      47.405   6.083  13.341  0.00  0.00    +0.000 A 
ATOM      5  N   UNL     1      47.343   4.790  13.748  0.00  0.00    +0.000 NA
ATOM      6  C   UNL     1      46.380   4.011  13.205  0.00  0.00    +0.000 A 
ENDROOT
BRANCH   1   7
ATOM      7  C   UNL     1      44.388   3.527  11.743  0.00  0.00    +0.000 C 
BRANCH   7   8
ATOM      8  N   UNL     1      44.928   2.547  10.796  0.00  0.00    +0.000 NA
ATOM      9  H   UNL     1      44.590   1.620  11.063  0.00  0.00    +0.000 HD
BRANCH   8  11
ATOM     10  C   UNL     1      44.049   4.254   9.192  0.00  0.00    +0.000 C 
ATOM     11  C   UNL     1      44.483   2.797   9.406  0.00  0.00    +0.000 C 
BRANCH  11  12
ATOM     12  C   UNL     1      45.575   2.450   8.388  0.00  0.00    +0.000 A 
ATOM     13  C   UNL     1      45.977   3.386   7.432  0.00  0.00    +0.000 A 
ATOM     14  C   UNL     1      46.888   3.010   6.449  0.00  0.00    +0.000 A 
ATOM     15  C   UNL     1      47.401   1.722   6.452  0.00  0.00    +0.000 A 
ATOM     16  C   UNL     1      46.985   0.862   7.455  0.00  0.00    +0.000 A 
ATOM     17  N   UNL     1      46.085   1.190   8.415  0.00  0.00    +0.000 NA
ENDBRANCH  11  12
ENDBRANCH   8  11
ENDBRANCH   7   8
ENDBRANCH   1   7
BRANCH   4  18
ATOM     18  C   UNL     1      48.488   6.946  13.945  0.00  0.00    +0.000 C 
BRANCH  18  19
ATOM     19  N   UNL     1      48.326   7.063  15.376  0.00  0.00    +0.000 N 
ATOM     20  C   UNL     1      49.308   6.696  16.257  0.00  0.00    +0.000 C 
ATOM     21  O   UNL     1      50.408   6.298  15.885  0.00  0.00    +0.000 OA
ATOM     22  H   UNL     1      47.365   7.129  15.697  0.00  0.00    +0.000 HD
BRANCH  20  23
ATOM     23  C   UNL     1      49.004   6.884  17.681  0.00  0.00    +0.000 A 
ATOM     24  C   UNL     1      48.842   8.167  18.187  0.00  0.00    +0.000 A 
ATOM     25  S   UNL     1      48.439   8.201  19.845  0.00  0.00    +0.000 S 
ATOM     26  C   UNL     1      48.518   6.505  19.955  0.00  0.00    +0.000 A 
ATOM     27  N   UNL     1      48.299   5.869  21.139  0.00  0.00    +0.000 NA
ATOM     28  C   UNL     1      48.421   4.585  21.082  0.00  0.00    +0.000 A 
ATOM     29  N   UNL     1      48.735   3.880  19.950  0.00  0.00    +0.000 N 
ATOM     30  C   UNL     1      48.927   4.474  18.730  0.00  0.00    +0.000 A 
ATOM     31  O   UNL     1      49.154   3.809  17.725  0.00  0.00    +0.000 OA
ATOM     32  C   UNL     1      48.823   5.923  18.737  0.00  0.00    +0.000 A 
ATOM     33  H   UNL     1      48.804   2.872  19.970  0.00  0.00    +0.000 HD
ENDBRANCH  20  23
ENDBRANCH  18  19
ENDBRANCH   4  18
TORSDOF 7
ENDMDL
MODEL 3
REMARK VINA RESULT:    -7.932      2.375      2.799
REMARK INTER + INTRA:         -12.333
REMARK INTER:                 -11.405
REMARK INTRA:                  -0.929
REMARK UNBOUND:                -1.155
REMARK  Name = 
REMARK  8 active torsions:
REMARK  status: ('A' for Active; 'I' for Inactive)
REMARK    1  A    between atoms: C_1  and  C_2
REMARK    2  A    between atoms: C_2  and  N_3
REMARK    3  A    between atoms: C_2  and  C_25
REMARK    4  A    between atoms: N_3  and  C_4
REMARK    5  A    between atoms: C_4  and  C_5
REMARK    6  A    between atoms: C_8  and  C_9
REMARK    7  A    between atoms: C_9  and  N_10
REMARK    8  A    between atoms: C_11  and  C_13
REMARK                            x       y       z     vdW  Elec       q    Type
REMARK                         _______ _______ _______ _____ _____    ______ ____
ROOT
ATOM      1  C   UNL     1      45.856   4.714  12.935  0.00  0.00    +0.000 A 
ATOM      2  C   UNL     1      46.060   6.025  12.498  0.00  0.00    +0.000 A 
ATOM      3  C   UNL     1      46.994   6.834  13.144  0.00  0.00    +0.000 A 
ATOM      4  C   UNL     1      47.711   6.309  14.217  0.00  0.00    +0.000 A 
ATOM      5  N   UNL     1      47.499   5.052  14.684  0.00  0.00    +0.000 NA
ATOM      6  C   UNL     1      46.589   4.291  14.036  0.00  0.00    +0.000 A 
ENDROOT
BRANCH   1   7
ATOM      7  C   UNL     1      44.834   3.816  12.295  0.00  0.00    +0.000 C 
BRANCH   7   8
ATOM      8  N   UNL     1      45.422   2.962  11.260  0.00  0.00    +0.000 NA
ATOM      9  H   UNL     1      45.399   1.994  11.588  0.00  0.00    +0.000 HD
BRANCH   8  11
ATOM     10  C   UNL     1      43.974   4.369   9.782  0.00  0.00    +0.000 C 
ATOM     11  C   UNL     1      44.671   3.015   9.985  0.00  0.00    +0.000 C 
BRANCH  11  12
ATOM     12  C   UNL     1      45.574   2.736   8.779  0.00  0.00    +0.000 A 
ATOM     13  C   UNL     1      45.856   3.745   7.856  0.00  0.00    +0.000 A 
ATOM     14  C   UNL     1      46.586   3.438   6.710  0.00  0.00    +0.000 A 
ATOM     15  C   UNL     1      47.043   2.143   6.520  0.00  0.00    +0.000 A 
ATOM     16  C   UNL     1      46.757   1.206   7.499  0.00  0.00    +0.000 A 
ATOM     17  N   UNL     1      46.032   1.467   8.615  0.00  0.00    +0.000 NA
ENDBRANCH  11  12
ENDBRANCH   8  11
ENDBRANCH   7   8
ENDBRANCH   1   7
BRANCH   4  18
ATOM     18  C   UNL     1      48.735   7.152  14.940  0.00  0.00    +0.000 C 
BRANCH  18  19
ATOM     19  N   UNL     1      49.777   6.331  15.515  0.00  0.00    +0.000 N 
ATOM     20  C   UNL     1      49.798   5.996  16.841  0.00  0.00    +0.000 C 
ATOM     21  O   UNL     1      48.904   6.324  17.616  0.00  0.00    +0.000 OA
ATOM     22  H   UNL     1      50.634   6.280  14.971  0.00  0.00    +0.000 HD
BRANCH  20  23
ATOM     23  C   UNL     1      50.913   5.146  17.277  0.00  0.00    +0.000 A 
ATOM     24  C   UNL     1      52.096   5.730  17.711  0.00  0.00    +0.000 A 
ATOM     25  S   UNL     1      53.264   4.601  18.230  0.00  0.00    +0.000 S 
ATOM     26  C   UNL     1      52.249   3.290  17.846  0.00  0.00    +0.000 A 
ATOM     27  N   UNL     1      52.664   2.006  18.027  0.00  0.00    +0.000 NA
ATOM     28  C   UNL     1      51.804   1.114  17.666  0.00  0.00    +0.000 A 
ATOM     29  N   UNL     1      50.566   1.390  17.146  0.00  0.00    +0.000 N 
ATOM     30  C   UNL     1      50.093   2.665  16.979  0.00  0.00    +0.000 A 
ATOM     31  O   UNL     1      48.959   2.876  16.561  0.00  0.00    +0.000 OA
ATOM     32  C   UNL     1      51.028   3.713  17.351  0.00  0.00    +0.000 A 
ATOM     33  H   UNL     1      49.934   0.643  16.891  0.00  0.00    +0.000 HD
ENDBRANCH  20  23
ENDBRANCH  18  19
ENDBRANCH   4  18
TORSDOF 7
ENDMDL
MODEL 4
REMARK VINA RESULT:    -7.599      2.079      2.543
REMARK INTER + INTRA:         -11.864
REMARK INTER:                 -10.940
REMARK INTRA:                  -0.923
REMARK UNBOUND:                -1.155
REMARK  Name = 
REMARK  8 active torsions:
REMARK  status: ('A' for Active; 'I' for Inactive)
REMARK    1  A    between atoms: C_1  and  C_2
REMARK    2  A    between atoms: C_2  and  N_3
REMARK    3  A    between atoms: C_2  and  C_25
REMARK    4  A    between atoms: N_3  and  C_4
REMARK    5  A    between atoms: C_4  and  C_5
REMARK    6  A    between atoms: C_8  and  C_9
REMARK    7  A    between atoms: C_9  and  N_10
REMARK    8  A    between atoms: C_11  and  C_13
REMARK                            x       y       z     vdW  Elec       q    Type
REMARK                         _______ _______ _______ _____ _____    ______ ____
ROOT
ATOM      1  C   UNL     1      44.872   5.366  11.340  0.00  0.00    +0.000 A 
ATOM      2  C   UNL     1      45.819   6.218  10.768  0.00  0.00    +0.000 A 
ATOM      3  C   UNL     1      46.879   6.693  11.538  0.00  0.00    +0.000 A 
ATOM      4  C   UNL     1      46.972   6.300  12.871  0.00  0.00    +0.000 A 
ATOM      5  N   UNL     1      46.040   5.507  13.459  0.00  0.00    +0.000 NA
ATOM      6  C   UNL     1      45.024   5.060  12.686  0.00  0.00    +0.000 A 
ENDROOT
BRANCH   1   7
ATOM      7  C   UNL     1      43.690   4.858  10.560  0.00  0.00    +0.000 C 
BRANCH   7   8
ATOM      8  N   UNL     1      44.087   4.280   9.274  0.00  0.00    +0.000 NA
ATOM      9  H   UNL     1      44.633   4.975   8.761  0.00  0.00    +0.000 HD
BRANCH   8  11
ATOM     10  C   UNL     1      44.110   1.825   9.755  0.00  0.00    +0.000 C 
ATOM     11  C   UNL     1      44.937   3.078   9.429  0.00  0.00    +0.000 C 
BRANCH  11  12
ATOM     12  C   UNL     1      45.775   2.806   8.175  0.00  0.00    +0.000 A 
ATOM     13  C   UNL     1      46.411   1.575   7.999  0.00  0.00    +0.000 A 
ATOM     14  C   UNL     1      47.257   1.393   6.908  0.00  0.00    +0.000 A 
ATOM     15  C   UNL     1      47.431   2.427   6.001  0.00  0.00    +0.000 A 
ATOM     16  C   UNL     1      46.736   3.605   6.221  0.00  0.00    +0.000 A 
ATOM     17  N   UNL     1      45.922   3.821   7.284  0.00  0.00    +0.000 NA
ENDBRANCH  11  12
ENDBRANCH   8  11
ENDBRANCH   7   8
ENDBRANCH   1   7
BRANCH   4  18
ATOM     18  C   UNL     1      48.108   6.789  13.738  0.00  0.00    +0.000 C 
BRANCH  18  19
ATOM     19  N   UNL     1      47.999   6.273  15.084  0.00  0.00    +0.000 N 
ATOM     20  C   UNL     1      48.982   6.452  16.020  0.00  0.00    +0.000 C 
ATOM     21  O   UNL     1      49.993   7.111  15.791  0.00  0.00    +0.000 OA
ATOM     22  H   UNL     1      47.324   5.524  15.205  0.00  0.00    +0.000 HD
BRANCH  20  23
ATOM     23  C   UNL     1      48.725   5.881  17.347  0.00  0.00    +0.000 A 
ATOM     24  C   UNL     1      48.915   4.522  17.561  0.00  0.00    +0.000 A 
ATOM     25  S   UNL     1      48.624   4.036  19.170  0.00  0.00    +0.000 S 
ATOM     26  C   UNL     1      48.184   5.616  19.625  0.00  0.00    +0.000 A 
ATOM     27  N   UNL     1      47.787   5.894  20.898  0.00  0.00    +0.000 NA
ATOM     28  C   UNL     1      47.454   7.125  21.093  0.00  0.00    +0.000 A 
ATOM     29  N   UNL     1      47.488   8.104  20.135  0.00  0.00    +0.000 N 
ATOM     30  C   UNL     1      47.914   7.879  18.852  0.00  0.00    +0.000 A 
ATOM     31  O   UNL     1      47.983   8.789  18.033  0.00  0.00    +0.000 OA
ATOM     32  C   UNL     1      48.283   6.503  18.567  0.00  0.00    +0.000 A 
ATOM     33  H   UNL     1      47.223   9.055  20.356  0.00  0.00    +0.000 HD
ENDBRANCH  20  23
ENDBRANCH  18  19
ENDBRANCH   4  18
TORSDOF 7
ENDMDL
MODEL 5
REMARK VINA RESULT:    -7.390      3.074      4.458
REMARK INTER + INTRA:         -11.569
REMARK INTER:                 -10.431
REMARK INTRA:                  -1.139
REMARK UNBOUND:                -1.155
REMARK  Name = 
REMARK  8 active torsions:
REMARK  status: ('A' for Active; 'I' for Inactive)
REMARK    1  A    between atoms: C_1  and  C_2
REMARK    2  A    between atoms: C_2  and  N_3
REMARK    3  A    between atoms: C_2  and  C_25
REMARK    4  A    between atoms: N_3  and  C_4
REMARK    5  A    between atoms: C_4  and  C_5
REMARK    6  A    between atoms: C_8  and  C_9
REMARK    7  A    between atoms: C_9  and  N_10
REMARK    8  A    between atoms: C_11  and  C_13
REMARK                            x       y       z     vdW  Elec       q    Type
REMARK                         _______ _______ _______ _____ _____    ______ ____
ROOT
ATOM      1  C   UNL     1      46.872   4.724  14.218  0.00  0.00    +0.000 A 
ATOM      2  C   UNL     1      46.909   4.053  15.443  0.00  0.00    +0.000 A 
ATOM      3  C   UNL     1      47.699   4.548  16.480  0.00  0.00    +0.000 A 
ATOM      4  C   UNL     1      48.436   5.711  16.269  0.00  0.00    +0.000 A 
ATOM      5  N   UNL     1      48.447   6.354  15.074  0.00  0.00    +0.000 NA
ATOM      6  C   UNL     1      47.670   5.853  14.088  0.00  0.00    +0.000 A 
ENDROOT
BRANCH   1   7
ATOM      7  C   UNL     1      46.065   4.209  13.059  0.00  0.00    +0.000 C 
BRANCH   7   8
ATOM      8  N   UNL     1      45.089   5.194  12.586  0.00  0.00    +0.000 NA
ATOM      9  H   UNL     1      45.578   5.880  12.005  0.00  0.00    +0.000 HD
BRANCH   8  11
ATOM     10  C   UNL     1      42.923   5.597  11.401  0.00  0.00    +0.000 C 
ATOM     11  C   UNL     1      44.026   4.587  11.753  0.00  0.00    +0.000 C 
BRANCH  11  12
ATOM     12  C   UNL     1      44.587   3.993  10.457  0.00  0.00    +0.000 A 
ATOM     13  C   UNL     1      45.262   4.802   9.540  0.00  0.00    +0.000 A 
ATOM     14  C   UNL     1      45.663   4.263   8.319  0.00  0.00    +0.000 A 
ATOM     15  C   UNL     1      45.410   2.927   8.049  0.00  0.00    +0.000 A 
ATOM     16  C   UNL     1      44.770   2.179   9.023  0.00  0.00    +0.000 A 
ATOM     17  N   UNL     1      44.350   2.677  10.212  0.00  0.00    +0.000 NA
ENDBRANCH  11  12
ENDBRANCH   8  11
ENDBRANCH   7   8
ENDBRANCH   1   7
BRANCH   4  18
ATOM     18  C   UNL     1      49.301   6.281  17.369  0.00  0.00    +0.000 C 
BRANCH  18  19
ATOM     19  N   UNL     1      50.308   5.333  17.789  0.00  0.00    +0.000 N 
ATOM     20  C   UNL     1      51.578   5.338  17.278  0.00  0.00    +0.000 C 
ATOM     21  O   UNL     1      51.958   6.183  16.473  0.00  0.00    +0.000 OA
ATOM     22  H   UNL     1      49.949   4.492  18.231  0.00  0.00    +0.000 HD
BRANCH  20  23
ATOM     23  C   UNL     1      52.493   4.322  17.810  0.00  0.00    +0.000 A 
ATOM     24  C   UNL     1      53.681   4.713  18.414  0.00  0.00    +0.000 A 
ATOM     25  S   UNL     1      54.599   3.410  19.024  0.00  0.00    +0.000 S 
ATOM     26  C   UNL     1      53.465   2.274  18.457  0.00  0.00    +0.000 A 
ATOM     27  N   UNL     1      53.665   0.939  18.629  0.00  0.00    +0.000 NA
ATOM     28  C   UNL     1      52.741   0.194  18.122  0.00  0.00    +0.000 A 
ATOM     29  N   UNL     1      51.634   0.663  17.465  0.00  0.00    +0.000 N 
ATOM     30  C   UNL     1      51.373   1.998  17.299  0.00  0.00    +0.000 A 
ATOM     31  O   UNL     1      50.345   2.385  16.753  0.00  0.00    +0.000 OA
ATOM     32  C   UNL     1      52.391   2.886  17.833  0.00  0.00    +0.000 A 
ATOM     33  H   UNL     1      50.940   0.025  17.100  0.00  0.00    +0.000 HD
ENDBRANCH  20  23
ENDBRANCH  18  19
ENDBRANCH   4  18
TORSDOF 7
ENDMDL
MODEL 6
REMARK VINA RESULT:    -7.260      2.626      3.343
REMARK INTER + INTRA:         -11.385
REMARK INTER:                 -10.331
REMARK INTRA:                  -1.054
REMARK UNBOUND:                -1.155
REMARK  Name = 
REMARK  8 active torsions:
REMARK  status: ('A' for Active; 'I' for Inactive)
REMARK    1  A    between atoms: C_1  and  C_2
REMARK    2  A    between atoms: C_2  and  N_3
REMARK    3  A    between atoms: C_2  and  C_25
REMARK    4  A    between atoms: N_3  and  C_4
REMARK    5  A    between atoms: C_4  and  C_5
REMARK    6  A    between atoms: C_8  and  C_9
REMARK    7  A    between atoms: C_9  and  N_10
REMARK    8  A    between atoms: C_11  and  C_13
REMARK                            x       y       z     vdW  Elec       q    Type
REMARK                         _______ _______ _______ _____ _____    ______ ____
ROOT
ATOM      1  C   UNL     1      44.757   4.919  11.449  0.00  0.00    +0.000 A 
ATOM      2  C   UNL     1      45.718   5.932  11.412  0.00  0.00    +0.000 A 
ATOM      3  C   UNL     1      46.654   6.038  12.440  0.00  0.00    +0.000 A 
ATOM      4  C   UNL     1      46.610   5.121  13.487  0.00  0.00    +0.000 A 
ATOM      5  N   UNL     1      45.660   4.155  13.564  0.00  0.00    +0.000 NA
ATOM      6  C   UNL     1      44.767   4.076  12.552  0.00  0.00    +0.000 A 
ENDROOT
BRANCH   1   7
ATOM      7  C   UNL     1      43.705   4.787  10.383  0.00  0.00    +0.000 C 
BRANCH   7   8
ATOM      8  N   UNL     1      44.252   4.261   9.130  0.00  0.00    +0.000 NA
ATOM      9  H   UNL     1      44.882   4.961   8.733  0.00  0.00    +0.000 HD
BRANCH   8  11
ATOM     10  C   UNL     1      44.138   1.802   9.576  0.00  0.00    +0.000 C 
ATOM     11  C   UNL     1      45.038   3.022   9.330  0.00  0.00    +0.000 C 
BRANCH  11  12
ATOM     12  C   UNL     1      45.955   2.730   8.136  0.00  0.00    +0.000 A 
ATOM     13  C   UNL     1      46.161   3.696   7.148  0.00  0.00    +0.000 A 
ATOM     14  C   UNL     1      46.906   3.368   6.018  0.00  0.00    +0.000 A 
ATOM     15  C   UNL     1      47.452   2.098   5.907  0.00  0.00    +0.000 A 
ATOM     16  C   UNL     1      47.237   1.208   6.946  0.00  0.00    +0.000 A 
ATOM     17  N   UNL     1      46.500   1.489   8.049  0.00  0.00    +0.000 NA
ENDBRANCH  11  12
ENDBRANCH   8  11
ENDBRANCH   7   8
ENDBRANCH   1   7
BRANCH   4  18
ATOM     18  C   UNL     1      47.609   5.199  14.618  0.00  0.00    +0.000 C 
BRANCH  18  19
ATOM     19  N   UNL     1      47.738   6.552  15.110  0.00  0.00    +0.000 N 
ATOM     20  C   UNL     1      48.899   7.267  14.990  0.00  0.00    +0.000 C 
ATOM     21  O   UNL     1      49.885   6.826  14.408  0.00  0.00    +0.000 OA
ATOM     22  H   UNL     1      47.051   6.824  15.807  0.00  0.00    +0.000 HD
BRANCH  20  23
ATOM     23  C   UNL     1      48.876   8.633  15.527  0.00  0.00    +0.000 A 
ATOM     24  C   UNL     1      49.205   9.703  14.704  0.00  0.00    +0.000 A 
ATOM     25  S   UNL     1      49.074  11.221  15.471  0.00  0.00    +0.000 S 
ATOM     26  C   UNL     1      48.622  10.499  16.944  0.00  0.00    +0.000 A 
ATOM     27  N   UNL     1      48.382  11.255  18.051  0.00  0.00    +0.000 NA
ATOM     28  C   UNL     1      48.079  10.574  19.105  0.00  0.00    +0.000 A 
ATOM     29  N   UNL     1      47.987   9.207  19.150  0.00  0.00    +0.000 N 
ATOM     30  C   UNL     1      48.184   8.408  18.054  0.00  0.00    +0.000 A 
ATOM     31  O   UNL     1      48.042   7.192  18.117  0.00  0.00    +0.000 OA
ATOM     32  C   UNL     1      48.550   9.120  16.842  0.00  0.00    +0.000 A 
ATOM     33  H   UNL     1      47.734   8.734  20.007  0.00  0.00    +0.000 HD
ENDBRANCH  20  23
ENDBRANCH  18  19
ENDBRANCH   4  18
TORSDOF 7
ENDMDL
MODEL 7
REMARK VINA RESULT:    -7.126      2.784      8.453
REMARK INTER + INTRA:         -11.198
REMARK INTER:                  -9.690
REMARK INTRA:                  -1.508
REMARK UNBOUND:                -1.155
REMARK  Name = 
REMARK  8 active torsions:
REMARK  status: ('A' for Active; 'I' for Inactive)
REMARK    1  A    between atoms: C_1  and  C_2
REMARK    2  A    between atoms: C_2  and  N_3
REMARK    3  A    between atoms: C_2  and  C_25
REMARK    4  A    between atoms: N_3  and  C_4
REMARK    5  A    between atoms: C_4  and  C_5
REMARK    6  A    between atoms: C_8  and  C_9
REMARK    7  A    between atoms: C_9  and  N_10
REMARK    8  A    between atoms: C_11  and  C_13
REMARK                            x       y       z     vdW  Elec       q    Type
REMARK                         _______ _______ _______ _____ _____    ______ ____
ROOT
ATOM      1  C   UNL     1      48.979   8.211  15.987  0.00  0.00    +0.000 A 
ATOM      2  C   UNL     1      49.230   7.019  15.303  0.00  0.00    +0.000 A 
ATOM      3  C   UNL     1      48.801   6.874  13.984  0.00  0.00    +0.000 A 
ATOM      4  C   UNL     1      48.130   7.931  13.374  0.00  0.00    +0.000 A 
ATOM      5  N   UNL     1      47.840   9.081  14.034  0.00  0.00    +0.000 NA
ATOM      6  C   UNL     1      48.270   9.194  15.311  0.00  0.00    +0.000 A 
ENDROOT
BRANCH   1   7
ATOM      7  C   UNL     1      49.389   8.401  17.422  0.00  0.00    +0.000 C 
BRANCH   7   8
ATOM      8  N   UNL     1      50.051   7.213  17.967  0.00  0.00    +0.000 NA
ATOM      9  H   UNL     1      50.853   7.517  18.523  0.00  0.00    +0.000 HD
BRANCH   8  11
ATOM     10  C   UNL     1      47.881   7.192  19.211  0.00  0.00    +0.000 C 
ATOM     11  C   UNL     1      49.167   6.429  18.859  0.00  0.00    +0.000 C 
BRANCH  11  12
ATOM     12  C   UNL     1      48.789   5.077  18.242  0.00  0.00    +0.000 A 
ATOM     13  C   UNL     1      49.773   4.124  17.967  0.00  0.00    +0.000 A 
ATOM     14  C   UNL     1      49.420   2.951  17.304  0.00  0.00    +0.000 A 
ATOM     15  C   UNL     1      48.096   2.739  16.954  0.00  0.00    +0.000 A 
ATOM     16  C   UNL     1      47.171   3.712  17.295  0.00  0.00    +0.000 A 
ATOM     17  N   UNL     1      47.485   4.873  17.922  0.00  0.00    +0.000 NA
ENDBRANCH  11  12
ENDBRANCH   8  11
ENDBRANCH   7   8
ENDBRANCH   1   7
BRANCH   4  18
ATOM     18  C   UNL     1      47.653   7.815  11.946  0.00  0.00    +0.000 C 
BRANCH  18  19
ATOM     19  N   UNL     1      46.924   6.584  11.735  0.00  0.00    +0.000 N 
ATOM     20  C   UNL     1      45.557   6.526  11.776  0.00  0.00    +0.000 C 
ATOM     21  O   UNL     1      44.862   7.524  11.938  0.00  0.00    +0.000 OA
ATOM     22  H   UNL     1      47.466   5.735  11.866  0.00  0.00    +0.000 HD
BRANCH  20  23
ATOM     23  C   UNL     1      44.958   5.208  11.532  0.00  0.00    +0.000 A 
ATOM     24  C   UNL     1      44.252   4.574  12.545  0.00  0.00    +0.000 A 
ATOM     25  S   UNL     1      43.578   3.079  12.075  0.00  0.00    +0.000 S 
ATOM     26  C   UNL     1      44.249   3.203  10.517  0.00  0.00    +0.000 A 
ATOM     27  N   UNL     1      44.073   2.215   9.596  0.00  0.00    +0.000 NA
ATOM     28  C   UNL     1      44.663   2.429   8.468  0.00  0.00    +0.000 A 
ATOM     29  N   UNL     1      45.408   3.541   8.176  0.00  0.00    +0.000 N 
ATOM     30  C   UNL     1      45.583   4.575   9.057  0.00  0.00    +0.000 A 
ATOM     31  O   UNL     1      46.211   5.581   8.744  0.00  0.00    +0.000 OA
ATOM     32  C   UNL     1      44.957   4.381  10.353  0.00  0.00    +0.000 A 
ATOM     33  H   UNL     1      45.836   3.652   7.267  0.00  0.00    +0.000 HD
ENDBRANCH  20  23
ENDBRANCH  18  19
ENDBRANCH   4  18
TORSDOF 7
ENDMDL
MODEL 8
REMARK VINA RESULT:    -6.913      1.823      2.720
REMARK INTER + INTRA:         -10.897
REMARK INTER:                 -10.160
REMARK INTRA:                  -0.737
REMARK UNBOUND:                -1.155
REMARK  Name = 
REMARK  8 active torsions:
REMARK  status: ('A' for Active; 'I' for Inactive)
REMARK    1  A    between atoms: C_1  and  C_2
REMARK    2  A    between atoms: C_2  and  N_3
REMARK    3  A    between atoms: C_2  and  C_25
REMARK    4  A    between atoms: N_3  and  C_4
REMARK    5  A    between atoms: C_4  and  C_5
REMARK    6  A    between atoms: C_8  and  C_9
REMARK    7  A    between atoms: C_9  and  N_10
REMARK    8  A    between atoms: C_11  and  C_13
REMARK                            x       y       z     vdW  Elec       q    Type
REMARK                         _______ _______ _______ _____ _____    ______ ____
ROOT
ATOM      1  C   UNL     1      44.503   5.318  11.092  0.00  0.00    +0.000 A 
ATOM      2  C   UNL     1      44.213   5.548  12.439  0.00  0.00    +0.000 A 
ATOM      3  C   UNL     1      45.082   6.316  13.213  0.00  0.00    +0.000 A 
ATOM      4  C   UNL     1      46.226   6.843  12.619  0.00  0.00    +0.000 A 
ATOM      5  N   UNL     1      46.548   6.597  11.323  0.00  0.00    +0.000 NA
ATOM      6  C   UNL     1      45.686   5.851  10.597  0.00  0.00    +0.000 A 
ENDROOT
BRANCH   1   7
ATOM      7  C   UNL     1      43.616   4.465  10.227  0.00  0.00    +0.000 C 
BRANCH   7   8
ATOM      8  N   UNL     1      44.279   4.067   8.983  0.00  0.00    +0.000 NA
ATOM      9  H   UNL     1      44.932   4.806   8.713  0.00  0.00    +0.000 HD
BRANCH   8  11
ATOM     10  C   UNL     1      44.159   1.582   9.240  0.00  0.00    +0.000 C 
ATOM     11  C   UNL     1      45.062   2.819   9.131  0.00  0.00    +0.000 C 
BRANCH  11  12
ATOM     12  C   UNL     1      46.040   2.619   7.967  0.00  0.00    +0.000 A 
ATOM     13  C   UNL     1      46.158   3.585   6.965  0.00  0.00    +0.000 A 
ATOM     14  C   UNL     1      46.968   3.329   5.862  0.00  0.00    +0.000 A 
ATOM     15  C   UNL     1      47.664   2.132   5.791  0.00  0.00    +0.000 A 
ATOM     16  C   UNL     1      47.528   1.240   6.842  0.00  0.00    +0.000 A 
ATOM     17  N   UNL     1      46.732   1.450   7.920  0.00  0.00    +0.000 NA
ENDBRANCH  11  12
ENDBRANCH   8  11
ENDBRANCH   7   8
ENDBRANCH   1   7
BRANCH   4  18
ATOM     18  C   UNL     1      47.190   7.684  13.422  0.00  0.00    +0.000 C 
BRANCH  18  19
ATOM     19  N   UNL     1      47.953   6.871  14.342  0.00  0.00    +0.000 N 
ATOM     20  C   UNL     1      48.681   7.412  15.367  0.00  0.00    +0.000 C 
ATOM     21  O   UNL     1      48.687   8.617  15.604  0.00  0.00    +0.000 OA
ATOM     22  H   UNL     1      48.172   5.936  14.012  0.00  0.00    +0.000 HD
BRANCH  20  23
ATOM     23  C   UNL     1      49.395   6.460  16.227  0.00  0.00    +0.000 A 
ATOM     24  C   UNL     1      48.676   5.553  16.995  0.00  0.00    +0.000 A 
ATOM     25  S   UNL     1      49.661   4.487  17.891  0.00  0.00    +0.000 S 
ATOM     26  C   UNL     1      51.081   5.233  17.325  0.00  0.00    +0.000 A 
ATOM     27  N   UNL     1      52.308   4.812  17.739  0.00  0.00    +0.000 NA
ATOM     28  C   UNL     1      53.294   5.488  17.252  0.00  0.00    +0.000 A 
ATOM     29  N   UNL     1      53.165   6.542  16.386  0.00  0.00    +0.000 N 
ATOM     30  C   UNL     1      51.954   6.978  15.915  0.00  0.00    +0.000 A 
ATOM     31  O   UNL     1      51.877   7.890  15.098  0.00  0.00    +0.000 OA
ATOM     32  C   UNL     1      50.805   6.266  16.445  0.00  0.00    +0.000 A 
ATOM     33  H   UNL     1      53.980   7.025  16.032  0.00  0.00    +0.000 HD
ENDBRANCH  20  23
ENDBRANCH  18  19
ENDBRANCH   4  18
TORSDOF 7
ENDMDL
MODEL 9
REMARK VINA RESULT:    -6.261      4.870      7.700
REMARK INTER + INTRA:          -9.978
REMARK INTER:                  -8.891
REMARK INTRA:                  -1.087
REMARK UNBOUND:                -1.155
REMARK  Name = 
REMARK  8 active torsions:
REMARK  status: ('A' for Active; 'I' for Inactive)
REMARK    1  A    between atoms: C_1  and  C_2
REMARK    2  A    between atoms: C_2  and  N_3
REMARK    3  A    between atoms: C_2  and  C_25
REMARK    4  A    between atoms: N_3  and  C_4
REMARK    5  A    between atoms: C_4  and  C_5
REMARK    6  A    between atoms: C_8  and  C_9
REMARK    7  A    between atoms: C_9  and  N_10
REMARK    8  A    between atoms: C_11  and  C_13
REMARK                            x       y       z     vdW  Elec       q    Type
REMARK                         _______ _______ _______ _____ _____    ______ ____
ROOT
ATOM      1  C   UNL     1      50.220   8.898  11.798  0.00  0.00    +0.000 A 
ATOM      2  C   UNL     1      49.778   7.593  12.029  0.00  0.00    +0.000 A 
ATOM      3  C   UNL     1      48.414   7.336  12.162  0.00  0.00    +0.000 A 
ATOM      4  C   UNL     1      47.516   8.396  12.057  0.00  0.00    +0.000 A 
ATOM      5  N   UNL     1      47.926   9.677  11.874  0.00  0.00    +0.000 NA
ATOM      6  C   UNL     1      49.254   9.895  11.747  0.00  0.00    +0.000 A 
ENDROOT
BRANCH   1   7
ATOM      7  C   UNL     1      51.682   9.231  11.685  0.00  0.00    +0.000 C 
BRANCH   7   8
ATOM      8  N   UNL     1      52.519   8.029  11.648  0.00  0.00    +0.000 NA
ATOM      9  H   UNL     1      51.955   7.253  11.292  0.00  0.00    +0.000 HD
BRANCH   8  11
ATOM     10  C   UNL     1      55.010   7.893  11.474  0.00  0.00    +0.000 C 
ATOM     11  C   UNL     1      53.686   8.176  10.749  0.00  0.00    +0.000 C 
BRANCH  11  12
ATOM     12  C   UNL     1      53.583   7.257   9.527  0.00  0.00    +0.000 A 
ATOM     13  C   UNL     1      52.710   7.563   8.481  0.00  0.00    +0.000 A 
ATOM     14  C   UNL     1      52.551   6.656   7.436  0.00  0.00    +0.000 A 
ATOM     15  C   UNL     1      53.284   5.479   7.439  0.00  0.00    +0.000 A 
ATOM     16  C   UNL     1      54.159   5.264   8.491  0.00  0.00    +0.000 A 
ATOM     17  N   UNL     1      54.322   6.116   9.533  0.00  0.00    +0.000 NA
ENDBRANCH  11  12
ENDBRANCH   8  11
ENDBRANCH   7   8
ENDBRANCH   1   7
BRANCH   4  18
ATOM     18  C   UNL     1      46.031   8.159  12.191  0.00  0.00    +0.000 C 
BRANCH  18  19
ATOM     19  N   UNL     1      45.690   6.786  11.891  0.00  0.00    +0.000 N 
ATOM     20  C   UNL     1      44.440   6.414  11.477  0.00  0.00    +0.000 C 
ATOM     21  O   UNL     1      43.544   7.231  11.281  0.00  0.00    +0.000 OA
ATOM     22  H   UNL     1      46.312   6.090  12.293  0.00  0.00    +0.000 HD
BRANCH  20  23
ATOM     23  C   UNL     1      44.248   4.986  11.199  0.00  0.00    +0.000 A 
ATOM     24  C   UNL     1      43.477   4.214  12.060  0.00  0.00    +0.000 A 
ATOM     25  S   UNL     1      43.313   2.592  11.559  0.00  0.00    +0.000 S 
ATOM     26  C   UNL     1      44.307   2.851  10.203  0.00  0.00    +0.000 A 
ATOM     27  N   UNL     1      44.604   1.835   9.346  0.00  0.00    +0.000 NA
ATOM     28  C   UNL     1      45.392   2.168   8.380  0.00  0.00    +0.000 A 
ATOM     29  N   UNL     1      45.905   3.425   8.189  0.00  0.00    +0.000 N 
ATOM     30  C   UNL     1      45.606   4.485   9.004  0.00  0.00    +0.000 A 
ATOM     31  O   UNL     1      46.039   5.609   8.774  0.00  0.00    +0.000 OA
ATOM     32  C   UNL     1      44.737   4.165  10.123  0.00  0.00    +0.000 A 
ATOM     33  H   UNL     1      46.510   3.623   7.404  0.00  0.00    +0.000 HD
ENDBRANCH  20  23
ENDBRANCH  18  19
ENDBRANCH   4  18
TORSDOF 7
ENDMDL
