MODEL 1
REMARK VINA RESULT:    -8.501      0.000      0.000
REMARK INTER + INTRA:         -12.304
REMARK INTER:                 -11.483
REMARK INTRA:                  -0.821
REMARK UNBOUND:                -0.821
REMARK  Name = 
REMARK  7 active torsions:
REMARK  status: ('A' for Active; 'I' for Inactive)
REMARK    1  A    between atoms: C_1  and  O_2
REMARK    2  A    between atoms: O_2  and  C_3
REMARK    3  A    between atoms: C_6  and  C_7
REMARK    4  A    between atoms: C_11  and  C_12
REMARK    5  A    between atoms: C_12  and  O_13
REMARK    6  A    between atoms: O_13  and  C_14
REMARK    7  A    between atoms: C_17  and  C_18
REMARK                            x       y       z     vdW  Elec       q    Type
REMARK                         _______ _______ _______ _____ _____    ______ ____
ROOT
ATOM      1  C   UNL     1      46.666   6.362  12.397  0.00  0.00    +0.000 A 
ATOM      2  C   UNL     1      47.229   5.514  13.369  0.00  0.00    +0.000 A 
ATOM      3  C   UNL     1      46.692   4.253  13.636  0.00  0.00    +0.000 A 
ATOM      4  C   UNL     1      45.577   3.805  12.936  0.00  0.00    +0.000 A 
ATOM      5  C   UNL     1      44.987   4.621  11.967  0.00  0.00    +0.000 A 
ATOM      6  C   UNL     1      45.546   5.880  11.697  0.00  0.00    +0.000 A 
ENDROOT
BRANCH   1  10
ATOM      7  C   UNL     1      48.244  10.321  11.682  0.00  0.00    +0.000 A 
ATOM      8  C   UNL     1      46.925  10.152  12.088  0.00  0.00    +0.000 A 
ATOM      9  C   UNL     1      46.412   8.867  12.306  0.00  0.00    +0.000 A 
ATOM     10  C   UNL     1      47.205   7.718  12.141  0.00  0.00    +0.000 A 
ATOM     11  C   UNL     1      48.538   7.915  11.740  0.00  0.00    +0.000 A 
ATOM     12  C   UNL     1      49.048   9.197  11.510  0.00  0.00    +0.000 A 
BRANCH   7  14
ATOM     13  C   UNL     1      50.049  11.459  10.651  0.00  0.00    +0.000 C 
ATOM     14  O   UNL     1      48.859  11.516  11.428  0.00  0.00    +0.000 OA
ENDBRANCH   7  14
ENDBRANCH   1  10
BRANCH   5  15
ATOM     15  C   UNL     1      43.727   4.189  11.261  0.00  0.00    +0.000 C 
BRANCH  15  16
ATOM     16  O   UNL     1      43.733   4.628   9.900  0.00  0.00    +0.000 OA
BRANCH  16  17
ATOM     17  C   UNL     1      44.666   3.925   9.160  0.00  0.00    +0.000 A 
ATOM     18  C   UNL     1      44.731   2.554   9.337  0.00  0.00    +0.000 A 
ATOM     19  C   UNL     1      45.661   1.834   8.580  0.00  0.00    +0.000 A 
ATOM     20  C   UNL     1      46.491   2.504   7.673  0.00  0.00    +0.000 A 
ATOM     21  C   UNL     1      46.347   3.877   7.577  0.00  0.00    +0.000 A 
ATOM     22  N   UNL     1      45.458   4.598   8.298  0.00  0.00    +0.000 NA
BRANCH  20  23
ATOM     23  C   UNL     1      47.467   1.735   6.864  0.00  0.00    +0.000 C 
ATOM     24  N   UNL     1      48.547   2.385   6.332  0.00  0.00    +0.000 N 
ATOM     25  O   UNL     1      47.317   0.535   6.668  0.00  0.00    +0.000 OA
ATOM     26  H   UNL     1      48.771   3.364   6.430  0.00  0.00    +0.000 HD
ATOM     27  H   UNL     1      49.188   1.817   5.783  0.00  0.00    +0.000 HD
ENDBRANCH  20  23
ENDBRANCH  16  17
ENDBRANCH  15  16
ENDBRANCH   5  15
TORSDOF 6
ENDMDL
MODEL 2
REMARK VINA RESULT:    -8.413      2.881      4.513
REMARK INTER + INTRA:         -12.185
REMARK INTER:                 -11.459
REMARK INTRA:                  -0.727
REMARK UNBOUND:                -0.821
REMARK  Name = 
REMARK  7 active torsions:
REMARK  status: ('A' for Active; 'I' for Inactive)
REMARK    1  A    between atoms: C_1  and  O_2
REMARK    2  A    between atoms: O_2  and  C_3
REMARK    3  A    between atoms: C_6  and  C_7
REMARK    4  A    between atoms: C_11  and  C_12
REMARK    5  A    between atoms: C_12  and  O_13
REMARK    6  A    between atoms: O_13  and  C_14
REMARK    7  A    between atoms: C_17  and  C_18
REMARK                            x       y       z     vdW  Elec       q    Type
REMARK                         _______ _______ _______ _____ _____    ______ ____
ROOT
ATOM      1  C   UNL     1      46.785   5.472  13.688  0.00  0.00    +0.000 A 
ATOM      2  C   UNL     1      47.303   6.564  12.968  0.00  0.00    +0.000 A 
ATOM      3  C   UNL     1      46.733   6.980  11.763  0.00  0.00    +0.000 A 
ATOM      4  C   UNL     1      45.628   6.313  11.246  0.00  0.00    +0.000 A 
ATOM      5  C   UNL     1      45.088   5.220  11.930  0.00  0.00    +0.000 A 
ATOM      6  C   UNL     1      45.660   4.823  13.148  0.00  0.00    +0.000 A 
ENDROOT
BRANCH   1  10
ATOM      7  C   UNL     1      48.639   4.081  17.336  0.00  0.00    +0.000 A 
ATOM      8  C   UNL     1      47.807   3.241  16.604  0.00  0.00    +0.000 A 
ATOM      9  C   UNL     1      47.197   3.699  15.430  0.00  0.00    +0.000 A 
ATOM     10  C   UNL     1      47.412   5.000  14.945  0.00  0.00    +0.000 A 
ATOM     11  C   UNL     1      48.264   5.828  15.696  0.00  0.00    +0.000 A 
ATOM     12  C   UNL     1      48.865   5.376  16.877  0.00  0.00    +0.000 A 
BRANCH   7  14
ATOM     13  C   UNL     1      50.220   4.713  18.983  0.00  0.00    +0.000 C 
ATOM     14  O   UNL     1      49.283   3.760  18.499  0.00  0.00    +0.000 OA
ENDBRANCH   7  14
ENDBRANCH   1  10
BRANCH   5  15
ATOM     15  C   UNL     1      43.946   4.432  11.342  0.00  0.00    +0.000 C 
BRANCH  15  16
ATOM     16  O   UNL     1      43.814   4.696   9.943  0.00  0.00    +0.000 OA
BRANCH  16  17
ATOM     17  C   UNL     1      44.694   3.921   9.210  0.00  0.00    +0.000 A 
ATOM     18  C   UNL     1      44.695   2.556   9.436  0.00  0.00    +0.000 A 
ATOM     19  C   UNL     1      45.571   1.764   8.687  0.00  0.00    +0.000 A 
ATOM     20  C   UNL     1      46.412   2.358   7.739  0.00  0.00    +0.000 A 
ATOM     21  C   UNL     1      46.334   3.732   7.595  0.00  0.00    +0.000 A 
ATOM     22  N   UNL     1      45.498   4.522   8.307  0.00  0.00    +0.000 NA
BRANCH  20  23
ATOM     23  C   UNL     1      47.331   1.514   6.938  0.00  0.00    +0.000 C 
ATOM     24  N   UNL     1      48.459   2.077   6.407  0.00  0.00    +0.000 N 
ATOM     25  O   UNL     1      47.092   0.327   6.749  0.00  0.00    +0.000 OA
ATOM     26  H   UNL     1      48.756   3.036   6.501  0.00  0.00    +0.000 HD
ATOM     27  H   UNL     1      49.057   1.458   5.865  0.00  0.00    +0.000 HD
ENDBRANCH  20  23
ENDBRANCH  16  17
ENDBRANCH  15  16
ENDBRANCH   5  15
TORSDOF 6
ENDMDL
MODEL 3
REMARK VINA RESULT:    -8.103      1.930      2.740
REMARK INTER + INTRA:         -11.766
REMARK INTER:                 -10.752
REMARK INTRA:                  -1.014
REMARK UNBOUND:                -0.821
REMARK  Name = 
REMARK  7 active torsions:
REMARK  status: ('A' for Active; 'I' for Inactive)
REMARK    1  A    between atoms: C_1  and  O_2
REMARK    2  A    between atoms: O_2  and  C_3
REMARK    3  A    between atoms: C_6  and  C_7
REMARK    4  A    between atoms: C_11  and  C_12
REMARK    5  A    between atoms: C_12  and  O_13
REMARK    6  A    between atoms: O_13  and  C_14
REMARK    7  A    between atoms: C_17  and  C_18
REMARK                            x       y       z     vdW  Elec       q    Type
REMARK                         _______ _______ _______ _____ _____    ______ ____
ROOT
ATOM      1  C   UNL     1      46.096   6.702  12.190  0.00  0.00    +0.000 A 
ATOM      2  C   UNL     1      45.134   7.668  11.844  0.00  0.00    +0.000 A 
ATOM      3  C   UNL     1      43.861   7.305  11.400  0.00  0.00    +0.000 A 
ATOM      4  C   UNL     1      43.515   5.962  11.292  0.00  0.00    +0.000 A 
ATOM      5  C   UNL     1      44.446   4.973  11.623  0.00  0.00    +0.000 A 
ATOM      6  C   UNL     1      45.716   5.352  12.083  0.00  0.00    +0.000 A 
ENDROOT
BRANCH   1  10
ATOM      7  C   UNL     1      50.070   7.843  13.450  0.00  0.00    +0.000 A 
ATOM      8  C   UNL     1      49.639   8.106  12.154  0.00  0.00    +0.000 A 
ATOM      9  C   UNL     1      48.356   7.723  11.745  0.00  0.00    +0.000 A 
ATOM     10  C   UNL     1      47.462   7.082  12.620  0.00  0.00    +0.000 A 
ATOM     11  C   UNL     1      47.916   6.836  13.928  0.00  0.00    +0.000 A 
ATOM     12  C   UNL     1      49.202   7.207  14.334  0.00  0.00    +0.000 A 
BRANCH   7  14
ATOM     13  C   UNL     1      51.561   7.689  15.285  0.00  0.00    +0.000 C 
ATOM     14  O   UNL     1      51.296   8.155  13.968  0.00  0.00    +0.000 OA
ENDBRANCH   7  14
ENDBRANCH   1  10
BRANCH   5  15
ATOM     15  C   UNL     1      44.120   3.514  11.430  0.00  0.00    +0.000 C 
BRANCH  15  16
ATOM     16  O   UNL     1      43.556   3.287  10.136  0.00  0.00    +0.000 OA
BRANCH  16  17
ATOM     17  C   UNL     1      44.544   3.012   9.209  0.00  0.00    +0.000 A 
ATOM     18  C   UNL     1      44.917   4.024   8.341  0.00  0.00    +0.000 A 
ATOM     19  C   UNL     1      45.928   3.759   7.412  0.00  0.00    +0.000 A 
ATOM     20  C   UNL     1      46.531   2.496   7.380  0.00  0.00    +0.000 A 
ATOM     21  C   UNL     1      46.082   1.554   8.289  0.00  0.00    +0.000 A 
ATOM     22  N   UNL     1      45.105   1.784   9.197  0.00  0.00    +0.000 NA
BRANCH  20  23
ATOM     23  C   UNL     1      47.611   2.222   6.401  0.00  0.00    +0.000 C 
ATOM     24  N   UNL     1      47.789   3.079   5.350  0.00  0.00    +0.000 N 
ATOM     25  O   UNL     1      48.338   1.243   6.523  0.00  0.00    +0.000 OA
ATOM     26  H   UNL     1      47.255   3.912   5.154  0.00  0.00    +0.000 HD
ATOM     27  H   UNL     1      48.541   2.849   4.705  0.00  0.00    +0.000 HD
ENDBRANCH  20  23
ENDBRANCH  16  17
ENDBRANCH  15  16
ENDBRANCH   5  15
TORSDOF 6
ENDMDL
MODEL 4
REMARK VINA RESULT:    -8.091      1.223      1.518
REMARK INTER + INTRA:         -11.749
REMARK INTER:                 -10.918
REMARK INTRA:                  -0.832
REMARK UNBOUND:                -0.821
REMARK  Name = 
REMARK  7 active torsions:
REMARK  status: ('A' for Active; 'I' for Inactive)
REMARK    1  A    between atoms: C_1  and  O_2
REMARK    2  A    between atoms: O_2  and  C_3
REMARK    3  A    between atoms: C_6  and  C_7
REMARK    4  A    between atoms: C_11  and  C_12
REMARK    5  A    between atoms: C_12  and  O_13
REMARK    6  A    between atoms: O_13  and  C_14
REMARK    7  A    between atoms: C_17  and  C_18
REMARK                            x       y       z     vdW  Elec       q    Type
REMARK                         _______ _______ _______ _____ _____    ______ ____
ROOT
ATOM      1  C   UNL     1      47.002   6.449  12.304  0.00  0.00    +0.000 A 
ATOM      2  C   UNL     1      47.027   5.600  13.425  0.00  0.00    +0.000 A 
ATOM      3  C   UNL     1      46.031   4.644  13.638  0.00  0.00    +0.000 A 
ATOM      4  C   UNL     1      44.984   4.511  12.732  0.00  0.00    +0.000 A 
ATOM      5  C   UNL     1      44.923   5.341  11.609  0.00  0.00    +0.000 A 
ATOM      6  C   UNL     1      45.938   6.287  11.399  0.00  0.00    +0.000 A 
ENDROOT
BRANCH   1  10
ATOM      7  C   UNL     1      50.008   9.503  11.733  0.00  0.00    +0.000 A 
ATOM      8  C   UNL     1      48.672   9.852  11.904  0.00  0.00    +0.000 A 
ATOM      9  C   UNL     1      47.699   8.860  12.075  0.00  0.00    +0.000 A 
ATOM     10  C   UNL     1      48.032   7.494  12.097  0.00  0.00    +0.000 A 
ATOM     11  C   UNL     1      49.389   7.166  11.932  0.00  0.00    +0.000 A 
ATOM     12  C   UNL     1      50.361   8.155  11.748  0.00  0.00    +0.000 A 
BRANCH   7  14
ATOM     13  C   UNL     1      52.347   9.795  11.496  0.00  0.00    +0.000 C 
ATOM     14  O   UNL     1      51.047  10.371  11.547  0.00  0.00    +0.000 OA
ENDBRANCH   7  14
ENDBRANCH   1  10
BRANCH   5  15
ATOM     15  C   UNL     1      43.751   5.272  10.664  0.00  0.00    +0.000 C 
BRANCH  15  16
ATOM     16  O   UNL     1      43.449   3.916  10.328  0.00  0.00    +0.000 OA
BRANCH  16  17
ATOM     17  C   UNL     1      44.395   3.400   9.462  0.00  0.00    +0.000 A 
ATOM     18  C   UNL     1      44.952   4.257   8.528  0.00  0.00    +0.000 A 
ATOM     19  C   UNL     1      45.921   3.747   7.659  0.00  0.00    +0.000 A 
ATOM     20  C   UNL     1      46.302   2.403   7.750  0.00  0.00    +0.000 A 
ATOM     21  C   UNL     1      45.680   1.631   8.716  0.00  0.00    +0.000 A 
ATOM     22  N   UNL     1      44.738   2.098   9.568  0.00  0.00    +0.000 NA
BRANCH  20  23
ATOM     23  C   UNL     1      47.338   1.868   6.834  0.00  0.00    +0.000 C 
ATOM     24  N   UNL     1      48.377   2.677   6.460  0.00  0.00    +0.000 N 
ATOM     25  O   UNL     1      47.275   0.720   6.413  0.00  0.00    +0.000 OA
ATOM     26  H   UNL     1      48.531   3.632   6.746  0.00  0.00    +0.000 HD
ATOM     27  H   UNL     1      49.061   2.267   5.830  0.00  0.00    +0.000 HD
ENDBRANCH  20  23
ENDBRANCH  16  17
ENDBRANCH  15  16
ENDBRANCH   5  15
TORSDOF 6
ENDMDL
MODEL 5
REMARK VINA RESULT:    -6.882      5.354      8.227
REMARK INTER + INTRA:         -10.117
REMARK INTER:                  -9.262
REMARK INTRA:                  -0.855
REMARK UNBOUND:                -0.821
REMARK  Name = 
REMARK  7 active torsions:
REMARK  status: ('A' for Active; 'I' for Inactive)
REMARK    1  A    between atoms: C_1  and  O_2
REMARK    2  A    between atoms: O_2  and  C_3
REMARK    3  A    between atoms: C_6  and  C_7
REMARK    4  A    between atoms: C_11  and  C_12
REMARK    5  A    between atoms: C_12  and  O_13
REMARK    6  A    between atoms: O_13  and  C_14
REMARK    7  A    between atoms: C_17  and  C_18
REMARK                            x       y       z     vdW  Elec       q    Type
REMARK                         _______ _______ _______ _____ _____    ______ ____
ROOT
ATOM      1  C   UNL     1      46.813   6.634  13.068  0.00  0.00    +0.000 A 
ATOM      2  C   UNL     1      46.683   8.014  12.830  0.00  0.00    +0.000 A 
ATOM      3  C   UNL     1      47.368   8.955  13.602  0.00  0.00    +0.000 A 
ATOM      4  C   UNL     1      48.204   8.539  14.632  0.00  0.00    +0.000 A 
ATOM      5  C   UNL     1      48.355   7.176  14.902  0.00  0.00    +0.000 A 
ATOM      6  C   UNL     1      47.673   6.240  14.108  0.00  0.00    +0.000 A 
ENDROOT
BRANCH   1  10
ATOM      7  C   UNL     1      44.630   3.705  10.757  0.00  0.00    +0.000 A 
ATOM      8  C   UNL     1      45.023   4.907  10.179  0.00  0.00    +0.000 A 
ATOM      9  C   UNL     1      45.718   5.860  10.934  0.00  0.00    +0.000 A 
ATOM     10  C   UNL     1      46.055   5.634  12.280  0.00  0.00    +0.000 A 
ATOM     11  C   UNL     1      45.656   4.408  12.840  0.00  0.00    +0.000 A 
ATOM     12  C   UNL     1      44.950   3.460  12.090  0.00  0.00    +0.000 A 
BRANCH   7  14
ATOM     13  C   UNL     1      44.634   2.008   9.104  0.00  0.00    +0.000 C 
ATOM     14  O   UNL     1      43.941   2.702  10.134  0.00  0.00    +0.000 OA
ENDBRANCH   7  14
ENDBRANCH   1  10
BRANCH   5  15
ATOM     15  C   UNL     1      49.187   6.709  16.069  0.00  0.00    +0.000 C 
BRANCH  15  16
ATOM     16  O   UNL     1      48.539   5.635  16.755  0.00  0.00    +0.000 OA
BRANCH  16  17
ATOM     17  C   UNL     1      49.428   4.608  17.013  0.00  0.00    +0.000 A 
ATOM     18  C   UNL     1      48.932   3.316  17.042  0.00  0.00    +0.000 A 
ATOM     19  C   UNL     1      49.828   2.270  17.285  0.00  0.00    +0.000 A 
ATOM     20  C   UNL     1      51.184   2.548  17.492  0.00  0.00    +0.000 A 
ATOM     21  C   UNL     1      51.575   3.874  17.447  0.00  0.00    +0.000 A 
ATOM     22  N   UNL     1      50.730   4.905  17.215  0.00  0.00    +0.000 NA
BRANCH  20  23
ATOM     23  C   UNL     1      52.133   1.435  17.739  0.00  0.00    +0.000 C 
ATOM     24  N   UNL     1      51.643   0.209  18.097  0.00  0.00    +0.000 N 
ATOM     25  O   UNL     1      53.342   1.602  17.626  0.00  0.00    +0.000 OA
ATOM     26  H   UNL     1      50.673  -0.041  18.215  0.00  0.00    +0.000 HD
ATOM     27  H   UNL     1      52.332  -0.521  18.257  0.00  0.00    +0.000 HD
ENDBRANCH  20  23
ENDBRANCH  16  17
ENDBRANCH  15  16
ENDBRANCH   5  15
TORSDOF 6
ENDMDL
MODEL 6
REMARK VINA RESULT:    -6.666      4.604      8.511
REMARK INTER + INTRA:          -9.825
REMARK INTER:                  -8.927
REMARK INTRA:                  -0.898
REMARK UNBOUND:                -0.821
REMARK  Name = 
REMARK  7 active torsions:
REMARK  status: ('A' for Active; 'I' for Inactive)
REMARK    1  A    between atoms: C_1  and  O_2
REMARK    2  A    between atoms: O_2  and  C_3
REMARK    3  A    between atoms: C_6  and  C_7
REMARK    4  A    between atoms: C_11  and  C_12
REMARK    5  A    between atoms: C_12  and  O_13
REMARK    6  A    between atoms: O_13  and  C_14
REMARK    7  A    between atoms: C_17  and  C_18
REMARK                            x       y       z     vdW  Elec       q    Type
REMARK                         _______ _______ _______ _____ _____    ______ ____
ROOT
ATOM      1  C   UNL     1      45.959   6.730  11.845  0.00  0.00    +0.000 A 
ATOM      2  C   UNL     1      45.117   7.856  11.875  0.00  0.00    +0.000 A 
ATOM      3  C   UNL     1      45.449   8.996  12.611  0.00  0.00    +0.000 A 
ATOM      4  C   UNL     1      46.635   9.039  13.336  0.00  0.00    +0.000 A 
ATOM      5  C   UNL     1      47.495   7.937  13.334  0.00  0.00    +0.000 A 
ATOM      6  C   UNL     1      47.157   6.804  12.578  0.00  0.00    +0.000 A 
ENDROOT
BRANCH   1  10
ATOM      7  C   UNL     1      44.851   3.159   9.676  0.00  0.00    +0.000 A 
ATOM      8  C   UNL     1      44.753   3.200  11.063  0.00  0.00    +0.000 A 
ATOM      9  C   UNL     1      45.125   4.354  11.764  0.00  0.00    +0.000 A 
ATOM     10  C   UNL     1      45.591   5.503  11.101  0.00  0.00    +0.000 A 
ATOM     11  C   UNL     1      45.672   5.441   9.699  0.00  0.00    +0.000 A 
ATOM     12  C   UNL     1      45.312   4.285   8.998  0.00  0.00    +0.000 A 
BRANCH   7  14
ATOM     13  C   UNL     1      45.620   1.318   8.398  0.00  0.00    +0.000 C 
ATOM     14  O   UNL     1      44.531   2.096   8.879  0.00  0.00    +0.000 OA
ENDBRANCH   7  14
ENDBRANCH   1  10
BRANCH   5  15
ATOM     15  C   UNL     1      48.741   7.931  14.183  0.00  0.00    +0.000 C 
BRANCH  15  16
ATOM     16  O   UNL     1      49.190   6.593  14.414  0.00  0.00    +0.000 OA
BRANCH  16  17
ATOM     17  C   UNL     1      48.928   6.203  15.714  0.00  0.00    +0.000 A 
ATOM     18  C   UNL     1      49.413   6.998  16.738  0.00  0.00    +0.000 A 
ATOM     19  C   UNL     1      49.137   6.619  18.056  0.00  0.00    +0.000 A 
ATOM     20  C   UNL     1      48.390   5.463  18.307  0.00  0.00    +0.000 A 
ATOM     21  C   UNL     1      47.956   4.737  17.211  0.00  0.00    +0.000 A 
ATOM     22  N   UNL     1      48.209   5.080  15.927  0.00  0.00    +0.000 NA
BRANCH  20  23
ATOM     23  C   UNL     1      48.090   5.069  19.705  0.00  0.00    +0.000 C 
ATOM     24  N   UNL     1      48.552   3.870  20.172  0.00  0.00    +0.000 N 
ATOM     25  O   UNL     1      47.438   5.803  20.440  0.00  0.00    +0.000 OA
ATOM     26  H   UNL     1      49.098   3.193  19.661  0.00  0.00    +0.000 HD
ATOM     27  H   UNL     1      48.321   3.644  21.136  0.00  0.00    +0.000 HD
ENDBRANCH  20  23
ENDBRANCH  16  17
ENDBRANCH  15  16
ENDBRANCH   5  15
TORSDOF 6
ENDMDL
MODEL 7
REMARK VINA RESULT:    -6.468      6.116      8.650
REMARK INTER + INTRA:          -9.558
REMARK INTER:                  -8.765
REMARK INTRA:                  -0.794
REMARK UNBOUND:                -0.821
REMARK  Name = 
REMARK  7 active torsions:
REMARK  status: ('A' for Active; 'I' for Inactive)
REMARK    1  A    between atoms: C_1  and  O_2
REMARK    2  A    between atoms: O_2  and  C_3
REMARK    3  A    between atoms: C_6  and  C_7
REMARK    4  A    between atoms: C_11  and  C_12
REMARK    5  A    between atoms: C_12  and  O_13
REMARK    6  A    between atoms: O_13  and  C_14
REMARK    7  A    between atoms: C_17  and  C_18
REMARK                            x       y       z     vdW  Elec       q    Type
REMARK                         _______ _______ _______ _____ _____    ______ ____
ROOT
ATOM      1  C   UNL     1      47.333   5.705  13.968  0.00  0.00    +0.000 A 
ATOM      2  C   UNL     1      47.955   6.962  14.071  0.00  0.00    +0.000 A 
ATOM      3  C   UNL     1      48.737   7.301  15.177  0.00  0.00    +0.000 A 
ATOM      4  C   UNL     1      48.919   6.388  16.211  0.00  0.00    +0.000 A 
ATOM      5  C   UNL     1      48.312   5.130  16.146  0.00  0.00    +0.000 A 
ATOM      6  C   UNL     1      47.542   4.798  15.021  0.00  0.00    +0.000 A 
ENDROOT
BRANCH   1  10
ATOM      7  C   UNL     1      44.834   4.677  10.594  0.00  0.00    +0.000 A 
ATOM      8  C   UNL     1      45.611   5.831  10.570  0.00  0.00    +0.000 A 
ATOM      9  C   UNL     1      46.409   6.169  11.670  0.00  0.00    +0.000 A 
ATOM     10  C   UNL     1      46.467   5.358  12.817  0.00  0.00    +0.000 A 
ATOM     11  C   UNL     1      45.682   4.192  12.814  0.00  0.00    +0.000 A 
ATOM     12  C   UNL     1      44.874   3.859  11.721  0.00  0.00    +0.000 A 
BRANCH   7  14
ATOM     13  C   UNL     1      44.636   3.901   8.364  0.00  0.00    +0.000 C 
ATOM     14  O   UNL     1      44.009   4.243   9.594  0.00  0.00    +0.000 OA
ENDBRANCH   7  14
ENDBRANCH   1  10
BRANCH   5  15
ATOM     15  C   UNL     1      48.424   4.161  17.295  0.00  0.00    +0.000 C 
BRANCH  15  16
ATOM     16  O   UNL     1      48.856   2.878  16.836  0.00  0.00    +0.000 OA
BRANCH  16  17
ATOM     17  C   UNL     1      50.153   2.621  17.241  0.00  0.00    +0.000 A 
ATOM     18  C   UNL     1      50.850   3.641  17.864  0.00  0.00    +0.000 A 
ATOM     19  C   UNL     1      52.156   3.383  18.292  0.00  0.00    +0.000 A 
ATOM     20  C   UNL     1      52.721   2.119  18.084  0.00  0.00    +0.000 A 
ATOM     21  C   UNL     1      51.939   1.172  17.447  0.00  0.00    +0.000 A 
ATOM     22  N   UNL     1      50.675   1.394  17.022  0.00  0.00    +0.000 NA
BRANCH  20  23
ATOM     23  C   UNL     1      54.103   1.846  18.549  0.00  0.00    +0.000 C 
ATOM     24  N   UNL     1      55.149   2.084  17.701  0.00  0.00    +0.000 N 
ATOM     25  O   UNL     1      54.314   1.412  19.675  0.00  0.00    +0.000 OA
ATOM     26  H   UNL     1      55.093   2.442  16.759  0.00  0.00    +0.000 HD
ATOM     27  H   UNL     1      56.077   1.881  18.064  0.00  0.00    +0.000 HD
ENDBRANCH  20  23
ENDBRANCH  16  17
ENDBRANCH  15  16
ENDBRANCH   5  15
TORSDOF 6
ENDMDL
MODEL 8
REMARK VINA RESULT:    -6.084      6.098      8.325
REMARK INTER + INTRA:          -9.039
REMARK INTER:                  -8.337
REMARK INTRA:                  -0.702
REMARK UNBOUND:                -0.821
REMARK  Name = 
REMARK  7 active torsions:
REMARK  status: ('A' for Active; 'I' for Inactive)
REMARK    1  A    between atoms: C_1  and  O_2
REMARK    2  A    between atoms: O_2  and  C_3
REMARK    3  A    between atoms: C_6  and  C_7
REMARK    4  A    between atoms: C_11  and  C_12
REMARK    5  A    between atoms: C_12  and  O_13
REMARK    6  A    between atoms: O_13  and  C_14
REMARK    7  A    between atoms: C_17  and  C_18
REMARK                            x       y       z     vdW  Elec       q    Type
REMARK                         _______ _______ _______ _____ _____    ______ ____
ROOT
ATOM      1  C   UNL     1      50.360   3.665  17.985  0.00  0.00    +0.000 A 
ATOM      2  C   UNL     1      50.169   4.679  18.941  0.00  0.00    +0.000 A 
ATOM      3  C   UNL     1      49.045   5.507  18.912  0.00  0.00    +0.000 A 
ATOM      4  C   UNL     1      48.080   5.341  17.925  0.00  0.00    +0.000 A 
ATOM      5  C   UNL     1      48.237   4.347  16.955  0.00  0.00    +0.000 A 
ATOM      6  C   UNL     1      49.364   3.511  17.005  0.00  0.00    +0.000 A 
ENDROOT
BRANCH   1  10
ATOM      7  C   UNL     1      53.902   1.188  17.955  0.00  0.00    +0.000 A 
ATOM      8  C   UNL     1      52.709   0.717  17.419  0.00  0.00    +0.000 A 
ATOM      9  C   UNL     1      51.559   1.516  17.443  0.00  0.00    +0.000 A 
ATOM     10  C   UNL     1      51.572   2.813  17.986  0.00  0.00    +0.000 A 
ATOM     11  C   UNL     1      52.792   3.271  18.513  0.00  0.00    +0.000 A 
ATOM     12  C   UNL     1      53.938   2.469  18.502  0.00  0.00    +0.000 A 
BRANCH   7  14
ATOM     13  C   UNL     1      55.268  -0.362  19.116  0.00  0.00    +0.000 C 
ATOM     14  O   UNL     1      55.086   0.505  18.003  0.00  0.00    +0.000 OA
ENDBRANCH   7  14
ENDBRANCH   1  10
BRANCH   5  15
ATOM     15  C   UNL     1      47.247   4.208  15.827  0.00  0.00    +0.000 C 
BRANCH  15  16
ATOM     16  O   UNL     1      47.683   4.936  14.677  0.00  0.00    +0.000 OA
BRANCH  16  17
ATOM     17  C   UNL     1      46.711   4.936  13.695  0.00  0.00    +0.000 A 
ATOM     18  C   UNL     1      46.221   3.713  13.270  0.00  0.00    +0.000 A 
ATOM     19  C   UNL     1      45.224   3.705  12.289  0.00  0.00    +0.000 A 
ATOM     20  C   UNL     1      44.751   4.914  11.766  0.00  0.00    +0.000 A 
ATOM     21  C   UNL     1      45.312   6.080  12.256  0.00  0.00    +0.000 A 
ATOM     22  N   UNL     1      46.277   6.117  13.203  0.00  0.00    +0.000 NA
BRANCH  20  23
ATOM     23  C   UNL     1      43.687   4.902  10.733  0.00  0.00    +0.000 C 
ATOM     24  N   UNL     1      44.013   4.579   9.445  0.00  0.00    +0.000 N 
ATOM     25  O   UNL     1      42.527   5.177  11.021  0.00  0.00    +0.000 OA
ATOM     26  H   UNL     1      44.928   4.335   9.098  0.00  0.00    +0.000 HD
ATOM     27  H   UNL     1      43.250   4.586   8.773  0.00  0.00    +0.000 HD
ENDBRANCH  20  23
ENDBRANCH  16  17
ENDBRANCH  15  16
ENDBRANCH   5  15
TORSDOF 6
ENDMDL
MODEL 9
REMARK VINA RESULT:    -5.975      5.855      8.762
REMARK INTER + INTRA:          -8.891
REMARK INTER:                  -8.112
REMARK INTRA:                  -0.779
REMARK UNBOUND:                -0.821
REMARK  Name = 
REMARK  7 active torsions:
REMARK  status: ('A' for Active; 'I' for Inactive)
REMARK    1  A    between atoms: C_1  and  O_2
REMARK    2  A    between atoms: O_2  and  C_3
REMARK    3  A    between atoms: C_6  and  C_7
REMARK    4  A    between atoms: C_11  and  C_12
REMARK    5  A    between atoms: C_12  and  O_13
REMARK    6  A    between atoms: O_13  and  C_14
REMARK    7  A    between atoms: C_17  and  C_18
REMARK                            x       y       z     vdW  Elec       q    Type
REMARK                         _______ _______ _______ _____ _____    ______ ____
ROOT
ATOM      1  C   UNL     1      48.323   6.617  13.415  0.00  0.00    +0.000 A 
ATOM      2  C   UNL     1      49.182   7.444  12.669  0.00  0.00    +0.000 A 
ATOM      3  C   UNL     1      50.277   8.080  13.258  0.00  0.00    +0.000 A 
ATOM      4  C   UNL     1      50.542   7.904  14.612  0.00  0.00    +0.000 A 
ATOM      5  C   UNL     1      49.708   7.093  15.388  0.00  0.00    +0.000 A 
ATOM      6  C   UNL     1      48.621   6.447  14.779  0.00  0.00    +0.000 A 
ENDROOT
BRANCH   1  10
ATOM      7  C   UNL     1      44.839   4.764  11.653  0.00  0.00    +0.000 A 
ATOM      8  C   UNL     1      45.338   4.312  12.870  0.00  0.00    +0.000 A 
ATOM      9  C   UNL     1      46.475   4.905  13.432  0.00  0.00    +0.000 A 
ATOM     10  C   UNL     1      47.136   5.975  12.804  0.00  0.00    +0.000 A 
ATOM     11  C   UNL     1      46.607   6.422  11.580  0.00  0.00    +0.000 A 
ATOM     12  C   UNL     1      45.479   5.821  11.011  0.00  0.00    +0.000 A 
BRANCH   7  14
ATOM     13  C   UNL     1      43.298   2.980  11.409  0.00  0.00    +0.000 C 
ATOM     14  O   UNL     1      43.748   4.265  10.997  0.00  0.00    +0.000 OA
ENDBRANCH   7  14
ENDBRANCH   1  10
BRANCH   5  15
ATOM     15  C   UNL     1      49.928   6.960  16.873  0.00  0.00    +0.000 C 
BRANCH  15  16
ATOM     16  O   UNL     1      51.316   6.786  17.166  0.00  0.00    +0.000 OA
BRANCH  16  17
ATOM     17  C   UNL     1      51.610   5.453  17.386  0.00  0.00    +0.000 A 
ATOM     18  C   UNL     1      52.924   5.118  17.664  0.00  0.00    +0.000 A 
ATOM     19  C   UNL     1      53.226   3.774  17.904  0.00  0.00    +0.000 A 
ATOM     20  C   UNL     1      52.210   2.812  17.860  0.00  0.00    +0.000 A 
ATOM     21  C   UNL     1      50.931   3.253  17.569  0.00  0.00    +0.000 A 
ATOM     22  N   UNL     1      50.611   4.546  17.331  0.00  0.00    +0.000 NA
BRANCH  20  23
ATOM     23  C   UNL     1      52.532   1.389  18.126  0.00  0.00    +0.000 C 
ATOM     24  N   UNL     1      51.563   0.442  17.941  0.00  0.00    +0.000 N 
ATOM     25  O   UNL     1      53.649   1.057  18.506  0.00  0.00    +0.000 OA
ATOM     26  H   UNL     1      50.617   0.600  17.630  0.00  0.00    +0.000 HD
ATOM     27  H   UNL     1      51.831  -0.519  18.138  0.00  0.00    +0.000 HD
ENDBRANCH  20  23
ENDBRANCH  16  17
ENDBRANCH  15  16
ENDBRANCH   5  15
TORSDOF 6
ENDMDL
