MODEL 1
REMARK VINA RESULT:    -8.246      0.000      0.000
REMARK INTER + INTRA:         -11.934
REMARK INTER:                 -11.139
REMARK INTRA:                  -0.796
REMARK UNBOUND:                -0.796
REMARK  Name = 
REMARK  9 active torsions:
REMARK  status: ('A' for Active; 'I' for Inactive)
REMARK    1  A    between atoms: C_1  and  C_2
REMARK    2  A    between atoms: N_4  and  C_5
REMARK    3  A    between atoms: C_7  and  C_8
REMARK    4  A    between atoms: C_8  and  C_9
REMARK    5  A    between atoms: C_9  and  N_10
REMARK    6  A    between atoms: C_14  and  C_15
REMARK    7  A    between atoms: C_21  and  C_22
REMARK    8  A    between atoms: C_28  and  C_29
REMARK    9  A    between atoms: C_28  and  C_30
REMARK                            x       y       z     vdW  Elec       q    Type
REMARK                         _______ _______ _______ _____ _____    ______ ____
ROOT
ATOM      1  C   UNL     1      46.915   7.082  12.618  0.00  0.00    +0.000 A 
ATOM      2  C   UNL     1      45.975   6.039  12.622  0.00  0.00    +0.000 A 
ATOM      3  C   UNL     1      44.637   6.218  12.215  0.00  0.00    +0.000 A 
ATOM      4  C   UNL     1      44.232   7.473  11.754  0.00  0.00    +0.000 A 
ATOM      5  C   UNL     1      45.138   8.537  11.722  0.00  0.00    +0.000 A 
ATOM      6  C   UNL     1      46.458   8.323  12.153  0.00  0.00    +0.000 A 
ENDROOT
BRANCH   1  10
ATOM      7  C   UNL     1      49.947   9.603  12.886  0.00  0.00    +0.000 C 
ATOM      8  C   UNL     1      50.374   8.136  12.991  0.00  0.00    +0.000 C 
ATOM      9  C   UNL     1      49.390   7.208  12.222  0.00  0.00    +0.000 C 
ATOM     10  N   UNL     1      48.213   6.908  13.049  0.00  0.00    +0.000 N 
ATOM     11  C   UNL     1      48.542   6.349  14.370  0.00  0.00    +0.000 C 
ATOM     12  C   UNL     1      49.469   7.315  15.170  0.00  0.00    +0.000 C 
ATOM     13  C   UNL     1      48.686   8.536  15.683  0.00  0.00    +0.000 C 
ATOM     14  C   UNL     1      49.983   6.560  16.416  0.00  0.00    +0.000 C 
ATOM     15  N   UNL     1      50.671   7.733  14.392  0.00  0.00    +0.000 NA
ATOM     16  H   UNL     1      51.286   6.920  14.333  0.00  0.00    +0.000 HD
ENDBRANCH   1  10
BRANCH   5  17
ATOM     17  C   UNL     1      44.734   9.910  11.253  0.00  0.00    +0.000 C 
ATOM     18  F   UNL     1      44.193   9.926  10.003  0.00  0.00    +0.000 F 
ATOM     19  F   UNL     1      43.803  10.484  12.067  0.00  0.00    +0.000 F 
ATOM     20  F   UNL     1      45.781  10.781  11.217  0.00  0.00    +0.000 F 
ENDBRANCH   5  17
BRANCH   3  21
ATOM     21  C   UNL     1      43.637   5.086  12.319  0.00  0.00    +0.000 C 
BRANCH  21  22
ATOM     22  C   UNL     1      43.248   4.548  10.936  0.00  0.00    +0.000 C 
BRANCH  22  23
ATOM     23  N   UNL     1      44.140   5.067   9.889  0.00  0.00    +0.000 N 
ATOM     24  C   UNL     1      44.872   4.041   9.252  0.00  0.00    +0.000 A 
ATOM     25  C   UNL     1      45.779   4.349   8.228  0.00  0.00    +0.000 A 
ATOM     26  N   UNL     1      46.527   3.425   7.562  0.00  0.00    +0.000 NA
ATOM     27  C   UNL     1      46.314   2.140   7.962  0.00  0.00    +0.000 A 
ATOM     28  C   UNL     1      45.411   1.815   8.957  0.00  0.00    +0.000 A 
ATOM     29  N   UNL     1      44.681   2.752   9.612  0.00  0.00    +0.000 NA
ATOM     30  H   UNL     1      44.790   5.762  10.248  0.00  0.00    +0.000 HD
BRANCH  27  31
ATOM     31  C   UNL     1      47.091   1.055   7.303  0.00  0.00    +0.000 C 
ATOM     32  N   UNL     1      46.765  -0.223   7.672  0.00  0.00    +0.000 N 
ATOM     33  O   UNL     1      47.966   1.285   6.478  0.00  0.00    +0.000 OA
ATOM     34  H   UNL     1      46.042  -0.386   8.360  0.00  0.00    +0.000 HD
ATOM     35  H   UNL     1      47.263  -0.995   7.253  0.00  0.00    +0.000 HD
ENDBRANCH  27  31
ENDBRANCH  22  23
ENDBRANCH  21  22
ENDBRANCH   3  21
TORSDOF 6
ENDMDL
MODEL 2
REMARK VINA RESULT:    -7.871      1.240      2.371
REMARK INTER + INTRA:         -11.428
REMARK INTER:                 -10.389
REMARK INTRA:                  -1.039
REMARK UNBOUND:                -0.796
REMARK  Name = 
REMARK  9 active torsions:
REMARK  status: ('A' for Active; 'I' for Inactive)
REMARK    1  A    between atoms: C_1  and  C_2
REMARK    2  A    between atoms: N_4  and  C_5
REMARK    3  A    between atoms: C_7  and  C_8
REMARK    4  A    between atoms: C_8  and  C_9
REMARK    5  A    between atoms: C_9  and  N_10
REMARK    6  A    between atoms: C_14  and  C_15
REMARK    7  A    between atoms: C_21  and  C_22
REMARK    8  A    between atoms: C_28  and  C_29
REMARK    9  A    between atoms: C_28  and  C_30
REMARK                            x       y       z     vdW  Elec       q    Type
REMARK                         _______ _______ _______ _____ _____    ______ ____
ROOT
ATOM      1  C   UNL     1      46.461   8.639  12.516  0.00  0.00    +0.000 A 
ATOM      2  C   UNL     1      46.039   7.300  12.527  0.00  0.00    +0.000 A 
ATOM      3  C   UNL     1      44.817   6.883  11.959  0.00  0.00    +0.000 A 
ATOM      4  C   UNL     1      44.005   7.828  11.327  0.00  0.00    +0.000 A 
ATOM      5  C   UNL     1      44.393   9.170  11.283  0.00  0.00    +0.000 A 
ATOM      6  C   UNL     1      45.609   9.551  11.876  0.00  0.00    +0.000 A 
ENDROOT
BRANCH   1  10
ATOM      7  C   UNL     1      49.071   6.711  14.772  0.00  0.00    +0.000 C 
ATOM      8  C   UNL     1      49.250   8.232  14.812  0.00  0.00    +0.000 C 
ATOM      9  C   UNL     1      47.903   8.963  14.544  0.00  0.00    +0.000 C 
ATOM     10  N   UNL     1      47.641   9.047  13.102  0.00  0.00    +0.000 N 
ATOM     11  C   UNL     1      48.735   9.661  12.334  0.00  0.00    +0.000 C 
ATOM     12  C   UNL     1      50.071   8.883  12.544  0.00  0.00    +0.000 C 
ATOM     13  C   UNL     1      50.054   7.542  11.789  0.00  0.00    +0.000 C 
ATOM     14  C   UNL     1      51.215   9.723  11.933  0.00  0.00    +0.000 C 
ATOM     15  N   UNL     1      50.400   8.687  13.985  0.00  0.00    +0.000 NA
ATOM     16  H   UNL     1      50.677   9.598  14.355  0.00  0.00    +0.000 HD
ENDBRANCH   1  10
BRANCH   5  17
ATOM     17  C   UNL     1      43.535  10.223  10.631  0.00  0.00    +0.000 C 
ATOM     18  F   UNL     1      42.436   9.722  10.001  0.00  0.00    +0.000 F 
ATOM     19  F   UNL     1      43.065  11.137  11.526  0.00  0.00    +0.000 F 
ATOM     20  F   UNL     1      44.209  10.940   9.690  0.00  0.00    +0.000 F 
ENDBRANCH   5  17
BRANCH   3  21
ATOM     21  C   UNL     1      44.363   5.442  12.071  0.00  0.00    +0.000 C 
BRANCH  21  22
ATOM     22  C   UNL     1      43.642   4.978  10.800  0.00  0.00    +0.000 C 
BRANCH  22  23
ATOM     23  N   UNL     1      43.823   3.536  10.576  0.00  0.00    +0.000 N 
ATOM     24  C   UNL     1      44.736   3.268   9.533  0.00  0.00    +0.000 A 
ATOM     25  C   UNL     1      45.031   1.945   9.174  0.00  0.00    +0.000 A 
ATOM     26  N   UNL     1      45.896   1.594   8.180  0.00  0.00    +0.000 NA
ATOM     27  C   UNL     1      46.484   2.651   7.552  0.00  0.00    +0.000 A 
ATOM     28  C   UNL     1      46.219   3.961   7.904  0.00  0.00    +0.000 A 
ATOM     29  N   UNL     1      45.349   4.288   8.893  0.00  0.00    +0.000 NA
ATOM     30  H   UNL     1      42.945   3.065  10.375  0.00  0.00    +0.000 HD
BRANCH  27  31
ATOM     31  C   UNL     1      47.438   2.375   6.444  0.00  0.00    +0.000 C 
ATOM     32  N   UNL     1      47.252   3.102   5.299  0.00  0.00    +0.000 N 
ATOM     33  O   UNL     1      48.339   1.552   6.546  0.00  0.00    +0.000 OA
ATOM     34  H   UNL     1      46.497   3.772   5.238  0.00  0.00    +0.000 HD
ATOM     35  H   UNL     1      47.874   2.953   4.517  0.00  0.00    +0.000 HD
ENDBRANCH  27  31
ENDBRANCH  22  23
ENDBRANCH  21  22
ENDBRANCH   3  21
TORSDOF 6
ENDMDL
MODEL 3
REMARK VINA RESULT:    -7.382      4.763      8.430
REMARK INTER + INTRA:         -10.767
REMARK INTER:                  -9.836
REMARK INTRA:                  -0.931
REMARK UNBOUND:                -0.796
REMARK  Name = 
REMARK  9 active torsions:
REMARK  status: ('A' for Active; 'I' for Inactive)
REMARK    1  A    between atoms: C_1  and  C_2
REMARK    2  A    between atoms: N_4  and  C_5
REMARK    3  A    between atoms: C_7  and  C_8
REMARK    4  A    between atoms: C_8  and  C_9
REMARK    5  A    between atoms: C_9  and  N_10
REMARK    6  A    between atoms: C_14  and  C_15
REMARK    7  A    between atoms: C_21  and  C_22
REMARK    8  A    between atoms: C_28  and  C_29
REMARK    9  A    between atoms: C_28  and  C_30
REMARK                            x       y       z     vdW  Elec       q    Type
REMARK                         _______ _______ _______ _____ _____    ______ ____
ROOT
ATOM      1  C   UNL     1      46.145   4.883  13.410  0.00  0.00    +0.000 A 
ATOM      2  C   UNL     1      46.477   4.654  14.755  0.00  0.00    +0.000 A 
ATOM      3  C   UNL     1      47.543   5.315  15.399  0.00  0.00    +0.000 A 
ATOM      4  C   UNL     1      48.280   6.265  14.688  0.00  0.00    +0.000 A 
ATOM      5  C   UNL     1      47.976   6.533  13.351  0.00  0.00    +0.000 A 
ATOM      6  C   UNL     1      46.918   5.840  12.737  0.00  0.00    +0.000 A 
ENDROOT
BRANCH   1  10
ATOM      7  C   UNL     1      43.008   6.182  11.387  0.00  0.00    +0.000 C 
ATOM      8  C   UNL     1      42.898   4.706  11.783  0.00  0.00    +0.000 C 
ATOM      9  C   UNL     1      43.702   4.414  13.084  0.00  0.00    +0.000 C 
ATOM     10  N   UNL     1      45.123   4.209  12.775  0.00  0.00    +0.000 N 
ATOM     11  C   UNL     1      45.368   3.173  11.760  0.00  0.00    +0.000 C 
ATOM     12  C   UNL     1      44.622   3.506  10.431  0.00  0.00    +0.000 C 
ATOM     13  C   UNL     1      45.314   4.658   9.681  0.00  0.00    +0.000 C 
ATOM     14  C   UNL     1      44.704   2.266   9.513  0.00  0.00    +0.000 C 
ATOM     15  N   UNL     1      43.174   3.793  10.642  0.00  0.00    +0.000 NA
ATOM     16  H   UNL     1      42.723   2.905  10.869  0.00  0.00    +0.000 HD
ENDBRANCH   1  10
BRANCH   5  17
ATOM     17  C   UNL     1      48.763   7.533  12.543  0.00  0.00    +0.000 C 
ATOM     18  F   UNL     1      48.020   8.187  11.607  0.00  0.00    +0.000 F 
ATOM     19  F   UNL     1      49.320   8.504  13.320  0.00  0.00    +0.000 F 
ATOM     20  F   UNL     1      49.797   6.961  11.865  0.00  0.00    +0.000 F 
ENDBRANCH   5  17
BRANCH   3  21
ATOM     21  C   UNL     1      47.918   4.971  16.826  0.00  0.00    +0.000 C 
BRANCH  21  22
ATOM     22  C   UNL     1      48.944   3.831  16.880  0.00  0.00    +0.000 C 
BRANCH  22  23
ATOM     23  N   UNL     1      50.208   4.275  17.483  0.00  0.00    +0.000 N 
ATOM     24  C   UNL     1      51.121   3.212  17.655  0.00  0.00    +0.000 A 
ATOM     25  C   UNL     1      52.382   3.446  18.222  0.00  0.00    +0.000 A 
ATOM     26  N   UNL     1      53.322   2.480  18.427  0.00  0.00    +0.000 NA
ATOM     27  C   UNL     1      52.946   1.237  18.015  0.00  0.00    +0.000 A 
ATOM     28  C   UNL     1      51.715   0.991  17.437  0.00  0.00    +0.000 A 
ATOM     29  N   UNL     1      50.790   1.966  17.249  0.00  0.00    +0.000 NA
ATOM     30  H   UNL     1      50.066   4.736  18.378  0.00  0.00    +0.000 HD
BRANCH  27  31
ATOM     31  C   UNL     1      53.899   0.110  18.204  0.00  0.00    +0.000 C 
ATOM     32  N   UNL     1      54.107  -0.688  17.111  0.00  0.00    +0.000 N 
ATOM     33  O   UNL     1      54.468  -0.094  19.269  0.00  0.00    +0.000 OA
ATOM     34  H   UNL     1      53.620  -0.502  16.244  0.00  0.00    +0.000 HD
ATOM     35  H   UNL     1      54.745  -1.467  17.187  0.00  0.00    +0.000 HD
ENDBRANCH  27  31
ENDBRANCH  22  23
ENDBRANCH  21  22
ENDBRANCH   3  21
TORSDOF 6
ENDMDL
MODEL 4
REMARK VINA RESULT:    -7.318      2.995      7.172
REMARK INTER + INTRA:         -10.680
REMARK INTER:                  -9.351
REMARK INTRA:                  -1.329
REMARK UNBOUND:                -0.796
REMARK  Name = 
REMARK  9 active torsions:
REMARK  status: ('A' for Active; 'I' for Inactive)
REMARK    1  A    between atoms: C_1  and  C_2
REMARK    2  A    between atoms: N_4  and  C_5
REMARK    3  A    between atoms: C_7  and  C_8
REMARK    4  A    between atoms: C_8  and  C_9
REMARK    5  A    between atoms: C_9  and  N_10
REMARK    6  A    between atoms: C_14  and  C_15
REMARK    7  A    between atoms: C_21  and  C_22
REMARK    8  A    between atoms: C_28  and  C_29
REMARK    9  A    between atoms: C_28  and  C_30
REMARK                            x       y       z     vdW  Elec       q    Type
REMARK                         _______ _______ _______ _____ _____    ______ ____
ROOT
ATOM      1  C   UNL     1      45.933   6.834  11.970  0.00  0.00    +0.000 A 
ATOM      2  C   UNL     1      46.971   7.460  12.679  0.00  0.00    +0.000 A 
ATOM      3  C   UNL     1      47.041   8.857  12.852  0.00  0.00    +0.000 A 
ATOM      4  C   UNL     1      46.020   9.656  12.329  0.00  0.00    +0.000 A 
ATOM      5  C   UNL     1      44.962   9.074  11.626  0.00  0.00    +0.000 A 
ATOM      6  C   UNL     1      44.937   7.678  11.460  0.00  0.00    +0.000 A 
ENDROOT
BRANCH   1  10
ATOM      7  C   UNL     1      43.399   4.087  13.254  0.00  0.00    +0.000 C 
ATOM      8  C   UNL     1      44.702   3.494  12.710  0.00  0.00    +0.000 C 
ATOM      9  C   UNL     1      45.884   4.494  12.874  0.00  0.00    +0.000 C 
ATOM     10  N   UNL     1      45.888   5.469  11.776  0.00  0.00    +0.000 N 
ATOM     11  C   UNL     1      45.896   4.859  10.438  0.00  0.00    +0.000 C 
ATOM     12  C   UNL     1      44.669   3.914  10.248  0.00  0.00    +0.000 C 
ATOM     13  C   UNL     1      43.371   4.722  10.068  0.00  0.00    +0.000 C 
ATOM     14  C   UNL     1      44.879   3.114   8.943  0.00  0.00    +0.000 C 
ATOM     15  N   UNL     1      44.536   2.918  11.349  0.00  0.00    +0.000 NA
ATOM     16  H   UNL     1      45.290   2.239  11.230  0.00  0.00    +0.000 HD
ENDBRANCH   1  10
BRANCH   5  17
ATOM     17  C   UNL     1      43.855   9.903  11.028  0.00  0.00    +0.000 C 
ATOM     18  F   UNL     1      42.762   9.176  10.664  0.00  0.00    +0.000 F 
ATOM     19  F   UNL     1      43.398  10.857  11.887  0.00  0.00    +0.000 F 
ATOM     20  F   UNL     1      44.248  10.571   9.908  0.00  0.00    +0.000 F 
ENDBRANCH   5  17
BRANCH   3  21
ATOM     21  C   UNL     1      48.224   9.494  13.550  0.00  0.00    +0.000 C 
BRANCH  21  22
ATOM     22  C   UNL     1      49.168   8.437  14.137  0.00  0.00    +0.000 C 
BRANCH  22  23
ATOM     23  N   UNL     1      49.157   8.465  15.607  0.00  0.00    +0.000 N 
ATOM     24  C   UNL     1      48.763   7.228  16.162  0.00  0.00    +0.000 A 
ATOM     25  C   UNL     1      48.689   7.068  17.553  0.00  0.00    +0.000 A 
ATOM     26  N   UNL     1      48.316   5.913  18.174  0.00  0.00    +0.000 NA
ATOM     27  C   UNL     1      48.029   4.888  17.322  0.00  0.00    +0.000 A 
ATOM     28  C   UNL     1      48.114   5.022  15.949  0.00  0.00    +0.000 A 
ATOM     29  N   UNL     1      48.480   6.184  15.352  0.00  0.00    +0.000 NA
ATOM     30  H   UNL     1      48.553   9.197  15.972  0.00  0.00    +0.000 HD
BRANCH  27  31
ATOM     31  C   UNL     1      47.602   3.585  17.901  0.00  0.00    +0.000 C 
ATOM     32  N   UNL     1      48.279   3.176  19.018  0.00  0.00    +0.000 N 
ATOM     33  O   UNL     1      46.698   2.918  17.414  0.00  0.00    +0.000 OA
ATOM     34  H   UNL     1      49.026   3.743  19.398  0.00  0.00    +0.000 HD
ATOM     35  H   UNL     1      48.027   2.298  19.450  0.00  0.00    +0.000 HD
ENDBRANCH  27  31
ENDBRANCH  22  23
ENDBRANCH  21  22
ENDBRANCH   3  21
TORSDOF 6
ENDMDL
MODEL 5
REMARK VINA RESULT:    -7.024      4.306      6.561
REMARK INTER + INTRA:         -10.284
REMARK INTER:                  -9.089
REMARK INTRA:                  -1.195
REMARK UNBOUND:                -0.796
REMARK  Name = 
REMARK  9 active torsions:
REMARK  status: ('A' for Active; 'I' for Inactive)
REMARK    1  A    between atoms: C_1  and  C_2
REMARK    2  A    between atoms: N_4  and  C_5
REMARK    3  A    between atoms: C_7  and  C_8
REMARK    4  A    between atoms: C_8  and  C_9
REMARK    5  A    between atoms: C_9  and  N_10
REMARK    6  A    between atoms: C_14  and  C_15
REMARK    7  A    between atoms: C_21  and  C_22
REMARK    8  A    between atoms: C_28  and  C_29
REMARK    9  A    between atoms: C_28  and  C_30
REMARK                            x       y       z     vdW  Elec       q    Type
REMARK                         _______ _______ _______ _____ _____    ______ ____
ROOT
ATOM      1  C   UNL     1      49.317   6.305  16.377  0.00  0.00    +0.000 A 
ATOM      2  C   UNL     1      48.679   6.972  15.319  0.00  0.00    +0.000 A 
ATOM      3  C   UNL     1      49.369   7.819  14.428  0.00  0.00    +0.000 A 
ATOM      4  C   UNL     1      50.750   7.977  14.575  0.00  0.00    +0.000 A 
ATOM      5  C   UNL     1      51.426   7.322  15.608  0.00  0.00    +0.000 A 
ATOM      6  C   UNL     1      50.700   6.501  16.487  0.00  0.00    +0.000 A 
ENDROOT
BRANCH   1  10
ATOM      7  C   UNL     1      49.833   2.535  17.446  0.00  0.00    +0.000 C 
ATOM      8  C   UNL     1      48.469   3.096  17.861  0.00  0.00    +0.000 C 
ATOM      9  C   UNL     1      48.010   4.226  16.895  0.00  0.00    +0.000 C 
ATOM     10  N   UNL     1      48.631   5.504  17.266  0.00  0.00    +0.000 N 
ATOM     11  C   UNL     1      48.409   5.887  18.669  0.00  0.00    +0.000 C 
ATOM     12  C   UNL     1      48.938   4.786  19.640  0.00  0.00    +0.000 C 
ATOM     13  C   UNL     1      50.476   4.790  19.695  0.00  0.00    +0.000 C 
ATOM     14  C   UNL     1      48.441   5.125  21.063  0.00  0.00    +0.000 C 
ATOM     15  N   UNL     1      48.413   3.430  19.309  0.00  0.00    +0.000 NA
ATOM     16  H   UNL     1      47.425   3.421  19.569  0.00  0.00    +0.000 HD
ENDBRANCH   1  10
BRANCH   5  17
ATOM     17  C   UNL     1      52.910   7.486  15.814  0.00  0.00    +0.000 C 
ATOM     18  F   UNL     1      53.655   6.503  15.235  0.00  0.00    +0.000 F 
ATOM     19  F   UNL     1      53.379   8.658  15.302  0.00  0.00    +0.000 F 
ATOM     20  F   UNL     1      53.258   7.491  17.131  0.00  0.00    +0.000 F 
ENDBRANCH   5  17
BRANCH   3  21
ATOM     21  C   UNL     1      48.625   8.586  13.355  0.00  0.00    +0.000 C 
BRANCH  21  22
ATOM     22  C   UNL     1      47.119   8.642  13.643  0.00  0.00    +0.000 C 
BRANCH  22  23
ATOM     23  N   UNL     1      46.331   8.502  12.410  0.00  0.00    +0.000 N 
ATOM     24  C   UNL     1      45.741   7.225  12.294  0.00  0.00    +0.000 A 
ATOM     25  C   UNL     1      44.955   6.907  11.178  0.00  0.00    +0.000 A 
ATOM     26  N   UNL     1      44.349   5.701  10.983  0.00  0.00    +0.000 NA
ATOM     27  C   UNL     1      44.554   4.805  11.989  0.00  0.00    +0.000 A 
ATOM     28  C   UNL     1      45.310   5.106  13.106  0.00  0.00    +0.000 A 
ATOM     29  N   UNL     1      45.910   6.312  13.276  0.00  0.00    +0.000 NA
ATOM     30  H   UNL     1      46.886   8.685  11.577  0.00  0.00    +0.000 HD
BRANCH  27  31
ATOM     31  C   UNL     1      43.943   3.453  11.868  0.00  0.00    +0.000 C 
ATOM     32  N   UNL     1      44.505   2.472  12.639  0.00  0.00    +0.000 N 
ATOM     33  O   UNL     1      42.993   3.228  11.128  0.00  0.00    +0.000 OA
ATOM     34  H   UNL     1      45.292   2.682  13.238  0.00  0.00    +0.000 HD
ATOM     35  H   UNL     1      44.127   1.536  12.594  0.00  0.00    +0.000 HD
ENDBRANCH  27  31
ENDBRANCH  22  23
ENDBRANCH  21  22
ENDBRANCH   3  21
TORSDOF 6
ENDMDL
MODEL 6
REMARK VINA RESULT:    -6.822      4.807      7.312
REMARK INTER + INTRA:         -10.010
REMARK INTER:                  -8.820
REMARK INTRA:                  -1.191
REMARK UNBOUND:                -0.796
REMARK  Name = 
REMARK  9 active torsions:
REMARK  status: ('A' for Active; 'I' for Inactive)
REMARK    1  A    between atoms: C_1  and  C_2
REMARK    2  A    between atoms: N_4  and  C_5
REMARK    3  A    between atoms: C_7  and  C_8
REMARK    4  A    between atoms: C_8  and  C_9
REMARK    5  A    between atoms: C_9  and  N_10
REMARK    6  A    between atoms: C_14  and  C_15
REMARK    7  A    between atoms: C_21  and  C_22
REMARK    8  A    between atoms: C_28  and  C_29
REMARK    9  A    between atoms: C_28  and  C_30
REMARK                            x       y       z     vdW  Elec       q    Type
REMARK                         _______ _______ _______ _____ _____    ______ ____
ROOT
ATOM      1  C   UNL     1      51.072   5.540  17.564  0.00  0.00    +0.000 A 
ATOM      2  C   UNL     1      50.531   6.614  16.838  0.00  0.00    +0.000 A 
ATOM      3  C   UNL     1      49.235   6.583  16.285  0.00  0.00    +0.000 A 
ATOM      4  C   UNL     1      48.436   5.455  16.493  0.00  0.00    +0.000 A 
ATOM      5  C   UNL     1      48.931   4.368  17.220  0.00  0.00    +0.000 A 
ATOM      6  C   UNL     1      50.235   4.430  17.740  0.00  0.00    +0.000 A 
ENDROOT
BRANCH   1  10
ATOM      7  C   UNL     1      52.511   4.468  21.085  0.00  0.00    +0.000 C 
ATOM      8  C   UNL     1      53.486   5.327  20.274  0.00  0.00    +0.000 C 
ATOM      9  C   UNL     1      52.724   6.276  19.304  0.00  0.00    +0.000 C 
ATOM     10  N   UNL     1      52.353   5.564  18.074  0.00  0.00    +0.000 N 
ATOM     11  C   UNL     1      53.488   4.917  17.397  0.00  0.00    +0.000 C 
ATOM     12  C   UNL     1      54.206   3.910  18.347  0.00  0.00    +0.000 C 
ATOM     13  C   UNL     1      53.364   2.636  18.542  0.00  0.00    +0.000 C 
ATOM     14  C   UNL     1      55.525   3.473  17.672  0.00  0.00    +0.000 C 
ATOM     15  N   UNL     1      54.572   4.520  19.658  0.00  0.00    +0.000 NA
ATOM     16  H   UNL     1      55.345   5.164  19.482  0.00  0.00    +0.000 HD
ENDBRANCH   1  10
BRANCH   5  17
ATOM     17  C   UNL     1      48.110   3.125  17.446  0.00  0.00    +0.000 C 
ATOM     18  F   UNL     1      48.225   2.614  18.704  0.00  0.00    +0.000 F 
ATOM     19  F   UNL     1      46.778   3.340  17.253  0.00  0.00    +0.000 F 
ATOM     20  F   UNL     1      48.448   2.113  16.600  0.00  0.00    +0.000 F 
ENDBRANCH   5  17
BRANCH   3  21
ATOM     21  C   UNL     1      48.726   7.729  15.436  0.00  0.00    +0.000 C 
BRANCH  21  22
ATOM     22  C   UNL     1      48.566   7.316  13.968  0.00  0.00    +0.000 C 
BRANCH  22  23
ATOM     23  N   UNL     1      47.304   7.816  13.404  0.00  0.00    +0.000 N 
ATOM     24  C   UNL     1      46.424   6.770  13.052  0.00  0.00    +0.000 A 
ATOM     25  C   UNL     1      45.170   7.057  12.494  0.00  0.00    +0.000 A 
ATOM     26  N   UNL     1      44.261   6.112  12.122  0.00  0.00    +0.000 NA
ATOM     27  C   UNL     1      44.660   4.830  12.354  0.00  0.00    +0.000 A 
ATOM     28  C   UNL     1      45.885   4.528  12.921  0.00  0.00    +0.000 A 
ATOM     29  N   UNL     1      46.778   5.485  13.277  0.00  0.00    +0.000 NA
ATOM     30  H   UNL     1      47.454   8.409  12.592  0.00  0.00    +0.000 HD
BRANCH  27  31
ATOM     31  C   UNL     1      43.742   3.722  11.974  0.00  0.00    +0.000 C 
ATOM     32  N   UNL     1      44.034   2.495  12.505  0.00  0.00    +0.000 N 
ATOM     33  O   UNL     1      42.780   3.893  11.237  0.00  0.00    +0.000 OA
ATOM     34  H   UNL     1      44.838   2.378  13.107  0.00  0.00    +0.000 HD
ATOM     35  H   UNL     1      43.442   1.709  12.278  0.00  0.00    +0.000 HD
ENDBRANCH  27  31
ENDBRANCH  22  23
ENDBRANCH  21  22
ENDBRANCH   3  21
TORSDOF 6
ENDMDL
MODEL 7
REMARK VINA RESULT:    -6.766      3.832      7.821
REMARK INTER + INTRA:          -9.935
REMARK INTER:                  -9.035
REMARK INTRA:                  -0.900
REMARK UNBOUND:                -0.796
REMARK  Name = 
REMARK  9 active torsions:
REMARK  status: ('A' for Active; 'I' for Inactive)
REMARK    1  A    between atoms: C_1  and  C_2
REMARK    2  A    between atoms: N_4  and  C_5
REMARK    3  A    between atoms: C_7  and  C_8
REMARK    4  A    between atoms: C_8  and  C_9
REMARK    5  A    between atoms: C_9  and  N_10
REMARK    6  A    between atoms: C_14  and  C_15
REMARK    7  A    between atoms: C_21  and  C_22
REMARK    8  A    between atoms: C_28  and  C_29
REMARK    9  A    between atoms: C_28  and  C_30
REMARK                            x       y       z     vdW  Elec       q    Type
REMARK                         _______ _______ _______ _____ _____    ______ ____
ROOT
ATOM      1  C   UNL     1      46.006   5.722  13.067  0.00  0.00    +0.000 A 
ATOM      2  C   UNL     1      47.087   5.598  13.953  0.00  0.00    +0.000 A 
ATOM      3  C   UNL     1      47.893   6.693  14.329  0.00  0.00    +0.000 A 
ATOM      4  C   UNL     1      47.586   7.962  13.831  0.00  0.00    +0.000 A 
ATOM      5  C   UNL     1      46.511   8.132  12.955  0.00  0.00    +0.000 A 
ATOM      6  C   UNL     1      45.743   7.013  12.590  0.00  0.00    +0.000 A 
ENDROOT
BRANCH   1  10
ATOM      7  C   UNL     1      42.301   5.483  11.710  0.00  0.00    +0.000 C 
ATOM      8  C   UNL     1      42.865   4.131  12.158  0.00  0.00    +0.000 C 
ATOM      9  C   UNL     1      43.939   4.312  13.270  0.00  0.00    +0.000 C 
ATOM     10  N   UNL     1      45.242   4.641  12.677  0.00  0.00    +0.000 N 
ATOM     11  C   UNL     1      45.693   3.679  11.660  0.00  0.00    +0.000 C 
ATOM     12  C   UNL     1      44.649   3.554  10.507  0.00  0.00    +0.000 C 
ATOM     13  C   UNL     1      44.674   4.797   9.600  0.00  0.00    +0.000 C 
ATOM     14  C   UNL     1      45.052   2.351   9.625  0.00  0.00    +0.000 C 
ATOM     15  N   UNL     1      43.271   3.279  11.009  0.00  0.00    +0.000 NA
ATOM     16  H   UNL     1      43.263   2.316  11.347  0.00  0.00    +0.000 HD
ENDBRANCH   1  10
BRANCH   5  17
ATOM     17  C   UNL     1      46.163   9.480  12.378  0.00  0.00    +0.000 C 
ATOM     18  F   UNL     1      47.061  10.456  12.686  0.00  0.00    +0.000 F 
ATOM     19  F   UNL     1      46.088   9.459  11.017  0.00  0.00    +0.000 F 
ATOM     20  F   UNL     1      44.954   9.937  12.808  0.00  0.00    +0.000 F 
ENDBRANCH   5  17
BRANCH   3  21
ATOM     21  C   UNL     1      49.102   6.496  15.220  0.00  0.00    +0.000 C 
BRANCH  21  22
ATOM     22  C   UNL     1      48.720   5.830  16.549  0.00  0.00    +0.000 C 
BRANCH  22  23
ATOM     23  N   UNL     1      49.861   5.788  17.474  0.00  0.00    +0.000 N 
ATOM     24  C   UNL     1      50.455   4.508  17.533  0.00  0.00    +0.000 A 
ATOM     25  C   UNL     1      51.557   4.276  18.368  0.00  0.00    +0.000 A 
ATOM     26  N   UNL     1      52.189   3.075  18.489  0.00  0.00    +0.000 NA
ATOM     27  C   UNL     1      51.671   2.089  17.704  0.00  0.00    +0.000 A 
ATOM     28  C   UNL     1      50.597   2.304  16.860  0.00  0.00    +0.000 A 
ATOM     29  N   UNL     1      49.977   3.506  16.761  0.00  0.00    +0.000 NA
ATOM     30  H   UNL     1      49.604   6.075  18.415  0.00  0.00    +0.000 HD
BRANCH  27  31
ATOM     31  C   UNL     1      52.285   0.735  17.769  0.00  0.00    +0.000 C 
ATOM     32  N   UNL     1      51.577  -0.210  18.462  0.00  0.00    +0.000 N 
ATOM     33  O   UNL     1      53.355   0.475  17.234  0.00  0.00    +0.000 OA
ATOM     34  H   UNL     1      50.698   0.031  18.900  0.00  0.00    +0.000 HD
ATOM     35  H   UNL     1      51.950  -1.145  18.536  0.00  0.00    +0.000 HD
ENDBRANCH  27  31
ENDBRANCH  22  23
ENDBRANCH  21  22
ENDBRANCH   3  21
TORSDOF 6
ENDMDL
MODEL 8
REMARK VINA RESULT:    -6.640      4.495      6.808
REMARK INTER + INTRA:          -9.764
REMARK INTER:                  -9.080
REMARK INTRA:                  -0.685
REMARK UNBOUND:                -0.796
REMARK  Name = 
REMARK  9 active torsions:
REMARK  status: ('A' for Active; 'I' for Inactive)
REMARK    1  A    between atoms: C_1  and  C_2
REMARK    2  A    between atoms: N_4  and  C_5
REMARK    3  A    between atoms: C_7  and  C_8
REMARK    4  A    between atoms: C_8  and  C_9
REMARK    5  A    between atoms: C_9  and  N_10
REMARK    6  A    between atoms: C_14  and  C_15
REMARK    7  A    between atoms: C_21  and  C_22
REMARK    8  A    between atoms: C_28  and  C_29
REMARK    9  A    between atoms: C_28  and  C_30
REMARK                            x       y       z     vdW  Elec       q    Type
REMARK                         _______ _______ _______ _____ _____    ______ ____
ROOT
ATOM      1  C   UNL     1      46.977   6.877  12.577  0.00  0.00    +0.000 A 
ATOM      2  C   UNL     1      47.482   5.870  13.415  0.00  0.00    +0.000 A 
ATOM      3  C   UNL     1      46.704   4.774  13.841  0.00  0.00    +0.000 A 
ATOM      4  C   UNL     1      45.387   4.660  13.387  0.00  0.00    +0.000 A 
ATOM      5  C   UNL     1      44.849   5.634  12.542  0.00  0.00    +0.000 A 
ATOM      6  C   UNL     1      45.650   6.721  12.153  0.00  0.00    +0.000 A 
ENDROOT
BRANCH   1  10
ATOM      7  C   UNL     1      48.410   9.938  14.626  0.00  0.00    +0.000 C 
ATOM      8  C   UNL     1      48.446  10.160  13.110  0.00  0.00    +0.000 C 
ATOM      9  C   UNL     1      47.318   9.357  12.399  0.00  0.00    +0.000 C 
ATOM     10  N   UNL     1      47.733   7.964  12.189  0.00  0.00    +0.000 N 
ATOM     11  C   UNL     1      49.011   7.825  11.474  0.00  0.00    +0.000 C 
ATOM     12  C   UNL     1      50.157   8.568  12.227  0.00  0.00    +0.000 C 
ATOM     13  C   UNL     1      50.577   7.799  13.493  0.00  0.00    +0.000 C 
ATOM     14  C   UNL     1      51.392   8.607  11.300  0.00  0.00    +0.000 C 
ATOM     15  N   UNL     1      49.811   9.983  12.546  0.00  0.00    +0.000 NA
ATOM     16  H   UNL     1      49.827  10.501  11.665  0.00  0.00    +0.000 HD
ENDBRANCH   1  10
BRANCH   5  17
ATOM     17  C   UNL     1      43.427   5.559  12.050  0.00  0.00    +0.000 C 
ATOM     18  F   UNL     1      42.509   5.409  13.045  0.00  0.00    +0.000 F 
ATOM     19  F   UNL     1      43.054   6.678  11.366  0.00  0.00    +0.000 F 
ATOM     20  F   UNL     1      43.223   4.518  11.195  0.00  0.00    +0.000 F 
ENDBRANCH   5  17
BRANCH   3  21
ATOM     21  C   UNL     1      47.264   3.758  14.815  0.00  0.00    +0.000 C 
BRANCH  21  22
ATOM     22  C   UNL     1      47.138   4.239  16.267  0.00  0.00    +0.000 C 
BRANCH  22  23
ATOM     23  N   UNL     1      48.340   4.968  16.697  0.00  0.00    +0.000 N 
ATOM     24  C   UNL     1      49.408   4.100  17.009  0.00  0.00    +0.000 A 
ATOM     25  C   UNL     1      50.637   4.617  17.444  0.00  0.00    +0.000 A 
ATOM     26  N   UNL     1      51.719   3.854  17.769  0.00  0.00    +0.000 NA
ATOM     27  C   UNL     1      51.523   2.514  17.621  0.00  0.00    +0.000 A 
ATOM     28  C   UNL     1      50.325   1.987  17.177  0.00  0.00    +0.000 A 
ATOM     29  N   UNL     1      49.257   2.764  16.865  0.00  0.00    +0.000 NA
ATOM     30  H   UNL     1      48.159   5.569  17.497  0.00  0.00    +0.000 HD
BRANCH  27  31
ATOM     31  C   UNL     1      52.641   1.592  17.960  0.00  0.00    +0.000 C 
ATOM     32  N   UNL     1      52.343   0.257  17.942  0.00  0.00    +0.000 N 
ATOM     33  O   UNL     1      53.763   1.999  18.234  0.00  0.00    +0.000 OA
ATOM     34  H   UNL     1      51.406  -0.053  17.717  0.00  0.00    +0.000 HD
ATOM     35  H   UNL     1      53.067  -0.410  18.164  0.00  0.00    +0.000 HD
ENDBRANCH  27  31
ENDBRANCH  22  23
ENDBRANCH  21  22
ENDBRANCH   3  21
TORSDOF 6
ENDMDL
MODEL 9
REMARK VINA RESULT:    -6.154      4.624      7.471
REMARK INTER + INTRA:          -9.108
REMARK INTER:                  -8.072
REMARK INTRA:                  -1.036
REMARK UNBOUND:                -0.796
REMARK  Name = 
REMARK  9 active torsions:
REMARK  status: ('A' for Active; 'I' for Inactive)
REMARK    1  A    between atoms: C_1  and  C_2
REMARK    2  A    between atoms: N_4  and  C_5
REMARK    3  A    between atoms: C_7  and  C_8
REMARK    4  A    between atoms: C_8  and  C_9
REMARK    5  A    between atoms: C_9  and  N_10
REMARK    6  A    between atoms: C_14  and  C_15
REMARK    7  A    between atoms: C_21  and  C_22
REMARK    8  A    between atoms: C_28  and  C_29
REMARK    9  A    between atoms: C_28  and  C_30
REMARK                            x       y       z     vdW  Elec       q    Type
REMARK                         _______ _______ _______ _____ _____    ______ ____
ROOT
ATOM      1  C   UNL     1      47.698   6.689  13.310  0.00  0.00    +0.000 A 
ATOM      2  C   UNL     1      47.763   5.911  14.477  0.00  0.00    +0.000 A 
ATOM      3  C   UNL     1      46.963   4.766  14.675  0.00  0.00    +0.000 A 
ATOM      4  C   UNL     1      46.093   4.364  13.658  0.00  0.00    +0.000 A 
ATOM      5  C   UNL     1      46.005   5.103  12.475  0.00  0.00    +0.000 A 
ATOM      6  C   UNL     1      46.806   6.248  12.322  0.00  0.00    +0.000 A 
ENDROOT
BRANCH   1  10
ATOM      7  C   UNL     1      48.592   9.647  15.774  0.00  0.00    +0.000 C 
ATOM      8  C   UNL     1      48.890   9.976  14.308  0.00  0.00    +0.000 C 
ATOM      9  C   UNL     1      47.948   9.185  13.353  0.00  0.00    +0.000 C 
ATOM     10  N   UNL     1      48.459   7.826  13.137  0.00  0.00    +0.000 N 
ATOM     11  C   UNL     1      49.850   7.782  12.660  0.00  0.00    +0.000 C 
ATOM     12  C   UNL     1      50.805   8.510  13.656  0.00  0.00    +0.000 C 
ATOM     13  C   UNL     1      51.025   7.670  14.926  0.00  0.00    +0.000 C 
ATOM     14  C   UNL     1      52.184   8.657  12.974  0.00  0.00    +0.000 C 
ATOM     15  N   UNL     1      50.341   9.887  13.993  0.00  0.00    +0.000 NA
ATOM     16  H   UNL     1      50.491  10.464  13.164  0.00  0.00    +0.000 HD
ENDBRANCH   1  10
BRANCH   5  17
ATOM     17  C   UNL     1      45.063   4.715  11.364  0.00  0.00    +0.000 C 
ATOM     18  F   UNL     1      45.150   5.516  10.267  0.00  0.00    +0.000 F 
ATOM     19  F   UNL     1      45.284   3.446  10.916  0.00  0.00    +0.000 F 
ATOM     20  F   UNL     1      43.757   4.750  11.750  0.00  0.00    +0.000 F 
ENDBRANCH   5  17
BRANCH   3  21
ATOM     21  C   UNL     1      47.005   4.008  15.985  0.00  0.00    +0.000 C 
BRANCH  21  22
ATOM     22  C   UNL     1      48.418   3.994  16.583  0.00  0.00    +0.000 C 
BRANCH  22  23
ATOM     23  N   UNL     1      48.931   2.622  16.713  0.00  0.00    +0.000 N 
ATOM     24  C   UNL     1      50.264   2.592  17.176  0.00  0.00    +0.000 A 
ATOM     25  C   UNL     1      50.923   1.368  17.357  0.00  0.00    +0.000 A 
ATOM     26  N   UNL     1      52.208   1.245  17.796  0.00  0.00    +0.000 NA
ATOM     27  C   UNL     1      52.820   2.431  18.072  0.00  0.00    +0.000 A 
ATOM     28  C   UNL     1      52.180   3.647  17.917  0.00  0.00    +0.000 A 
ATOM     29  N   UNL     1      50.903   3.746  17.472  0.00  0.00    +0.000 NA
ATOM     30  H   UNL     1      48.873   2.106  15.839  0.00  0.00    +0.000 HD
BRANCH  27  31
ATOM     31  C   UNL     1      54.229   2.407  18.549  0.00  0.00    +0.000 C 
ATOM     32  N   UNL     1      54.509   1.509  19.544  0.00  0.00    +0.000 N 
ATOM     33  O   UNL     1      55.091   3.140  18.081  0.00  0.00    +0.000 OA
ATOM     34  H   UNL     1      53.778   0.918  19.918  0.00  0.00    +0.000 HD
ATOM     35  H   UNL     1      55.451   1.453  19.902  0.00  0.00    +0.000 HD
ENDBRANCH  27  31
ENDBRANCH  22  23
ENDBRANCH  21  22
ENDBRANCH   3  21
TORSDOF 6
ENDMDL
