MODEL 1
REMARK VINA RESULT:    -6.753      0.000      0.000
REMARK INTER + INTRA:         -10.374
REMARK INTER:                  -9.517
REMARK INTRA:                  -0.857
REMARK UNBOUND:                -0.857
REMARK  Name = 
REMARK  9 active torsions:
REMARK  status: ('A' for Active; 'I' for Inactive)
REMARK    1  A    between atoms: C_1  and  N_2
REMARK    2  A    between atoms: N_2  and  C_3
REMARK    3  A    between atoms: N_2  and  C_4
REMARK    4  A    between atoms: C_4  and  C_5
REMARK    5  A    between atoms: C_5  and  C_6
REMARK    6  A    between atoms: C_6  and  O_7
REMARK    7  A    between atoms: C_6  and  C_17
REMARK    8  A    between atoms: O_7  and  C_8
REMARK    9  A    between atoms: C_11  and  C_12
REMARK                            x       y       z     vdW  Elec       q    Type
REMARK                         _______ _______ _______ _____ _____    ______ ____
ROOT
ATOM      1  C   UNL     1      45.468   5.406  11.475  0.00  0.00    +0.000 C 
ENDROOT
BRANCH   1   2
ATOM      2  C   UNL     1      45.187   6.911  11.549  0.00  0.00    +0.000 A 
ATOM      3  C   UNL     1      43.991   7.431  11.028  0.00  0.00    +0.000 A 
ATOM      4  C   UNL     1      43.753   8.808  11.033  0.00  0.00    +0.000 A 
ATOM      5  C   UNL     1      44.708   9.678  11.554  0.00  0.00    +0.000 A 
ATOM      6 CL   UNL     1      44.413  11.374  11.555  0.00  0.00    +0.000 Cl
ATOM      7  C   UNL     1      45.904   9.184  12.067  0.00  0.00    +0.000 A 
ATOM      8  C   UNL     1      46.143   7.809  12.059  0.00  0.00    +0.000 A 
ENDBRANCH   1   2
BRANCH   1   9
ATOM      9  C   UNL     1      45.137   4.806  12.858  0.00  0.00    +0.000 C 
BRANCH   9  10
ATOM     10  C   UNL     1      46.232   3.923  13.472  0.00  0.00    +0.000 C 
BRANCH  10  12
ATOM     11  C   UNL     1      47.493   3.478  15.517  0.00  0.00    +0.000 C 
ATOM     12  N   UNL     1      46.731   4.472  14.754  0.00  0.00    +0.000 NA
ATOM     13  C   UNL     1      47.568   5.652  14.519  0.00  0.00    +0.000 C 
ENDBRANCH  10  12
ENDBRANCH   9  10
ENDBRANCH   1   9
BRANCH   1  14
ATOM     14  O   UNL     1      44.604   4.853  10.475  0.00  0.00    +0.000 OA
BRANCH  14  15
ATOM     15  C   UNL     1      45.220   4.182   9.444  0.00  0.00    +0.000 A 
ATOM     16  C   UNL     1      45.114   2.802   9.473  0.00  0.00    +0.000 A 
ATOM     17  C   UNL     1      45.789   2.066   8.503  0.00  0.00    +0.000 A 
ATOM     18  C   UNL     1      46.522   2.729   7.513  0.00  0.00    +0.000 A 
ATOM     19  C   UNL     1      46.515   4.118   7.542  0.00  0.00    +0.000 A 
ATOM     20  N   UNL     1      45.890   4.861   8.492  0.00  0.00    +0.000 NA
BRANCH  18  21
ATOM     21  C   UNL     1      47.285   1.923   6.533  0.00  0.00    +0.000 C 
ATOM     22  N   UNL     1      48.077   2.557   5.615  0.00  0.00    +0.000 N 
ATOM     23  O   UNL     1      47.234   0.696   6.546  0.00  0.00    +0.000 OA
ATOM     24  H   UNL     1      48.177   3.552   5.499  0.00  0.00    +0.000 HD
ATOM     25  H   UNL     1      48.599   1.960   4.986  0.00  0.00    +0.000 HD
ENDBRANCH  18  21
ENDBRANCH  14  15
ENDBRANCH   1  14
TORSDOF 7
ENDMDL
MODEL 2
REMARK VINA RESULT:    -6.512      1.531      2.220
REMARK INTER + INTRA:         -10.034
REMARK INTER:                  -9.560
REMARK INTRA:                  -0.474
REMARK UNBOUND:                -0.857
REMARK  Name = 
REMARK  9 active torsions:
REMARK  status: ('A' for Active; 'I' for Inactive)
REMARK    1  A    between atoms: C_1  and  N_2
REMARK    2  A    between atoms: N_2  and  C_3
REMARK    3  A    between atoms: N_2  and  C_4
REMARK    4  A    between atoms: C_4  and  C_5
REMARK    5  A    between atoms: C_5  and  C_6
REMARK    6  A    between atoms: C_6  and  O_7
REMARK    7  A    between atoms: C_6  and  C_17
REMARK    8  A    between atoms: O_7  and  C_8
REMARK    9  A    between atoms: C_11  and  C_12
REMARK                            x       y       z     vdW  Elec       q    Type
REMARK                         _______ _______ _______ _____ _____    ______ ____
ROOT
ATOM      1  C   UNL     1      45.976   5.502  11.414  0.00  0.00    +0.000 C 
ENDROOT
BRANCH   1   2
ATOM      2  C   UNL     1      46.050   7.016  11.643  0.00  0.00    +0.000 A 
ATOM      3  C   UNL     1      44.942   7.828  11.352  0.00  0.00    +0.000 A 
ATOM      4  C   UNL     1      45.020   9.216  11.496  0.00  0.00    +0.000 A 
ATOM      5  C   UNL     1      46.206   9.805  11.928  0.00  0.00    +0.000 A 
ATOM      6 CL   UNL     1      46.301  11.515  12.101  0.00  0.00    +0.000 Cl
ATOM      7  C   UNL     1      47.319   9.020  12.213  0.00  0.00    +0.000 A 
ATOM      8  C   UNL     1      47.241   7.633  12.065  0.00  0.00    +0.000 A 
ENDBRANCH   1   2
BRANCH   1   9
ATOM      9  C   UNL     1      45.425   4.867  12.708  0.00  0.00    +0.000 C 
BRANCH   9  10
ATOM     10  C   UNL     1      44.147   5.510  13.264  0.00  0.00    +0.000 C 
BRANCH  10  12
ATOM     11  C   UNL     1      42.197   5.395  11.795  0.00  0.00    +0.000 C 
ATOM     12  N   UNL     1      42.934   4.748  12.885  0.00  0.00    +0.000 NA
ATOM     13  C   UNL     1      43.287   3.381  12.492  0.00  0.00    +0.000 C 
ENDBRANCH  10  12
ENDBRANCH   9  10
ENDBRANCH   1   9
BRANCH   1  14
ATOM     14  O   UNL     1      45.072   5.273  10.326  0.00  0.00    +0.000 OA
BRANCH  14  15
ATOM     15  C   UNL     1      45.550   4.503   9.291  0.00  0.00    +0.000 A 
ATOM     16  C   UNL     1      45.271   3.149   9.367  0.00  0.00    +0.000 A 
ATOM     17  C   UNL     1      45.804   2.309   8.392  0.00  0.00    +0.000 A 
ATOM     18  C   UNL     1      46.569   2.847   7.353  0.00  0.00    +0.000 A 
ATOM     19  C   UNL     1      46.739   4.226   7.340  0.00  0.00    +0.000 A 
ATOM     20  N   UNL     1      46.257   5.067   8.292  0.00  0.00    +0.000 NA
BRANCH  18  21
ATOM     21  C   UNL     1      47.179   1.926   6.367  0.00  0.00    +0.000 C 
ATOM     22  N   UNL     1      47.914   2.440   5.335  0.00  0.00    +0.000 N 
ATOM     23  O   UNL     1      47.051   0.709   6.474  0.00  0.00    +0.000 OA
ATOM     24  H   UNL     1      48.065   3.416   5.137  0.00  0.00    +0.000 HD
ATOM     25  H   UNL     1      48.332   1.767   4.705  0.00  0.00    +0.000 HD
ENDBRANCH  18  21
ENDBRANCH  14  15
ENDBRANCH   1  14
TORSDOF 7
ENDMDL
MODEL 3
REMARK VINA RESULT:    -6.050      3.673      7.376
REMARK INTER + INTRA:          -9.382
REMARK INTER:                  -8.507
REMARK INTRA:                  -0.876
REMARK UNBOUND:                -0.857
REMARK  Name = 
REMARK  9 active torsions:
REMARK  status: ('A' for Active; 'I' for Inactive)
REMARK    1  A    between atoms: C_1  and  N_2
REMARK    2  A    between atoms: N_2  and  C_3
REMARK    3  A    between atoms: N_2  and  C_4
REMARK    4  A    between atoms: C_4  and  C_5
REMARK    5  A    between atoms: C_5  and  C_6
REMARK    6  A    between atoms: C_6  and  O_7
REMARK    7  A    between atoms: C_6  and  C_17
REMARK    8  A    between atoms: O_7  and  C_8
REMARK    9  A    between atoms: C_11  and  C_12
REMARK                            x       y       z     vdW  Elec       q    Type
REMARK                         _______ _______ _______ _____ _____    ______ ____
ROOT
ATOM      1  C   UNL     1      46.248   5.569  13.445  0.00  0.00    +0.000 C 
ENDROOT
BRANCH   1   2
ATOM      2  C   UNL     1      46.773   6.883  12.854  0.00  0.00    +0.000 A 
ATOM      3  C   UNL     1      48.058   6.939  12.291  0.00  0.00    +0.000 A 
ATOM      4  C   UNL     1      48.571   8.146  11.807  0.00  0.00    +0.000 A 
ATOM      5  C   UNL     1      47.806   9.307  11.884  0.00  0.00    +0.000 A 
ATOM      6 CL   UNL     1      48.442  10.793  11.291  0.00  0.00    +0.000 Cl
ATOM      7  C   UNL     1      46.534   9.276  12.446  0.00  0.00    +0.000 A 
ATOM      8  C   UNL     1      46.024   8.071  12.933  0.00  0.00    +0.000 A 
ENDBRANCH   1   2
BRANCH   1   9
ATOM      9  C   UNL     1      45.509   4.819  12.317  0.00  0.00    +0.000 C 
BRANCH   9  10
ATOM     10  C   UNL     1      44.161   4.200  12.712  0.00  0.00    +0.000 C 
BRANCH  10  12
ATOM     11  C   UNL     1      42.345   5.574  11.828  0.00  0.00    +0.000 C 
ATOM     12  N   UNL     1      43.145   4.359  11.646  0.00  0.00    +0.000 NA
ATOM     13  C   UNL     1      43.783   4.387  10.327  0.00  0.00    +0.000 C 
ENDBRANCH  10  12
ENDBRANCH   9  10
ENDBRANCH   1   9
BRANCH   1  14
ATOM     14  O   UNL     1      47.381   4.811  13.886  0.00  0.00    +0.000 OA
BRANCH  14  15
ATOM     15  C   UNL     1      47.552   4.713  15.248  0.00  0.00    +0.000 A 
ATOM     16  C   UNL     1      48.361   5.677  15.825  0.00  0.00    +0.000 A 
ATOM     17  C   UNL     1      48.639   5.578  17.186  0.00  0.00    +0.000 A 
ATOM     18  C   UNL     1      48.078   4.541  17.936  0.00  0.00    +0.000 A 
ATOM     19  C   UNL     1      47.234   3.661  17.270  0.00  0.00    +0.000 A 
ATOM     20  N   UNL     1      46.967   3.715  15.939  0.00  0.00    +0.000 NA
BRANCH  18  21
ATOM     21  C   UNL     1      48.442   4.419  19.366  0.00  0.00    +0.000 C 
ATOM     22  N   UNL     1      48.395   3.192  19.968  0.00  0.00    +0.000 N 
ATOM     23  O   UNL     1      48.805   5.399  20.012  0.00  0.00    +0.000 OA
ATOM     24  H   UNL     1      48.093   2.330  19.544  0.00  0.00    +0.000 HD
ATOM     25  H   UNL     1      48.680   3.158  20.939  0.00  0.00    +0.000 HD
ENDBRANCH  18  21
ENDBRANCH  14  15
ENDBRANCH   1  14
TORSDOF 7
ENDMDL
MODEL 4
REMARK VINA RESULT:    -5.621      3.375      4.788
REMARK INTER + INTRA:          -8.779
REMARK INTER:                  -7.810
REMARK INTRA:                  -0.969
REMARK UNBOUND:                -0.857
REMARK  Name = 
REMARK  9 active torsions:
REMARK  status: ('A' for Active; 'I' for Inactive)
REMARK    1  A    between atoms: C_1  and  N_2
REMARK    2  A    between atoms: N_2  and  C_3
REMARK    3  A    between atoms: N_2  and  C_4
REMARK    4  A    between atoms: C_4  and  C_5
REMARK    5  A    between atoms: C_5  and  C_6
REMARK    6  A    between atoms: C_6  and  O_7
REMARK    7  A    between atoms: C_6  and  C_17
REMARK    8  A    between atoms: O_7  and  C_8
REMARK    9  A    between atoms: C_11  and  C_12
REMARK                            x       y       z     vdW  Elec       q    Type
REMARK                         _______ _______ _______ _____ _____    ______ ____
ROOT
ATOM      1  C   UNL     1      48.735   6.924  13.395  0.00  0.00    +0.000 C 
ENDROOT
BRANCH   1   2
ATOM      2  C   UNL     1      49.244   8.103  12.557  0.00  0.00    +0.000 A 
ATOM      3  C   UNL     1      48.444   9.243  12.385  0.00  0.00    +0.000 A 
ATOM      4  C   UNL     1      48.872  10.296  11.571  0.00  0.00    +0.000 A 
ATOM      5  C   UNL     1      50.099  10.217  10.919  0.00  0.00    +0.000 A 
ATOM      6 CL   UNL     1      50.621  11.513   9.913  0.00  0.00    +0.000 Cl
ATOM      7  C   UNL     1      50.904   9.091  11.068  0.00  0.00    +0.000 A 
ATOM      8  C   UNL     1      50.475   8.038  11.878  0.00  0.00    +0.000 A 
ENDBRANCH   1   2
BRANCH   1   9
ATOM      9  C   UNL     1      49.346   7.064  14.806  0.00  0.00    +0.000 C 
BRANCH   9  10
ATOM     10  C   UNL     1      48.517   6.455  15.945  0.00  0.00    +0.000 C 
BRANCH  10  12
ATOM     11  C   UNL     1      49.983   5.052  17.307  0.00  0.00    +0.000 C 
ATOM     12  N   UNL     1      48.948   5.075  16.268  0.00  0.00    +0.000 NA
ATOM     13  C   UNL     1      47.805   4.266  16.699  0.00  0.00    +0.000 C 
ENDBRANCH  10  12
ENDBRANCH   9  10
ENDBRANCH   1   9
BRANCH   1  14
ATOM     14  O   UNL     1      47.307   7.026  13.461  0.00  0.00    +0.000 OA
BRANCH  14  15
ATOM     15  C   UNL     1      46.598   6.023  12.842  0.00  0.00    +0.000 A 
ATOM     16  C   UNL     1      46.203   6.278  11.540  0.00  0.00    +0.000 A 
ATOM     17  C   UNL     1      45.410   5.334  10.892  0.00  0.00    +0.000 A 
ATOM     18  C   UNL     1      45.062   4.150  11.550  0.00  0.00    +0.000 A 
ATOM     19  C   UNL     1      45.560   3.968  12.834  0.00  0.00    +0.000 A 
ATOM     20  N   UNL     1      46.311   4.883  13.501  0.00  0.00    +0.000 NA
BRANCH  18  21
ATOM     21  C   UNL     1      44.164   3.193  10.865  0.00  0.00    +0.000 C 
ATOM     22  N   UNL     1      44.648   2.441   9.831  0.00  0.00    +0.000 N 
ATOM     23  O   UNL     1      42.998   3.050  11.226  0.00  0.00    +0.000 OA
ATOM     24  H   UNL     1      45.574   2.492   9.438  0.00  0.00    +0.000 HD
ATOM     25  H   UNL     1      44.001   1.783   9.415  0.00  0.00    +0.000 HD
ENDBRANCH  18  21
ENDBRANCH  14  15
ENDBRANCH   1  14
TORSDOF 7
ENDMDL
MODEL 5
REMARK VINA RESULT:    -5.500      4.753      6.858
REMARK INTER + INTRA:          -8.608
REMARK INTER:                  -7.624
REMARK INTRA:                  -0.985
REMARK UNBOUND:                -0.857
REMARK  Name = 
REMARK  9 active torsions:
REMARK  status: ('A' for Active; 'I' for Inactive)
REMARK    1  A    between atoms: C_1  and  N_2
REMARK    2  A    between atoms: N_2  and  C_3
REMARK    3  A    between atoms: N_2  and  C_4
REMARK    4  A    between atoms: C_4  and  C_5
REMARK    5  A    between atoms: C_5  and  C_6
REMARK    6  A    between atoms: C_6  and  O_7
REMARK    7  A    between atoms: C_6  and  C_17
REMARK    8  A    between atoms: O_7  and  C_8
REMARK    9  A    between atoms: C_11  and  C_12
REMARK                            x       y       z     vdW  Elec       q    Type
REMARK                         _______ _______ _______ _____ _____    ______ ____
ROOT
ATOM      1  C   UNL     1      48.442   6.705  14.851  0.00  0.00    +0.000 C 
ENDROOT
BRANCH   1   2
ATOM      2  C   UNL     1      48.645   6.175  16.276  0.00  0.00    +0.000 A 
ATOM      3  C   UNL     1      48.294   4.852  16.592  0.00  0.00    +0.000 A 
ATOM      4  C   UNL     1      48.415   4.378  17.901  0.00  0.00    +0.000 A 
ATOM      5  C   UNL     1      48.883   5.221  18.906  0.00  0.00    +0.000 A 
ATOM      6 CL   UNL     1      49.027   4.636  20.519  0.00  0.00    +0.000 Cl
ATOM      7  C   UNL     1      49.227   6.538  18.616  0.00  0.00    +0.000 A 
ATOM      8  C   UNL     1      49.103   7.012  17.309  0.00  0.00    +0.000 A 
ENDBRANCH   1   2
BRANCH   1   9
ATOM      9  C   UNL     1      49.763   7.374  14.416  0.00  0.00    +0.000 C 
BRANCH   9  10
ATOM     10  C   UNL     1      49.614   8.735  13.723  0.00  0.00    +0.000 C 
BRANCH  10  12
ATOM     11  C   UNL     1      48.795   9.918  11.748  0.00  0.00    +0.000 C 
ATOM     12  N   UNL     1      48.967   8.614  12.397  0.00  0.00    +0.000 NA
ATOM     13  C   UNL     1      49.747   7.733  11.522  0.00  0.00    +0.000 C 
ENDBRANCH  10  12
ENDBRANCH   9  10
ENDBRANCH   1   9
BRANCH   1  14
ATOM     14  O   UNL     1      48.153   5.583  14.009  0.00  0.00    +0.000 OA
BRANCH  14  15
ATOM     15  C   UNL     1      46.869   5.505  13.522  0.00  0.00    +0.000 A 
ATOM     16  C   UNL     1      46.352   4.227  13.386  0.00  0.00    +0.000 A 
ATOM     17  C   UNL     1      45.089   4.082  12.818  0.00  0.00    +0.000 A 
ATOM     18  C   UNL     1      44.365   5.216  12.433  0.00  0.00    +0.000 A 
ATOM     19  C   UNL     1      44.953   6.453  12.668  0.00  0.00    +0.000 A 
ATOM     20  N   UNL     1      46.194   6.624  13.193  0.00  0.00    +0.000 NA
BRANCH  18  21
ATOM     21  C   UNL     1      43.054   5.032  11.771  0.00  0.00    +0.000 C 
ATOM     22  N   UNL     1      42.155   6.062  11.767  0.00  0.00    +0.000 N 
ATOM     23  O   UNL     1      42.771   3.977  11.209  0.00  0.00    +0.000 OA
ATOM     24  H   UNL     1      42.270   6.957  12.214  0.00  0.00    +0.000 HD
ATOM     25  H   UNL     1      41.285   5.895  11.278  0.00  0.00    +0.000 HD
ENDBRANCH  18  21
ENDBRANCH  14  15
ENDBRANCH   1  14
TORSDOF 7
ENDMDL
MODEL 6
REMARK VINA RESULT:    -5.474      4.607      7.769
REMARK INTER + INTRA:          -8.571
REMARK INTER:                  -7.663
REMARK INTRA:                  -0.909
REMARK UNBOUND:                -0.857
REMARK  Name = 
REMARK  9 active torsions:
REMARK  status: ('A' for Active; 'I' for Inactive)
REMARK    1  A    between atoms: C_1  and  N_2
REMARK    2  A    between atoms: N_2  and  C_3
REMARK    3  A    between atoms: N_2  and  C_4
REMARK    4  A    between atoms: C_4  and  C_5
REMARK    5  A    between atoms: C_5  and  C_6
REMARK    6  A    between atoms: C_6  and  O_7
REMARK    7  A    between atoms: C_6  and  C_17
REMARK    8  A    between atoms: O_7  and  C_8
REMARK    9  A    between atoms: C_11  and  C_12
REMARK                            x       y       z     vdW  Elec       q    Type
REMARK                         _______ _______ _______ _____ _____    ______ ____
ROOT
ATOM      1  C   UNL     1      48.097   4.000  16.756  0.00  0.00    +0.000 C 
ENDROOT
BRANCH   1   2
ATOM      2  C   UNL     1      49.509   3.484  17.058  0.00  0.00    +0.000 A 
ATOM      3  C   UNL     1      49.778   2.107  17.026  0.00  0.00    +0.000 A 
ATOM      4  C   UNL     1      51.045   1.622  17.362  0.00  0.00    +0.000 A 
ATOM      5  C   UNL     1      52.053   2.507  17.737  0.00  0.00    +0.000 A 
ATOM      6 CL   UNL     1      53.611   1.906  18.155  0.00  0.00    +0.000 Cl
ATOM      7  C   UNL     1      51.804   3.875  17.785  0.00  0.00    +0.000 A 
ATOM      8  C   UNL     1      50.538   4.360  17.452  0.00  0.00    +0.000 A 
ENDBRANCH   1   2
BRANCH   1   9
ATOM      9  C   UNL     1      47.454   4.399  18.101  0.00  0.00    +0.000 C 
BRANCH   9  10
ATOM     10  C   UNL     1      47.520   5.893  18.444  0.00  0.00    +0.000 C 
BRANCH  10  12
ATOM     11  C   UNL     1      48.507   4.878  20.436  0.00  0.00    +0.000 C 
ATOM     12  N   UNL     1      48.093   6.128  19.790  0.00  0.00    +0.000 NA
ATOM     13  C   UNL     1      49.238   7.040  19.711  0.00  0.00    +0.000 C 
ENDBRANCH  10  12
ENDBRANCH   9  10
ENDBRANCH   1   9
BRANCH   1  14
ATOM     14  O   UNL     1      48.228   5.149  15.910  0.00  0.00    +0.000 OA
BRANCH  14  15
ATOM     15  C   UNL     1      47.520   5.118  14.731  0.00  0.00    +0.000 A 
ATOM     16  C   UNL     1      47.640   6.239  13.926  0.00  0.00    +0.000 A 
ATOM     17  C   UNL     1      46.879   6.300  12.761  0.00  0.00    +0.000 A 
ATOM     18  C   UNL     1      46.047   5.230  12.417  0.00  0.00    +0.000 A 
ATOM     19  C   UNL     1      46.046   4.129  13.266  0.00  0.00    +0.000 A 
ATOM     20  N   UNL     1      46.755   4.053  14.422  0.00  0.00    +0.000 NA
BRANCH  18  21
ATOM     21  C   UNL     1      45.199   5.347  11.209  0.00  0.00    +0.000 C 
ATOM     22  N   UNL     1      44.934   6.585  10.693  0.00  0.00    +0.000 N 
ATOM     23  O   UNL     1      44.748   4.348  10.653  0.00  0.00    +0.000 OA
ATOM     24  H   UNL     1      45.230   7.467  11.077  0.00  0.00    +0.000 HD
ATOM     25  H   UNL     1      44.373   6.608   9.851  0.00  0.00    +0.000 HD
ENDBRANCH  18  21
ENDBRANCH  14  15
ENDBRANCH   1  14
TORSDOF 7
ENDMDL
MODEL 7
REMARK VINA RESULT:    -4.991      4.799      7.669
REMARK INTER + INTRA:          -7.890
REMARK INTER:                  -6.913
REMARK INTRA:                  -0.977
REMARK UNBOUND:                -0.857
REMARK  Name = 
REMARK  9 active torsions:
REMARK  status: ('A' for Active; 'I' for Inactive)
REMARK    1  A    between atoms: C_1  and  N_2
REMARK    2  A    between atoms: N_2  and  C_3
REMARK    3  A    between atoms: N_2  and  C_4
REMARK    4  A    between atoms: C_4  and  C_5
REMARK    5  A    between atoms: C_5  and  C_6
REMARK    6  A    between atoms: C_6  and  O_7
REMARK    7  A    between atoms: C_6  and  C_17
REMARK    8  A    between atoms: O_7  and  C_8
REMARK    9  A    between atoms: C_11  and  C_12
REMARK                            x       y       z     vdW  Elec       q    Type
REMARK                         _______ _______ _______ _____ _____    ______ ____
ROOT
ATOM      1  C   UNL     1      48.122   6.405  12.999  0.00  0.00    +0.000 C 
ENDROOT
BRANCH   1   2
ATOM      2  C   UNL     1      46.654   6.131  12.651  0.00  0.00    +0.000 A 
ATOM      3  C   UNL     1      45.958   7.002  11.797  0.00  0.00    +0.000 A 
ATOM      4  C   UNL     1      44.603   6.797  11.524  0.00  0.00    +0.000 A 
ATOM      5  C   UNL     1      43.930   5.724  12.103  0.00  0.00    +0.000 A 
ATOM      6 CL   UNL     1      42.259   5.478  11.768  0.00  0.00    +0.000 Cl
ATOM      7  C   UNL     1      44.598   4.855  12.960  0.00  0.00    +0.000 A 
ATOM      8  C   UNL     1      45.952   5.061  13.235  0.00  0.00    +0.000 A 
ENDBRANCH   1   2
BRANCH   1   9
ATOM      9  C   UNL     1      48.704   7.292  11.878  0.00  0.00    +0.000 C 
BRANCH   9  10
ATOM     10  C   UNL     1      50.047   7.961  12.200  0.00  0.00    +0.000 C 
BRANCH  10  12
ATOM     11  C   UNL     1      48.678   9.893  11.593  0.00  0.00    +0.000 C 
ATOM     12  N   UNL     1      49.953   9.439  12.159  0.00  0.00    +0.000 NA
ATOM     13  C   UNL     1      50.120  10.003  13.502  0.00  0.00    +0.000 C 
ENDBRANCH  10  12
ENDBRANCH   9  10
ENDBRANCH   1   9
BRANCH   1  14
ATOM     14  O   UNL     1      48.146   7.105  14.249  0.00  0.00    +0.000 OA
BRANCH  14  15
ATOM     15  C   UNL     1      48.766   6.460  15.294  0.00  0.00    +0.000 A 
ATOM     16  C   UNL     1      50.036   6.911  15.612  0.00  0.00    +0.000 A 
ATOM     17  C   UNL     1      50.746   6.239  16.605  0.00  0.00    +0.000 A 
ATOM     18  C   UNL     1      50.155   5.162  17.273  0.00  0.00    +0.000 A 
ATOM     19  C   UNL     1      48.854   4.829  16.916  0.00  0.00    +0.000 A 
ATOM     20  N   UNL     1      48.149   5.446  15.932  0.00  0.00    +0.000 NA
BRANCH  18  21
ATOM     21  C   UNL     1      50.954   4.423  18.278  0.00  0.00    +0.000 C 
ATOM     22  N   UNL     1      50.519   4.370  19.573  0.00  0.00    +0.000 N 
ATOM     23  O   UNL     1      51.989   3.841  17.960  0.00  0.00    +0.000 OA
ATOM     24  H   UNL     1      49.703   4.825  19.948  0.00  0.00    +0.000 HD
ATOM     25  H   UNL     1      51.086   3.829  20.214  0.00  0.00    +0.000 HD
ENDBRANCH  18  21
ENDBRANCH  14  15
ENDBRANCH   1  14
TORSDOF 7
ENDMDL
MODEL 8
REMARK VINA RESULT:    -4.940      4.271      6.434
REMARK INTER + INTRA:          -7.819
REMARK INTER:                  -7.649
REMARK INTRA:                  -0.170
REMARK UNBOUND:                -0.857
REMARK  Name = 
REMARK  9 active torsions:
REMARK  status: ('A' for Active; 'I' for Inactive)
REMARK    1  A    between atoms: C_1  and  N_2
REMARK    2  A    between atoms: N_2  and  C_3
REMARK    3  A    between atoms: N_2  and  C_4
REMARK    4  A    between atoms: C_4  and  C_5
REMARK    5  A    between atoms: C_5  and  C_6
REMARK    6  A    between atoms: C_6  and  O_7
REMARK    7  A    between atoms: C_6  and  C_17
REMARK    8  A    between atoms: O_7  and  C_8
REMARK    9  A    between atoms: C_11  and  C_12
REMARK                            x       y       z     vdW  Elec       q    Type
REMARK                         _______ _______ _______ _____ _____    ______ ____
ROOT
ATOM      1  C   UNL     1      45.897   6.056  13.105  0.00  0.00    +0.000 C 
ENDROOT
BRANCH   1   2
ATOM      2  C   UNL     1      45.489   5.188  11.908  0.00  0.00    +0.000 A 
ATOM      3  C   UNL     1      45.073   3.862  12.108  0.00  0.00    +0.000 A 
ATOM      4  C   UNL     1      44.761   3.043  11.020  0.00  0.00    +0.000 A 
ATOM      5  C   UNL     1      44.866   3.539   9.723  0.00  0.00    +0.000 A 
ATOM      6 CL   UNL     1      44.485   2.526   8.384  0.00  0.00    +0.000 Cl
ATOM      7  C   UNL     1      45.286   4.847   9.502  0.00  0.00    +0.000 A 
ATOM      8  C   UNL     1      45.600   5.664  10.589  0.00  0.00    +0.000 A 
ENDBRANCH   1   2
BRANCH   1   9
ATOM      9  C   UNL     1      47.142   5.405  13.743  0.00  0.00    +0.000 C 
BRANCH   9  10
ATOM     10  C   UNL     1      46.855   4.376  14.845  0.00  0.00    +0.000 C 
BRANCH  10  12
ATOM     11  C   UNL     1      48.443   5.766  16.077  0.00  0.00    +0.000 C 
ATOM     12  N   UNL     1      47.865   4.426  15.927  0.00  0.00    +0.000 NA
ATOM     13  C   UNL     1      47.276   4.003  17.201  0.00  0.00    +0.000 C 
ENDBRANCH  10  12
ENDBRANCH   9  10
ENDBRANCH   1   9
BRANCH   1  14
ATOM     14  O   UNL     1      46.219   7.359  12.604  0.00  0.00    +0.000 OA
BRANCH  14  15
ATOM     15  C   UNL     1      47.513   7.783  12.805  0.00  0.00    +0.000 A 
ATOM     16  C   UNL     1      48.422   7.431  11.821  0.00  0.00    +0.000 A 
ATOM     17  C   UNL     1      49.762   7.759  12.012  0.00  0.00    +0.000 A 
ATOM     18  C   UNL     1      50.150   8.456  13.161  0.00  0.00    +0.000 A 
ATOM     19  C   UNL     1      49.148   8.810  14.056  0.00  0.00    +0.000 A 
ATOM     20  N   UNL     1      47.839   8.479  13.911  0.00  0.00    +0.000 NA
BRANCH  18  21
ATOM     21  C   UNL     1      51.589   8.734  13.373  0.00  0.00    +0.000 C 
ATOM     22  N   UNL     1      52.519   8.061  12.630  0.00  0.00    +0.000 N 
ATOM     23  O   UNL     1      51.957   9.575  14.190  0.00  0.00    +0.000 OA
ATOM     24  H   UNL     1      52.333   7.340  11.952  0.00  0.00    +0.000 HD
ATOM     25  H   UNL     1      53.486   8.308  12.793  0.00  0.00    +0.000 HD
ENDBRANCH  18  21
ENDBRANCH  14  15
ENDBRANCH   1  14
TORSDOF 7
ENDMDL
MODEL 9
REMARK VINA RESULT:    -4.583      3.990      6.289
REMARK INTER + INTRA:          -7.315
REMARK INTER:                  -6.553
REMARK INTRA:                  -0.762
REMARK UNBOUND:                -0.857
REMARK  Name = 
REMARK  9 active torsions:
REMARK  status: ('A' for Active; 'I' for Inactive)
REMARK    1  A    between atoms: C_1  and  N_2
REMARK    2  A    between atoms: N_2  and  C_3
REMARK    3  A    between atoms: N_2  and  C_4
REMARK    4  A    between atoms: C_4  and  C_5
REMARK    5  A    between atoms: C_5  and  C_6
REMARK    6  A    between atoms: C_6  and  O_7
REMARK    7  A    between atoms: C_6  and  C_17
REMARK    8  A    between atoms: O_7  and  C_8
REMARK    9  A    between atoms: C_11  and  C_12
REMARK                            x       y       z     vdW  Elec       q    Type
REMARK                         _______ _______ _______ _____ _____    ______ ____
ROOT
ATOM      1  C   UNL     1      47.839   8.299  12.539  0.00  0.00    +0.000 C 
ENDROOT
BRANCH   1   2
ATOM      2  C   UNL     1      49.332   8.624  12.676  0.00  0.00    +0.000 A 
ATOM      3  C   UNL     1      50.199   8.425  11.590  0.00  0.00    +0.000 A 
ATOM      4  C   UNL     1      51.571   8.658  11.724  0.00  0.00    +0.000 A 
ATOM      5  C   UNL     1      52.088   9.088  12.943  0.00  0.00    +0.000 A 
ATOM      6 CL   UNL     1      53.779   9.370  13.106  0.00  0.00    +0.000 Cl
ATOM      7  C   UNL     1      51.248   9.283  14.035  0.00  0.00    +0.000 A 
ATOM      8  C   UNL     1      49.878   9.047  13.902  0.00  0.00    +0.000 A 
ENDBRANCH   1   2
BRANCH   1   9
ATOM      9  C   UNL     1      47.115   9.608  12.161  0.00  0.00    +0.000 C 
BRANCH   9  10
ATOM     10  C   UNL     1      45.591   9.591  12.338  0.00  0.00    +0.000 C 
BRANCH  10  12
ATOM     11  C   UNL     1      45.715  11.516  10.838  0.00  0.00    +0.000 C 
ATOM     12  N   UNL     1      44.971  10.871  11.925  0.00  0.00    +0.000 NA
ATOM     13  C   UNL     1      43.582  10.660  11.508  0.00  0.00    +0.000 C 
ENDBRANCH  10  12
ENDBRANCH   9  10
ENDBRANCH   1   9
BRANCH   1  14
ATOM     14  O   UNL     1      47.702   7.334  11.488  0.00  0.00    +0.000 OA
BRANCH  14  15
ATOM     15  C   UNL     1      46.789   6.328  11.704  0.00  0.00    +0.000 A 
ATOM     16  C   UNL     1      45.831   6.161  10.718  0.00  0.00    +0.000 A 
ATOM     17  C   UNL     1      44.831   5.214  10.923  0.00  0.00    +0.000 A 
ATOM     18  C   UNL     1      44.834   4.440  12.088  0.00  0.00    +0.000 A 
ATOM     19  C   UNL     1      45.875   4.648  12.985  0.00  0.00    +0.000 A 
ATOM     20  N   UNL     1      46.847   5.584  12.826  0.00  0.00    +0.000 NA
BRANCH  18  21
ATOM     21  C   UNL     1      43.723   3.487  12.313  0.00  0.00    +0.000 C 
ATOM     22  N   UNL     1      43.230   3.318  13.577  0.00  0.00    +0.000 N 
ATOM     23  O   UNL     1      43.225   2.864  11.378  0.00  0.00    +0.000 OA
ATOM     24  H   UNL     1      43.575   3.756  14.416  0.00  0.00    +0.000 HD
ATOM     25  H   UNL     1      42.453   2.677  13.672  0.00  0.00    +0.000 HD
ENDBRANCH  18  21
ENDBRANCH  14  15
ENDBRANCH   1  14
TORSDOF 7
ENDMDL
