MODEL 1
REMARK VINA RESULT:    -8.834      0.000      0.000
REMARK INTER + INTRA:         -13.459
REMARK INTER:                 -12.191
REMARK INTRA:                  -1.268
REMARK UNBOUND:                -1.268
REMARK  Name = 
REMARK  7 active torsions:
REMARK  status: ('A' for Active; 'I' for Inactive)
REMARK    1  A    between atoms: C_2  and  C_20
REMARK    2  A    between atoms: N_3  and  C_4
REMARK    3  A    between atoms: C_4  and  C_5
REMARK    4  A    between atoms: C_8  and  C_9
REMARK    5  A    between atoms: C_9  and  C_10
REMARK    6  A    between atoms: C_10  and  O_11
REMARK    7  A    between atoms: C_10  and  C_12
REMARK                            x       y       z     vdW  Elec       q    Type
REMARK                         _______ _______ _______ _____ _____    ______ ____
ROOT
ATOM      1  C   UNL     1      46.716   7.988  13.231  0.00  0.00    +0.000 C 
ENDROOT
BRANCH   1   2
ATOM      2  C   UNL     1      46.060   7.021  12.292  0.00  0.00    +0.000 A 
ATOM      3  C   UNL     1      46.635   6.684  11.066  0.00  0.00    +0.000 A 
ATOM      4  C   UNL     1      45.991   5.777  10.230  0.00  0.00    +0.000 A 
ATOM      5  C   UNL     1      44.791   5.203  10.646  0.00  0.00    +0.000 A 
ATOM      6  N   UNL     1      44.218   5.506  11.834  0.00  0.00    +0.000 NA
ATOM      7  C   UNL     1      44.862   6.398  12.626  0.00  0.00    +0.000 A 
BRANCH   5   8
ATOM      8  C   UNL     1      44.105   4.168   9.786  0.00  0.00    +0.000 C 
BRANCH   8   9
ATOM      9  C   UNL     1      44.835   2.815   9.770  0.00  0.00    +0.000 C 
BRANCH   9  10
ATOM     10  C   UNL     1      45.602   2.528   8.485  0.00  0.00    +0.000 A 
ATOM     11  C   UNL     1      45.730   3.542   7.520  0.00  0.00    +0.000 A 
ATOM     12  C   UNL     1      46.491   3.347   6.365  0.00  0.00    +0.000 A 
ATOM     13  C   UNL     1      47.146   2.136   6.156  0.00  0.00    +0.000 A 
ATOM     14  C   UNL     1      47.034   1.119   7.099  0.00  0.00    +0.000 A 
ATOM     15  C   UNL     1      46.270   1.313   8.254  0.00  0.00    +0.000 A 
ENDBRANCH   9  10
BRANCH   9  16
ATOM     16  O   UNL     1      43.883   1.755   9.931  0.00  0.00    +0.000 OA
ATOM     17  H   UNL     1      43.616   1.745  10.864  0.00  0.00    +0.000 HD
ENDBRANCH   9  16
ENDBRANCH   8   9
ENDBRANCH   5   8
ENDBRANCH   1   2
BRANCH   1  20
ATOM     18  O   UNL     1      49.298   6.887  13.434  0.00  0.00    +0.000 OA
ATOM     19  C   UNL     1      48.556   6.844  14.414  0.00  0.00    +0.000 C 
ATOM     20  N   UNL     1      47.271   7.318  14.379  0.00  0.00    +0.000 N 
ATOM     21  H   UNL     1      46.759   7.419  15.248  0.00  0.00    +0.000 HD
BRANCH  19  22
ATOM     22  C   UNL     1      48.984   6.223  15.673  0.00  0.00    +0.000 A 
ATOM     23  C   UNL     1      50.057   6.753  16.377  0.00  0.00    +0.000 A 
ATOM     24  S   UNL     1      50.426   5.894  17.806  0.00  0.00    +0.000 S 
ATOM     25  C   UNL     1      49.133   4.811  17.558  0.00  0.00    +0.000 A 
ATOM     26  N   UNL     1      48.865   3.826  18.452  0.00  0.00    +0.000 NA
ATOM     27  C   UNL     1      47.831   3.110  18.164  0.00  0.00    +0.000 A 
ATOM     28  N   UNL     1      47.043   3.288  17.056  0.00  0.00    +0.000 N 
ATOM     29  C   UNL     1      47.328   4.217  16.083  0.00  0.00    +0.000 A 
ATOM     30  O   UNL     1      46.692   4.249  15.035  0.00  0.00    +0.000 OA
ATOM     31  C   UNL     1      48.450   5.085  16.388  0.00  0.00    +0.000 A 
ATOM     32  H   UNL     1      46.266   2.672  16.869  0.00  0.00    +0.000 HD
ENDBRANCH  19  22
ENDBRANCH   1  20
TORSDOF 7
ENDMDL
MODEL 2
REMARK VINA RESULT:    -8.051      2.515      4.082
REMARK INTER + INTRA:         -12.378
REMARK INTER:                 -10.902
REMARK INTRA:                  -1.476
REMARK UNBOUND:                -1.268
REMARK  Name = 
REMARK  7 active torsions:
REMARK  status: ('A' for Active; 'I' for Inactive)
REMARK    1  A    between atoms: C_2  and  C_20
REMARK    2  A    between atoms: N_3  and  C_4
REMARK    3  A    between atoms: C_4  and  C_5
REMARK    4  A    between atoms: C_8  and  C_9
REMARK    5  A    between atoms: C_9  and  C_10
REMARK    6  A    between atoms: C_10  and  O_11
REMARK    7  A    between atoms: C_10  and  C_12
REMARK                            x       y       z     vdW  Elec       q    Type
REMARK                         _______ _______ _______ _____ _____    ______ ____
ROOT
ATOM      1  C   UNL     1      47.129   5.053  14.886  0.00  0.00    +0.000 C 
ENDROOT
BRANCH   1   2
ATOM      2  C   UNL     1      46.361   4.724  13.642  0.00  0.00    +0.000 A 
ATOM      3  C   UNL     1      46.250   3.414  13.173  0.00  0.00    +0.000 A 
ATOM      4  C   UNL     1      45.521   3.155  12.016  0.00  0.00    +0.000 A 
ATOM      5  C   UNL     1      44.892   4.212  11.359  0.00  0.00    +0.000 A 
ATOM      6  N   UNL     1      44.976   5.489  11.799  0.00  0.00    +0.000 NA
ATOM      7  C   UNL     1      45.698   5.713  12.924  0.00  0.00    +0.000 A 
BRANCH   5   8
ATOM      8  C   UNL     1      44.042   3.950  10.139  0.00  0.00    +0.000 C 
BRANCH   8   9
ATOM      9  C   UNL     1      44.726   4.366   8.825  0.00  0.00    +0.000 C 
BRANCH   9  10
ATOM     10  C   UNL     1      45.596   3.284   8.198  0.00  0.00    +0.000 A 
ATOM     11  C   UNL     1      46.565   3.647   7.246  0.00  0.00    +0.000 A 
ATOM     12  C   UNL     1      47.437   2.698   6.706  0.00  0.00    +0.000 A 
ATOM     13  C   UNL     1      47.361   1.368   7.112  0.00  0.00    +0.000 A 
ATOM     14  C   UNL     1      46.409   0.988   8.054  0.00  0.00    +0.000 A 
ATOM     15  C   UNL     1      45.536   1.936   8.594  0.00  0.00    +0.000 A 
ENDBRANCH   9  10
BRANCH   9  16
ATOM     16  O   UNL     1      45.575   5.496   9.065  0.00  0.00    +0.000 OA
ATOM     17  H   UNL     1      46.030   5.698   8.231  0.00  0.00    +0.000 HD
ENDBRANCH   9  16
ENDBRANCH   8   9
ENDBRANCH   5   8
ENDBRANCH   1   2
BRANCH   1  20
ATOM     18  O   UNL     1      49.543   5.757  16.148  0.00  0.00    +0.000 OA
ATOM     19  C   UNL     1      49.017   6.563  15.382  0.00  0.00    +0.000 C 
ATOM     20  N   UNL     1      47.820   6.311  14.765  0.00  0.00    +0.000 N 
ATOM     21  H   UNL     1      47.512   6.922  14.017  0.00  0.00    +0.000 HD
BRANCH  19  22
ATOM     22  C   UNL     1      49.614   7.879  15.125  0.00  0.00    +0.000 A 
ATOM     23  C   UNL     1      49.981   8.694  16.187  0.00  0.00    +0.000 A 
ATOM     24  S   UNL     1      50.639  10.193  15.703  0.00  0.00    +0.000 S 
ATOM     25  C   UNL     1      50.500   9.786  14.053  0.00  0.00    +0.000 A 
ATOM     26  N   UNL     1      50.925  10.636  13.085  0.00  0.00    +0.000 NA
ATOM     27  C   UNL     1      50.804  10.182  11.883  0.00  0.00    +0.000 A 
ATOM     28  N   UNL     1      50.290   8.952  11.563  0.00  0.00    +0.000 N 
ATOM     29  C   UNL     1      49.771   8.095  12.505  0.00  0.00    +0.000 A 
ATOM     30  O   UNL     1      49.183   7.071  12.172  0.00  0.00    +0.000 OA
ATOM     31  C   UNL     1      49.934   8.536  13.877  0.00  0.00    +0.000 A 
ATOM     32  H   UNL     1      50.190   8.668  10.600  0.00  0.00    +0.000 HD
ENDBRANCH  19  22
ENDBRANCH   1  20
TORSDOF 7
ENDMDL
MODEL 3
REMARK VINA RESULT:    -7.932      1.897      2.458
REMARK INTER + INTRA:         -12.215
REMARK INTER:                 -10.885
REMARK INTRA:                  -1.330
REMARK UNBOUND:                -1.268
REMARK  Name = 
REMARK  7 active torsions:
REMARK  status: ('A' for Active; 'I' for Inactive)
REMARK    1  A    between atoms: C_2  and  C_20
REMARK    2  A    between atoms: N_3  and  C_4
REMARK    3  A    between atoms: C_4  and  C_5
REMARK    4  A    between atoms: C_8  and  C_9
REMARK    5  A    between atoms: C_9  and  C_10
REMARK    6  A    between atoms: C_10  and  O_11
REMARK    7  A    between atoms: C_10  and  C_12
REMARK                            x       y       z     vdW  Elec       q    Type
REMARK                         _______ _______ _______ _____ _____    ______ ____
ROOT
ATOM      1  C   UNL     1      45.554   8.627  12.615  0.00  0.00    +0.000 C 
ENDROOT
BRANCH   1   2
ATOM      2  C   UNL     1      45.316   7.239  12.102  0.00  0.00    +0.000 A 
ATOM      3  C   UNL     1      46.346   6.302  12.014  0.00  0.00    +0.000 A 
ATOM      4  C   UNL     1      46.076   5.023  11.536  0.00  0.00    +0.000 A 
ATOM      5  C   UNL     1      44.770   4.695  11.176  0.00  0.00    +0.000 A 
ATOM      6  N   UNL     1      43.752   5.582  11.261  0.00  0.00    +0.000 NA
ATOM      7  C   UNL     1      44.044   6.823  11.723  0.00  0.00    +0.000 A 
BRANCH   5   8
ATOM      8  C   UNL     1      44.437   3.296  10.715  0.00  0.00    +0.000 C 
BRANCH   8   9
ATOM      9  C   UNL     1      44.229   3.193   9.195  0.00  0.00    +0.000 C 
BRANCH   9  10
ATOM     10  C   UNL     1      45.464   2.755   8.418  0.00  0.00    +0.000 A 
ATOM     11  C   UNL     1      45.826   1.397   8.412  0.00  0.00    +0.000 A 
ATOM     12  C   UNL     1      46.904   0.941   7.648  0.00  0.00    +0.000 A 
ATOM     13  C   UNL     1      47.636   1.834   6.870  0.00  0.00    +0.000 A 
ATOM     14  C   UNL     1      47.293   3.183   6.861  0.00  0.00    +0.000 A 
ATOM     15  C   UNL     1      46.217   3.639   7.626  0.00  0.00    +0.000 A 
ENDBRANCH   9  10
BRANCH   9  16
ATOM     16  O   UNL     1      43.844   4.473   8.677  0.00  0.00    +0.000 OA
ATOM     17  H   UNL     1      44.436   4.675   7.934  0.00  0.00    +0.000 HD
ENDBRANCH   9  16
ENDBRANCH   8   9
ENDBRANCH   5   8
ENDBRANCH   1   2
BRANCH   1  20
ATOM     18  O   UNL     1      48.273   9.351  12.628  0.00  0.00    +0.000 OA
ATOM     19  C   UNL     1      47.739   9.033  13.689  0.00  0.00    +0.000 C 
ATOM     20  N   UNL     1      46.433   8.626  13.757  0.00  0.00    +0.000 N 
ATOM     21  H   UNL     1      45.989   8.541  14.664  0.00  0.00    +0.000 HD
BRANCH  19  22
ATOM     22  C   UNL     1      48.490   9.013  14.950  0.00  0.00    +0.000 A 
ATOM     23  C   UNL     1      48.902  10.205  15.530  0.00  0.00    +0.000 A 
ATOM     24  S   UNL     1      49.778   9.991  16.980  0.00  0.00    +0.000 S 
ATOM     25  C   UNL     1      49.597   8.297  16.908  0.00  0.00    +0.000 A 
ATOM     26  N   UNL     1      50.095   7.498  17.884  0.00  0.00    +0.000 NA
ATOM     27  C   UNL     1      49.845   6.242  17.728  0.00  0.00    +0.000 A 
ATOM     28  N   UNL     1      49.144   5.713  16.675  0.00  0.00    +0.000 N 
ATOM     29  C   UNL     1      48.694   6.475  15.622  0.00  0.00    +0.000 A 
ATOM     30  O   UNL     1      48.205   5.952  14.627  0.00  0.00    +0.000 OA
ATOM     31  C   UNL     1      48.903   7.902  15.779  0.00  0.00    +0.000 A 
ATOM     32  H   UNL     1      49.010   4.716  16.592  0.00  0.00    +0.000 HD
ENDBRANCH  19  22
ENDBRANCH   1  20
TORSDOF 7
ENDMDL
MODEL 4
REMARK VINA RESULT:    -7.910      1.755      2.241
REMARK INTER + INTRA:         -12.183
REMARK INTER:                 -11.219
REMARK INTRA:                  -0.965
REMARK UNBOUND:                -1.268
REMARK  Name = 
REMARK  7 active torsions:
REMARK  status: ('A' for Active; 'I' for Inactive)
REMARK    1  A    between atoms: C_2  and  C_20
REMARK    2  A    between atoms: N_3  and  C_4
REMARK    3  A    between atoms: C_4  and  C_5
REMARK    4  A    between atoms: C_8  and  C_9
REMARK    5  A    between atoms: C_9  and  C_10
REMARK    6  A    between atoms: C_10  and  O_11
REMARK    7  A    between atoms: C_10  and  C_12
REMARK                            x       y       z     vdW  Elec       q    Type
REMARK                         _______ _______ _______ _____ _____    ______ ____
ROOT
ATOM      1  C   UNL     1      48.182   6.831  13.694  0.00  0.00    +0.000 C 
ENDROOT
BRANCH   1   2
ATOM      2  C   UNL     1      47.149   5.891  13.150  0.00  0.00    +0.000 A 
ATOM      3  C   UNL     1      47.065   4.565  13.578  0.00  0.00    +0.000 A 
ATOM      4  C   UNL     1      46.085   3.731  13.049  0.00  0.00    +0.000 A 
ATOM      5  C   UNL     1      45.188   4.245  12.114  0.00  0.00    +0.000 A 
ATOM      6  N   UNL     1      45.242   5.529  11.691  0.00  0.00    +0.000 NA
ATOM      7  C   UNL     1      46.211   6.318  12.217  0.00  0.00    +0.000 A 
BRANCH   5   8
ATOM      8  C   UNL     1      44.076   3.379  11.572  0.00  0.00    +0.000 C 
BRANCH   8   9
ATOM      9  C   UNL     1      43.781   3.634  10.084  0.00  0.00    +0.000 C 
BRANCH   9  10
ATOM     10  C   UNL     1      44.923   3.266   9.144  0.00  0.00    +0.000 A 
ATOM     11  C   UNL     1      45.294   1.918   9.008  0.00  0.00    +0.000 A 
ATOM     12  C   UNL     1      46.281   1.529   8.098  0.00  0.00    +0.000 A 
ATOM     13  C   UNL     1      46.911   2.482   7.302  0.00  0.00    +0.000 A 
ATOM     14  C   UNL     1      46.557   3.823   7.420  0.00  0.00    +0.000 A 
ATOM     15  C   UNL     1      45.571   4.212   8.331  0.00  0.00    +0.000 A 
ENDBRANCH   9  10
BRANCH   9  16
ATOM     16  O   UNL     1      43.508   5.027   9.882  0.00  0.00    +0.000 OA
ATOM     17  H   UNL     1      43.654   5.218   8.942  0.00  0.00    +0.000 HD
ENDBRANCH   9  16
ENDBRANCH   8   9
ENDBRANCH   5   8
ENDBRANCH   1   2
BRANCH   1  20
ATOM     18  O   UNL     1      50.558   6.936  15.197  0.00  0.00    +0.000 OA
ATOM     19  C   UNL     1      49.486   6.829  15.790  0.00  0.00    +0.000 C 
ATOM     20  N   UNL     1      48.291   6.727  15.126  0.00  0.00    +0.000 N 
ATOM     21  H   UNL     1      47.427   6.814  15.650  0.00  0.00    +0.000 HD
BRANCH  19  22
ATOM     22  C   UNL     1      49.423   6.744  17.254  0.00  0.00    +0.000 A 
ATOM     23  C   UNL     1      49.647   7.877  18.024  0.00  0.00    +0.000 A 
ATOM     24  S   UNL     1      49.554   7.589  19.704  0.00  0.00    +0.000 S 
ATOM     25  C   UNL     1      49.164   5.948  19.460  0.00  0.00    +0.000 A 
ATOM     26  N   UNL     1      48.918   5.124  20.509  0.00  0.00    +0.000 NA
ATOM     27  C   UNL     1      48.588   3.921  20.180  0.00  0.00    +0.000 A 
ATOM     28  N   UNL     1      48.488   3.466  18.890  0.00  0.00    +0.000 N 
ATOM     29  C   UNL     1      48.810   4.242  17.801  0.00  0.00    +0.000 A 
ATOM     30  O   UNL     1      48.856   3.761  16.674  0.00  0.00    +0.000 OA
ATOM     31  C   UNL     1      49.134   5.620  18.117  0.00  0.00    +0.000 A 
ATOM     32  H   UNL     1      48.259   2.503  18.698  0.00  0.00    +0.000 HD
ENDBRANCH  19  22
ENDBRANCH   1  20
TORSDOF 7
ENDMDL
MODEL 5
REMARK VINA RESULT:    -7.701      2.340      2.888
REMARK INTER + INTRA:         -11.896
REMARK INTER:                 -10.822
REMARK INTRA:                  -1.073
REMARK UNBOUND:                -1.268
REMARK  Name = 
REMARK  7 active torsions:
REMARK  status: ('A' for Active; 'I' for Inactive)
REMARK    1  A    between atoms: C_2  and  C_20
REMARK    2  A    between atoms: N_3  and  C_4
REMARK    3  A    between atoms: C_4  and  C_5
REMARK    4  A    between atoms: C_8  and  C_9
REMARK    5  A    between atoms: C_9  and  C_10
REMARK    6  A    between atoms: C_10  and  O_11
REMARK    7  A    between atoms: C_10  and  C_12
REMARK                            x       y       z     vdW  Elec       q    Type
REMARK                         _______ _______ _______ _____ _____    ______ ____
ROOT
ATOM      1  C   UNL     1      48.011   7.228  13.774  0.00  0.00    +0.000 C 
ENDROOT
BRANCH   1   2
ATOM      2  C   UNL     1      47.118   6.378  12.920  0.00  0.00    +0.000 A 
ATOM      3  C   UNL     1      46.649   5.139  13.358  0.00  0.00    +0.000 A 
ATOM      4  C   UNL     1      45.817   4.387  12.533  0.00  0.00    +0.000 A 
ATOM      5  C   UNL     1      45.448   4.902  11.291  0.00  0.00    +0.000 A 
ATOM      6  N   UNL     1      45.881   6.105  10.849  0.00  0.00    +0.000 NA
ATOM      7  C   UNL     1      46.696   6.812  11.669  0.00  0.00    +0.000 A 
BRANCH   5   8
ATOM      8  C   UNL     1      44.495   4.136  10.404  0.00  0.00    +0.000 C 
BRANCH   8   9
ATOM      9  C   UNL     1      44.996   2.725  10.053  0.00  0.00    +0.000 C 
BRANCH   9  10
ATOM     10  C   UNL     1      45.737   2.632   8.724  0.00  0.00    +0.000 A 
ATOM     11  C   UNL     1      46.238   1.388   8.303  0.00  0.00    +0.000 A 
ATOM     12  C   UNL     1      46.852   1.243   7.056  0.00  0.00    +0.000 A 
ATOM     13  C   UNL     1      46.970   2.338   6.204  0.00  0.00    +0.000 A 
ATOM     14  C   UNL     1      46.480   3.578   6.602  0.00  0.00    +0.000 A 
ATOM     15  C   UNL     1      45.867   3.724   7.849  0.00  0.00    +0.000 A 
ENDBRANCH   9  10
BRANCH   9  16
ATOM     16  O   UNL     1      43.881   1.827   9.972  0.00  0.00    +0.000 OA
ATOM     17  H   UNL     1      43.323   2.124   9.236  0.00  0.00    +0.000 HD
ENDBRANCH   9  16
ENDBRANCH   8   9
ENDBRANCH   5   8
ENDBRANCH   1   2
BRANCH   1  20
ATOM     18  O   UNL     1      50.137   6.528  15.479  0.00  0.00    +0.000 OA
ATOM     19  C   UNL     1      48.999   6.584  15.942  0.00  0.00    +0.000 C 
ATOM     20  N   UNL     1      47.908   6.874  15.166  0.00  0.00    +0.000 N 
ATOM     21  H   UNL     1      47.022   7.078  15.616  0.00  0.00    +0.000 HD
BRANCH  19  22
ATOM     22  C   UNL     1      48.729   6.284  17.353  0.00  0.00    +0.000 A 
ATOM     23  C   UNL     1      48.960   5.008  17.848  0.00  0.00    +0.000 A 
ATOM     24  S   UNL     1      48.572   4.836  19.501  0.00  0.00    +0.000 S 
ATOM     25  C   UNL     1      48.126   6.476  19.627  0.00  0.00    +0.000 A 
ATOM     26  N   UNL     1      47.720   7.002  20.810  0.00  0.00    +0.000 NA
ATOM     27  C   UNL     1      47.458   8.265  20.772  0.00  0.00    +0.000 A 
ATOM     28  N   UNL     1      47.561   9.050  19.652  0.00  0.00    +0.000 N 
ATOM     29  C   UNL     1      47.887   8.542  18.416  0.00  0.00    +0.000 A 
ATOM     30  O   UNL     1      47.824   9.240  17.410  0.00  0.00    +0.000 OA
ATOM     31  C   UNL     1      48.245   7.136  18.417  0.00  0.00    +0.000 A 
ATOM     32  H   UNL     1      47.309  10.026  19.680  0.00  0.00    +0.000 HD
ENDBRANCH  19  22
ENDBRANCH   1  20
TORSDOF 7
ENDMDL
MODEL 6
REMARK VINA RESULT:    -7.679      2.610      3.227
REMARK INTER + INTRA:         -11.865
REMARK INTER:                 -10.792
REMARK INTRA:                  -1.072
REMARK UNBOUND:                -1.268
REMARK  Name = 
REMARK  7 active torsions:
REMARK  status: ('A' for Active; 'I' for Inactive)
REMARK    1  A    between atoms: C_2  and  C_20
REMARK    2  A    between atoms: N_3  and  C_4
REMARK    3  A    between atoms: C_4  and  C_5
REMARK    4  A    between atoms: C_8  and  C_9
REMARK    5  A    between atoms: C_9  and  C_10
REMARK    6  A    between atoms: C_10  and  O_11
REMARK    7  A    between atoms: C_10  and  C_12
REMARK                            x       y       z     vdW  Elec       q    Type
REMARK                         _______ _______ _______ _____ _____    ______ ____
ROOT
ATOM      1  C   UNL     1      47.185   4.366  15.518  0.00  0.00    +0.000 C 
ENDROOT
BRANCH   1   2
ATOM      2  C   UNL     1      46.731   4.685  14.126  0.00  0.00    +0.000 A 
ATOM      3  C   UNL     1      47.101   5.870  13.488  0.00  0.00    +0.000 A 
ATOM      4  C   UNL     1      46.660   6.120  12.191  0.00  0.00    +0.000 A 
ATOM      5  C   UNL     1      45.874   5.167  11.545  0.00  0.00    +0.000 A 
ATOM      6  N   UNL     1      45.511   4.007  12.139  0.00  0.00    +0.000 NA
ATOM      7  C   UNL     1      45.948   3.792  13.404  0.00  0.00    +0.000 A 
BRANCH   5   8
ATOM      8  C   UNL     1      45.436   5.385  10.116  0.00  0.00    +0.000 C 
BRANCH   8   9
ATOM      9  C   UNL     1      44.663   4.191   9.532  0.00  0.00    +0.000 C 
BRANCH   9  10
ATOM     10  C   UNL     1      45.492   3.285   8.629  0.00  0.00    +0.000 A 
ATOM     11  C   UNL     1      46.297   3.861   7.631  0.00  0.00    +0.000 A 
ATOM     12  C   UNL     1      47.132   3.074   6.834  0.00  0.00    +0.000 A 
ATOM     13  C   UNL     1      47.183   1.695   7.025  0.00  0.00    +0.000 A 
ATOM     14  C   UNL     1      46.395   1.105   8.009  0.00  0.00    +0.000 A 
ATOM     15  C   UNL     1      45.558   1.892   8.805  0.00  0.00    +0.000 A 
ENDBRANCH   9  10
BRANCH   9  16
ATOM     16  O   UNL     1      43.565   4.671   8.745  0.00  0.00    +0.000 OA
ATOM     17  H   UNL     1      43.581   5.640   8.785  0.00  0.00    +0.000 HD
ENDBRANCH   9  16
ENDBRANCH   8   9
ENDBRANCH   5   8
ENDBRANCH   1   2
BRANCH   1  20
ATOM     18  O   UNL     1      49.710   4.381  16.759  0.00  0.00    +0.000 OA
ATOM     19  C   UNL     1      49.077   5.433  16.690  0.00  0.00    +0.000 C 
ATOM     20  N   UNL     1      47.824   5.497  16.140  0.00  0.00    +0.000 N 
ATOM     21  H   UNL     1      47.414   6.405  15.948  0.00  0.00    +0.000 HD
BRANCH  19  22
ATOM     22  C   UNL     1      49.605   6.685  17.247  0.00  0.00    +0.000 A 
ATOM     23  C   UNL     1      50.774   7.232  16.736  0.00  0.00    +0.000 A 
ATOM     24  S   UNL     1      51.249   8.675  17.516  0.00  0.00    +0.000 S 
ATOM     25  C   UNL     1      49.881   8.644  18.533  0.00  0.00    +0.000 A 
ATOM     26  N   UNL     1      49.658   9.632  19.436  0.00  0.00    +0.000 NA
ATOM     27  C   UNL     1      48.563   9.507  20.106  0.00  0.00    +0.000 A 
ATOM     28  N   UNL     1      47.671   8.477  19.957  0.00  0.00    +0.000 N 
ATOM     29  C   UNL     1      47.898   7.412  19.116  0.00  0.00    +0.000 A 
ATOM     30  O   UNL     1      47.156   6.436  19.118  0.00  0.00    +0.000 OA
ATOM     31  C   UNL     1      49.091   7.534  18.299  0.00  0.00    +0.000 A 
ATOM     32  H   UNL     1      46.847   8.418  20.536  0.00  0.00    +0.000 HD
ENDBRANCH  19  22
ENDBRANCH   1  20
TORSDOF 7
ENDMDL
MODEL 7
REMARK VINA RESULT:    -7.192      3.333      7.836
REMARK INTER + INTRA:         -11.193
REMARK INTER:                 -10.035
REMARK INTRA:                  -1.158
REMARK UNBOUND:                -1.268
REMARK  Name = 
REMARK  7 active torsions:
REMARK  status: ('A' for Active; 'I' for Inactive)
REMARK    1  A    between atoms: C_2  and  C_20
REMARK    2  A    between atoms: N_3  and  C_4
REMARK    3  A    between atoms: C_4  and  C_5
REMARK    4  A    between atoms: C_8  and  C_9
REMARK    5  A    between atoms: C_9  and  C_10
REMARK    6  A    between atoms: C_10  and  O_11
REMARK    7  A    between atoms: C_10  and  C_12
REMARK                            x       y       z     vdW  Elec       q    Type
REMARK                         _______ _______ _______ _____ _____    ______ ____
ROOT
ATOM      1  C   UNL     1      47.940   8.138  12.327  0.00  0.00    +0.000 C 
ENDROOT
BRANCH   1   2
ATOM      2  C   UNL     1      48.298   7.876  13.759  0.00  0.00    +0.000 A 
ATOM      3  C   UNL     1      48.222   8.876  14.729  0.00  0.00    +0.000 A 
ATOM      4  C   UNL     1      48.558   8.584  16.047  0.00  0.00    +0.000 A 
ATOM      5  C   UNL     1      48.944   7.286  16.378  0.00  0.00    +0.000 A 
ATOM      6  N   UNL     1      49.016   6.296  15.458  0.00  0.00    +0.000 NA
ATOM      7  C   UNL     1      48.690   6.610  14.180  0.00  0.00    +0.000 A 
BRANCH   5   8
ATOM      8  C   UNL     1      49.253   6.927  17.812  0.00  0.00    +0.000 C 
BRANCH   8   9
ATOM      9  C   UNL     1      48.564   5.631  18.273  0.00  0.00    +0.000 C 
BRANCH   9  10
ATOM     10  C   UNL     1      49.327   4.356  17.933  0.00  0.00    +0.000 A 
ATOM     11  C   UNL     1      48.638   3.279  17.350  0.00  0.00    +0.000 A 
ATOM     12  C   UNL     1      49.313   2.123  16.950  0.00  0.00    +0.000 A 
ATOM     13  C   UNL     1      50.692   2.025  17.118  0.00  0.00    +0.000 A 
ATOM     14  C   UNL     1      51.393   3.082  17.692  0.00  0.00    +0.000 A 
ATOM     15  C   UNL     1      50.718   4.238  18.094  0.00  0.00    +0.000 A 
ENDBRANCH   9  10
BRANCH   9  16
ATOM     16  O   UNL     1      47.278   5.525  17.649  0.00  0.00    +0.000 OA
ATOM     17  H   UNL     1      46.609   5.621  18.346  0.00  0.00    +0.000 HD
ENDBRANCH   9  16
ENDBRANCH   8   9
ENDBRANCH   5   8
ENDBRANCH   1   2
BRANCH   1  20
ATOM     18  O   UNL     1      45.199   7.878  11.748  0.00  0.00    +0.000 OA
ATOM     19  C   UNL     1      45.960   6.964  11.435  0.00  0.00    +0.000 C 
ATOM     20  N   UNL     1      47.299   6.998  11.723  0.00  0.00    +0.000 N 
ATOM     21  H   UNL     1      47.913   6.312  11.298  0.00  0.00    +0.000 HD
BRANCH  19  22
ATOM     22  C   UNL     1      45.469   5.746  10.781  0.00  0.00    +0.000 A 
ATOM     23  C   UNL     1      45.760   5.512   9.444  0.00  0.00    +0.000 A 
ATOM     24  S   UNL     1      45.092   4.059   8.844  0.00  0.00    +0.000 S 
ATOM     25  C   UNL     1      44.430   3.668  10.366  0.00  0.00    +0.000 A 
ATOM     26  N   UNL     1      43.747   2.511  10.554  0.00  0.00    +0.000 NA
ATOM     27  C   UNL     1      43.342   2.320  11.765  0.00  0.00    +0.000 A 
ATOM     28  N   UNL     1      43.556   3.188  12.804  0.00  0.00    +0.000 N 
ATOM     29  C   UNL     1      44.169   4.408  12.640  0.00  0.00    +0.000 A 
ATOM     30  O   UNL     1      44.209   5.223  13.555  0.00  0.00    +0.000 OA
ATOM     31  C   UNL     1      44.691   4.646  11.307  0.00  0.00    +0.000 A 
ATOM     32  H   UNL     1      43.184   2.997  13.722  0.00  0.00    +0.000 HD
ENDBRANCH  19  22
ENDBRANCH   1  20
TORSDOF 7
ENDMDL
MODEL 8
REMARK VINA RESULT:    -6.932      3.239      8.344
REMARK INTER + INTRA:         -10.834
REMARK INTER:                  -9.190
REMARK INTRA:                  -1.644
REMARK UNBOUND:                -1.268
REMARK  Name = 
REMARK  7 active torsions:
REMARK  status: ('A' for Active; 'I' for Inactive)
REMARK    1  A    between atoms: C_2  and  C_20
REMARK    2  A    between atoms: N_3  and  C_4
REMARK    3  A    between atoms: C_4  and  C_5
REMARK    4  A    between atoms: C_8  and  C_9
REMARK    5  A    between atoms: C_9  and  C_10
REMARK    6  A    between atoms: C_10  and  O_11
REMARK    7  A    between atoms: C_10  and  C_12
REMARK                            x       y       z     vdW  Elec       q    Type
REMARK                         _______ _______ _______ _____ _____    ______ ____
ROOT
ATOM      1  C   UNL     1      47.377   7.839  11.856  0.00  0.00    +0.000 C 
ENDROOT
BRANCH   1   2
ATOM      2  C   UNL     1      48.020   7.897  13.209  0.00  0.00    +0.000 A 
ATOM      3  C   UNL     1      49.132   7.115  13.526  0.00  0.00    +0.000 A 
ATOM      4  C   UNL     1      49.699   7.206  14.793  0.00  0.00    +0.000 A 
ATOM      5  C   UNL     1      49.156   8.098  15.718  0.00  0.00    +0.000 A 
ATOM      6  N   UNL     1      48.085   8.874  15.431  0.00  0.00    +0.000 NA
ATOM      7  C   UNL     1      47.548   8.760  14.192  0.00  0.00    +0.000 A 
BRANCH   5   8
ATOM      8  C   UNL     1      49.791   8.263  17.078  0.00  0.00    +0.000 C 
BRANCH   8   9
ATOM      9  C   UNL     1      49.062   7.482  18.184  0.00  0.00    +0.000 C 
BRANCH   9  10
ATOM     10  C   UNL     1      49.144   5.967  18.044  0.00  0.00    +0.000 A 
ATOM     11  C   UNL     1      47.956   5.220  17.962  0.00  0.00    +0.000 A 
ATOM     12  C   UNL     1      47.985   3.839  17.753  0.00  0.00    +0.000 A 
ATOM     13  C   UNL     1      49.204   3.179  17.616  0.00  0.00    +0.000 A 
ATOM     14  C   UNL     1      50.392   3.900  17.693  0.00  0.00    +0.000 A 
ATOM     15  C   UNL     1      50.363   5.282  17.903  0.00  0.00    +0.000 A 
ENDBRANCH   9  10
BRANCH   9  16
ATOM     16  O   UNL     1      47.671   7.827  18.176  0.00  0.00    +0.000 OA
ATOM     17  H   UNL     1      47.465   8.181  17.296  0.00  0.00    +0.000 HD
ENDBRANCH   9  16
ENDBRANCH   8   9
ENDBRANCH   5   8
ENDBRANCH   1   2
BRANCH   1  20
ATOM     18  O   UNL     1      44.596   7.426  11.955  0.00  0.00    +0.000 OA
ATOM     19  C   UNL     1      45.326   6.479  11.672  0.00  0.00    +0.000 C 
ATOM     20  N   UNL     1      46.692   6.590  11.647  0.00  0.00    +0.000 N 
ATOM     21  H   UNL     1      47.241   5.839  11.244  0.00  0.00    +0.000 HD
BRANCH  19  22
ATOM     22  C   UNL     1      44.780   5.144  11.398  0.00  0.00    +0.000 A 
ATOM     23  C   UNL     1      44.013   4.498  12.357  0.00  0.00    +0.000 A 
ATOM     24  S   UNL     1      43.479   2.950  11.876  0.00  0.00    +0.000 S 
ATOM     25  C   UNL     1      44.216   3.108  10.347  0.00  0.00    +0.000 A 
ATOM     26  N   UNL     1      44.110   2.128   9.415  0.00  0.00    +0.000 NA
ATOM     27  C   UNL     1      44.675   2.398   8.286  0.00  0.00    +0.000 A 
ATOM     28  N   UNL     1      45.343   3.563   8.009  0.00  0.00    +0.000 N 
ATOM     29  C   UNL     1      45.546   4.546   8.950  0.00  0.00    +0.000 A 
ATOM     30  O   UNL     1      46.275   5.504   8.715  0.00  0.00    +0.000 OA
ATOM     31  C   UNL     1      44.882   4.313  10.219  0.00  0.00    +0.000 A 
ATOM     32  H   UNL     1      45.793   3.701   7.117  0.00  0.00    +0.000 HD
ENDBRANCH  19  22
ENDBRANCH   1  20
TORSDOF 7
ENDMDL
MODEL 9
REMARK VINA RESULT:    -6.785      3.132      4.583
REMARK INTER + INTRA:         -10.631
REMARK INTER:                  -9.486
REMARK INTRA:                  -1.145
REMARK UNBOUND:                -1.268
REMARK  Name = 
REMARK  7 active torsions:
REMARK  status: ('A' for Active; 'I' for Inactive)
REMARK    1  A    between atoms: C_2  and  C_20
REMARK    2  A    between atoms: N_3  and  C_4
REMARK    3  A    between atoms: C_4  and  C_5
REMARK    4  A    between atoms: C_8  and  C_9
REMARK    5  A    between atoms: C_9  and  C_10
REMARK    6  A    between atoms: C_10  and  O_11
REMARK    7  A    between atoms: C_10  and  C_12
REMARK                            x       y       z     vdW  Elec       q    Type
REMARK                         _______ _______ _______ _____ _____    ______ ____
ROOT
ATOM      1  C   UNL     1      47.835   6.427  14.418  0.00  0.00    +0.000 C 
ENDROOT
BRANCH   1   2
ATOM      2  C   UNL     1      47.001   5.969  13.260  0.00  0.00    +0.000 A 
ATOM      3  C   UNL     1      46.847   6.750  12.114  0.00  0.00    +0.000 A 
ATOM      4  C   UNL     1      46.068   6.281  11.060  0.00  0.00    +0.000 A 
ATOM      5  C   UNL     1      45.473   5.024  11.162  0.00  0.00    +0.000 A 
ATOM      6  N   UNL     1      45.616   4.244  12.259  0.00  0.00    +0.000 NA
ATOM      7  C   UNL     1      46.374   4.728  13.273  0.00  0.00    +0.000 A 
BRANCH   5   8
ATOM      8  C   UNL     1      44.676   4.464  10.009  0.00  0.00    +0.000 C 
BRANCH   8   9
ATOM      9  C   UNL     1      44.980   2.984   9.725  0.00  0.00    +0.000 C 
BRANCH   9  10
ATOM     10  C   UNL     1      45.818   2.740   8.476  0.00  0.00    +0.000 A 
ATOM     11  C   UNL     1      46.313   1.450   8.222  0.00  0.00    +0.000 A 
ATOM     12  C   UNL     1      47.018   1.166   7.049  0.00  0.00    +0.000 A 
ATOM     13  C   UNL     1      47.234   2.166   6.104  0.00  0.00    +0.000 A 
ATOM     14  C   UNL     1      46.751   3.450   6.336  0.00  0.00    +0.000 A 
ATOM     15  C   UNL     1      46.047   3.735   7.510  0.00  0.00    +0.000 A 
ENDBRANCH   9  10
BRANCH   9  16
ATOM     16  O   UNL     1      43.750   2.268   9.547  0.00  0.00    +0.000 OA
ATOM     17  H   UNL     1      43.574   1.784  10.370  0.00  0.00    +0.000 HD
ENDBRANCH   9  16
ENDBRANCH   8   9
ENDBRANCH   5   8
ENDBRANCH   1   2
BRANCH   1  20
ATOM     18  O   UNL     1      48.594   9.133  14.547  0.00  0.00    +0.000 OA
ATOM     19  C   UNL     1      49.400   8.311  14.115  0.00  0.00    +0.000 C 
ATOM     20  N   UNL     1      49.090   6.984  13.981  0.00  0.00    +0.000 N 
ATOM     21  H   UNL     1      49.832   6.320  13.788  0.00  0.00    +0.000 HD
BRANCH  19  22
ATOM     22  C   UNL     1      50.737   8.713  13.660  0.00  0.00    +0.000 A 
ATOM     23  C   UNL     1      51.586   9.395  14.520  0.00  0.00    +0.000 A 
ATOM     24  S   UNL     1      53.089   9.799  13.817  0.00  0.00    +0.000 S 
ATOM     25  C   UNL     1      52.674   9.034  12.351  0.00  0.00    +0.000 A 
ATOM     26  N   UNL     1      53.549   8.985  11.315  0.00  0.00    +0.000 NA
ATOM     27  C   UNL     1      53.124   8.335  10.285  0.00  0.00    +0.000 A 
ATOM     28  N   UNL     1      51.895   7.733  10.197  0.00  0.00    +0.000 N 
ATOM     29  C   UNL     1      50.946   7.830  11.187  0.00  0.00    +0.000 A 
ATOM     30  O   UNL     1      49.807   7.410  11.015  0.00  0.00    +0.000 OA
ATOM     31  C   UNL     1      51.397   8.504  12.390  0.00  0.00    +0.000 A 
ATOM     32  H   UNL     1      51.607   7.268   9.349  0.00  0.00    +0.000 HD
ENDBRANCH  19  22
ENDBRANCH   1  20
TORSDOF 7
ENDMDL
