MODEL 1
REMARK VINA RESULT:    -8.358      0.000      0.000
REMARK INTER + INTRA:         -10.516
REMARK INTER:                 -10.068
REMARK INTRA:                  -0.448
REMARK UNBOUND:                -0.448
REMARK  Name = 
REMARK  4 active torsions:
REMARK  status: ('A' for Active; 'I' for Inactive)
REMARK    1  A    between atoms: O_1  and  C_2
REMARK    2  A    between atoms: C_9  and  C_10
REMARK    3  A    between atoms: C_10  and  N_11
REMARK    4  A    between atoms: C_16  and  C_17
REMARK                            x       y       z     vdW  Elec       q    Type
REMARK                         _______ _______ _______ _____ _____    ______ ____
ROOT
ATOM      1  C   UNL     1      47.902   9.389  13.659  0.00  0.00    +0.000 C 
ATOM      2  C   UNL     1      49.399   9.214  13.901  0.00  0.00    +0.000 C 
ATOM      3  C   UNL     1      49.787   7.738  13.869  0.00  0.00    +0.000 C 
ATOM      4  C   UNL     1      49.377   7.090  12.551  0.00  0.00    +0.000 C 
ATOM      5  N   UNL     1      47.976   7.329  12.212  0.00  0.00    +0.000 N 
ATOM      6  C   UNL     1      47.066   6.295  12.423  0.00  0.00    +0.000 A 
ATOM      7  C   UNL     1      45.897   6.251  11.653  0.00  0.00    +0.000 A 
ATOM      8  C   UNL     1      44.987   5.197  11.786  0.00  0.00    +0.000 A 
ATOM      9  C   UNL     1      45.256   4.220  12.740  0.00  0.00    +0.000 A 
ATOM     10  C   UNL     1      46.440   4.315  13.453  0.00  0.00    +0.000 A 
ATOM     11  N   UNL     1      47.349   5.304  13.294  0.00  0.00    +0.000 NA
ATOM     12  C   UNL     1      47.462   8.705  12.350  0.00  0.00    +0.000 C 
ENDROOT
BRANCH   1  13
ATOM     13  O   UNL     1      47.152   8.886  14.766  0.00  0.00    +0.000 OA
ATOM     14  H   UNL     1      47.320   7.931  14.837  0.00  0.00    +0.000 HD
ENDBRANCH   1  13
BRANCH   8  15
ATOM     15  C   UNL     1      43.759   5.124  10.915  0.00  0.00    +0.000 C 
BRANCH  15  16
ATOM     16  N   UNL     1      44.141   4.978   9.527  0.00  0.00    +0.000 N 
ATOM     17  C   UNL     1      44.761   3.819   9.099  0.00  0.00    +0.000 A 
ATOM     18  C   UNL     1      44.488   2.545   9.596  0.00  0.00    +0.000 A 
ATOM     19  N   UNL     1      45.059   1.407   9.124  0.00  0.00    +0.000 NA
ATOM     20  C   UNL     1      45.907   1.579   8.091  0.00  0.00    +0.000 A 
ATOM     21  C   UNL     1      46.197   2.826   7.557  0.00  0.00    +0.000 A 
ATOM     22  N   UNL     1      45.627   3.962   8.073  0.00  0.00    +0.000 NA
ATOM     23  H   UNL     1      44.614   5.779   9.115  0.00  0.00    +0.000 HD
BRANCH  21  24
ATOM     24  C   UNL     1      47.131   2.915   6.371  0.00  0.00    +0.000 C 
ATOM     25  F   UNL     1      46.990   1.875   5.495  0.00  0.00    +0.000 F 
ATOM     26  F   UNL     1      46.945   4.039   5.623  0.00  0.00    +0.000 F 
ATOM     27  F   UNL     1      48.448   2.909   6.722  0.00  0.00    +0.000 F 
ENDBRANCH  21  24
ENDBRANCH  15  16
ENDBRANCH   8  15
TORSDOF 4
ENDMDL
MODEL 2
REMARK VINA RESULT:    -7.804      2.591      3.506
REMARK INTER + INTRA:          -9.850
REMARK INTER:                  -9.377
REMARK INTRA:                  -0.472
REMARK UNBOUND:                -0.448
REMARK  Name = 
REMARK  4 active torsions:
REMARK  status: ('A' for Active; 'I' for Inactive)
REMARK    1  A    between atoms: O_1  and  C_2
REMARK    2  A    between atoms: C_9  and  C_10
REMARK    3  A    between atoms: C_10  and  N_11
REMARK    4  A    between atoms: C_16  and  C_17
REMARK                            x       y       z     vdW  Elec       q    Type
REMARK                         _______ _______ _______ _____ _____    ______ ____
ROOT
ATOM      1  C   UNL     1      48.212   2.776  16.686  0.00  0.00    +0.000 C 
ATOM      2  C   UNL     1      49.198   3.368  17.690  0.00  0.00    +0.000 C 
ATOM      3  C   UNL     1      49.719   4.719  17.207  0.00  0.00    +0.000 C 
ATOM      4  C   UNL     1      48.574   5.690  16.945  0.00  0.00    +0.000 C 
ATOM      5  N   UNL     1      47.538   5.126  16.081  0.00  0.00    +0.000 N 
ATOM      6  C   UNL     1      47.513   5.523  14.745  0.00  0.00    +0.000 A 
ATOM      7  C   UNL     1      46.302   5.472  14.045  0.00  0.00    +0.000 A 
ATOM      8  C   UNL     1      46.216   5.920  12.722  0.00  0.00    +0.000 A 
ATOM      9  C   UNL     1      47.381   6.374  12.111  0.00  0.00    +0.000 A 
ATOM     10  C   UNL     1      48.541   6.416  12.869  0.00  0.00    +0.000 A 
ATOM     11  N   UNL     1      48.619   6.031  14.164  0.00  0.00    +0.000 NA
ATOM     12  C   UNL     1      47.067   3.760  16.378  0.00  0.00    +0.000 C 
ENDROOT
BRANCH   1  13
ATOM     13  O   UNL     1      48.884   2.395  15.485  0.00  0.00    +0.000 OA
ATOM     14  H   UNL     1      48.660   1.469  15.293  0.00  0.00    +0.000 HD
ENDBRANCH   1  13
BRANCH   8  15
ATOM     15  C   UNL     1      44.898   5.916  11.991  0.00  0.00    +0.000 C 
BRANCH  15  16
ATOM     16  N   UNL     1      45.116   5.716  10.574  0.00  0.00    +0.000 N 
ATOM     17  C   UNL     1      45.048   4.444  10.037  0.00  0.00    +0.000 A 
ATOM     18  C   UNL     1      44.178   3.445  10.475  0.00  0.00    +0.000 A 
ATOM     19  N   UNL     1      44.077   2.220   9.899  0.00  0.00    +0.000 NA
ATOM     20  C   UNL     1      44.866   2.027   8.824  0.00  0.00    +0.000 A 
ATOM     21  C   UNL     1      45.736   2.996   8.347  0.00  0.00    +0.000 A 
ATOM     22  N   UNL     1      45.838   4.217   8.967  0.00  0.00    +0.000 NA
ATOM     23  H   UNL     1      45.919   6.200  10.180  0.00  0.00    +0.000 HD
BRANCH  21  24
ATOM     24  C   UNL     1      46.554   2.702   7.109  0.00  0.00    +0.000 C 
ATOM     25  F   UNL     1      46.661   1.366   6.840  0.00  0.00    +0.000 F 
ATOM     26  F   UNL     1      46.032   3.253   5.977  0.00  0.00    +0.000 F 
ATOM     27  F   UNL     1      47.838   3.153   7.193  0.00  0.00    +0.000 F 
ENDBRANCH  21  24
ENDBRANCH  15  16
ENDBRANCH   8  15
TORSDOF 4
ENDMDL
MODEL 3
REMARK VINA RESULT:    -7.323      1.444      2.334
REMARK INTER + INTRA:          -9.270
REMARK INTER:                  -8.851
REMARK INTRA:                  -0.419
REMARK UNBOUND:                -0.448
REMARK  Name = 
REMARK  4 active torsions:
REMARK  status: ('A' for Active; 'I' for Inactive)
REMARK    1  A    between atoms: O_1  and  C_2
REMARK    2  A    between atoms: C_9  and  C_10
REMARK    3  A    between atoms: C_10  and  N_11
REMARK    4  A    between atoms: C_16  and  C_17
REMARK                            x       y       z     vdW  Elec       q    Type
REMARK                         _______ _______ _______ _____ _____    ______ ____
ROOT
ATOM      1  C   UNL     1      50.117   7.830  12.637  0.00  0.00    +0.000 C 
ATOM      2  C   UNL     1      50.524   8.824  13.722  0.00  0.00    +0.000 C 
ATOM      3  C   UNL     1      49.329   9.662  14.167  0.00  0.00    +0.000 C 
ATOM      4  C   UNL     1      48.185   8.779  14.651  0.00  0.00    +0.000 C 
ATOM      5  N   UNL     1      47.834   7.730  13.696  0.00  0.00    +0.000 N 
ATOM      6  C   UNL     1      46.693   7.913  12.915  0.00  0.00    +0.000 A 
ATOM      7  C   UNL     1      46.022   6.787  12.420  0.00  0.00    +0.000 A 
ATOM      8  C   UNL     1      44.839   6.920  11.686  0.00  0.00    +0.000 A 
ATOM      9  C   UNL     1      44.376   8.206  11.424  0.00  0.00    +0.000 A 
ATOM     10  C   UNL     1      45.078   9.273  11.960  0.00  0.00    +0.000 A 
ATOM     11  N   UNL     1      46.195   9.150  12.713  0.00  0.00    +0.000 NA
ATOM     12  C   UNL     1      48.934   6.954  13.094  0.00  0.00    +0.000 C 
ENDROOT
BRANCH   1  13
ATOM     13  O   UNL     1      49.797   8.513  11.424  0.00  0.00    +0.000 OA
ATOM     14  H   UNL     1      50.597   8.544  10.873  0.00  0.00    +0.000 HD
ENDBRANCH   1  13
BRANCH   8  15
ATOM     15  C   UNL     1      44.090   5.704  11.204  0.00  0.00    +0.000 C 
BRANCH  15  16
ATOM     16  N   UNL     1      44.383   5.460   9.808  0.00  0.00    +0.000 N 
ATOM     17  C   UNL     1      44.815   4.213   9.400  0.00  0.00    +0.000 A 
ATOM     18  C   UNL     1      44.392   3.006   9.958  0.00  0.00    +0.000 A 
ATOM     19  N   UNL     1      44.777   1.784   9.508  0.00  0.00    +0.000 NA
ATOM     20  C   UNL     1      45.591   1.801   8.433  0.00  0.00    +0.000 A 
ATOM     21  C   UNL     1      46.026   2.977   7.839  0.00  0.00    +0.000 A 
ATOM     22  N   UNL     1      45.643   4.199   8.334  0.00  0.00    +0.000 NA
ATOM     23  H   UNL     1      44.942   6.173   9.345  0.00  0.00    +0.000 HD
BRANCH  21  24
ATOM     24  C   UNL     1      46.906   2.895   6.613  0.00  0.00    +0.000 C 
ATOM     25  F   UNL     1      46.745   3.955   5.763  0.00  0.00    +0.000 F 
ATOM     26  F   UNL     1      48.237   2.873   6.906  0.00  0.00    +0.000 F 
ATOM     27  F   UNL     1      46.668   1.789   5.852  0.00  0.00    +0.000 F 
ENDBRANCH  21  24
ENDBRANCH  15  16
ENDBRANCH   8  15
TORSDOF 4
ENDMDL
MODEL 4
REMARK VINA RESULT:    -7.125      4.988      8.236
REMARK INTER + INTRA:          -9.032
REMARK INTER:                  -8.538
REMARK INTRA:                  -0.494
REMARK UNBOUND:                -0.448
REMARK  Name = 
REMARK  4 active torsions:
REMARK  status: ('A' for Active; 'I' for Inactive)
REMARK    1  A    between atoms: O_1  and  C_2
REMARK    2  A    between atoms: C_9  and  C_10
REMARK    3  A    between atoms: C_10  and  N_11
REMARK    4  A    between atoms: C_16  and  C_17
REMARK                            x       y       z     vdW  Elec       q    Type
REMARK                         _______ _______ _______ _____ _____    ______ ____
ROOT
ATOM      1  C   UNL     1      43.520   4.336  12.958  0.00  0.00    +0.000 C 
ATOM      2  C   UNL     1      43.045   3.985  11.550  0.00  0.00    +0.000 C 
ATOM      3  C   UNL     1      43.514   5.030  10.542  0.00  0.00    +0.000 C 
ATOM      4  C   UNL     1      45.031   5.184  10.573  0.00  0.00    +0.000 C 
ATOM      5  N   UNL     1      45.551   5.405  11.921  0.00  0.00    +0.000 N 
ATOM      6  C   UNL     1      45.916   6.702  12.277  0.00  0.00    +0.000 A 
ATOM      7  C   UNL     1      46.881   6.886  13.276  0.00  0.00    +0.000 A 
ATOM      8  C   UNL     1      47.324   8.168  13.621  0.00  0.00    +0.000 A 
ATOM      9  C   UNL     1      46.742   9.254  12.974  0.00  0.00    +0.000 A 
ATOM     10  C   UNL     1      45.809   8.999  11.983  0.00  0.00    +0.000 A 
ATOM     11  N   UNL     1      45.413   7.760  11.609  0.00  0.00    +0.000 NA
ATOM     12  C   UNL     1      45.047   4.536  13.001  0.00  0.00    +0.000 C 
ENDROOT
BRANCH   1  13
ATOM     13  O   UNL     1      42.847   5.501  13.439  0.00  0.00    +0.000 OA
ATOM     14  H   UNL     1      43.463   6.251  13.386  0.00  0.00    +0.000 HD
ENDBRANCH   1  13
BRANCH   8  15
ATOM     15  C   UNL     1      48.402   8.357  14.656  0.00  0.00    +0.000 C 
BRANCH  15  16
ATOM     16  N   UNL     1      48.099   7.581  15.840  0.00  0.00    +0.000 N 
ATOM     17  C   UNL     1      48.989   6.622  16.284  0.00  0.00    +0.000 A 
ATOM     18  C   UNL     1      50.377   6.728  16.196  0.00  0.00    +0.000 A 
ATOM     19  N   UNL     1      51.243   5.807  16.692  0.00  0.00    +0.000 NA
ATOM     20  C   UNL     1      50.668   4.767  17.327  0.00  0.00    +0.000 A 
ATOM     21  C   UNL     1      49.293   4.628  17.450  0.00  0.00    +0.000 A 
ATOM     22  N   UNL     1      48.441   5.560  16.913  0.00  0.00    +0.000 NA
ATOM     23  H   UNL     1      47.154   7.206  15.888  0.00  0.00    +0.000 HD
BRANCH  21  24
ATOM     24  C   UNL     1      48.742   3.446  18.215  0.00  0.00    +0.000 C 
ATOM     25  F   UNL     1      47.469   3.110  17.843  0.00  0.00    +0.000 F 
ATOM     26  F   UNL     1      49.474   2.308  18.048  0.00  0.00    +0.000 F 
ATOM     27  F   UNL     1      48.676   3.659  19.560  0.00  0.00    +0.000 F 
ENDBRANCH  21  24
ENDBRANCH  15  16
ENDBRANCH   8  15
TORSDOF 4
ENDMDL
MODEL 5
REMARK VINA RESULT:    -6.539      2.798      3.937
REMARK INTER + INTRA:          -8.325
REMARK INTER:                  -7.905
REMARK INTRA:                  -0.421
REMARK UNBOUND:                -0.448
REMARK  Name = 
REMARK  4 active torsions:
REMARK  status: ('A' for Active; 'I' for Inactive)
REMARK    1  A    between atoms: O_1  and  C_2
REMARK    2  A    between atoms: C_9  and  C_10
REMARK    3  A    between atoms: C_10  and  N_11
REMARK    4  A    between atoms: C_16  and  C_17
REMARK                            x       y       z     vdW  Elec       q    Type
REMARK                         _______ _______ _______ _____ _____    ______ ____
ROOT
ATOM      1  C   UNL     1      49.594   5.820  17.512  0.00  0.00    +0.000 C 
ATOM      2  C   UNL     1      50.977   6.400  17.797  0.00  0.00    +0.000 C 
ATOM      3  C   UNL     1      51.542   7.091  16.559  0.00  0.00    +0.000 C 
ATOM      4  C   UNL     1      50.598   8.176  16.053  0.00  0.00    +0.000 C 
ATOM      5  N   UNL     1      49.227   7.699  15.877  0.00  0.00    +0.000 N 
ATOM      6  C   UNL     1      48.792   7.423  14.582  0.00  0.00    +0.000 A 
ATOM      7  C   UNL     1      47.424   7.502  14.294  0.00  0.00    +0.000 A 
ATOM      8  C   UNL     1      46.949   7.295  12.994  0.00  0.00    +0.000 A 
ATOM      9  C   UNL     1      47.873   6.964  12.008  0.00  0.00    +0.000 A 
ATOM     10  C   UNL     1      49.213   6.923  12.358  0.00  0.00    +0.000 A 
ATOM     11  N   UNL     1      49.684   7.171  13.602  0.00  0.00    +0.000 NA
ATOM     12  C   UNL     1      48.636   6.894  16.963  0.00  0.00    +0.000 C 
ENDROOT
BRANCH   1  13
ATOM     13  O   UNL     1      49.688   4.719  16.606  0.00  0.00    +0.000 OA
ATOM     14  H   UNL     1      49.135   3.997  16.949  0.00  0.00    +0.000 HD
ENDBRANCH   1  13
BRANCH   8  15
ATOM     15  C   UNL     1      45.482   7.436  12.678  0.00  0.00    +0.000 C 
BRANCH  15  16
ATOM     16  N   UNL     1      45.173   6.758  11.438  0.00  0.00    +0.000 N 
ATOM     17  C   UNL     1      44.689   5.464  11.459  0.00  0.00    +0.000 A 
ATOM     18  C   UNL     1      43.841   4.952  12.441  0.00  0.00    +0.000 A 
ATOM     19  N   UNL     1      43.322   3.697  12.419  0.00  0.00    +0.000 NA
ATOM     20  C   UNL     1      43.656   2.960  11.340  0.00  0.00    +0.000 A 
ATOM     21  C   UNL     1      44.486   3.434  10.335  0.00  0.00    +0.000 A 
ATOM     22  N   UNL     1      45.019   4.697  10.398  0.00  0.00    +0.000 NA
ATOM     23  H   UNL     1      45.876   6.838  10.706  0.00  0.00    +0.000 HD
BRANCH  21  24
ATOM     24  C   UNL     1      44.772   2.548   9.143  0.00  0.00    +0.000 C 
ATOM     25  F   UNL     1      46.097   2.239   9.008  0.00  0.00    +0.000 F 
ATOM     26  F   UNL     1      44.130   1.346   9.200  0.00  0.00    +0.000 F 
ATOM     27  F   UNL     1      44.414   3.112   7.955  0.00  0.00    +0.000 F 
ENDBRANCH  21  24
ENDBRANCH  15  16
ENDBRANCH   8  15
TORSDOF 4
ENDMDL
MODEL 6
REMARK VINA RESULT:    -6.435      3.811      5.762
REMARK INTER + INTRA:          -8.200
REMARK INTER:                  -7.688
REMARK INTRA:                  -0.512
REMARK UNBOUND:                -0.448
REMARK  Name = 
REMARK  4 active torsions:
REMARK  status: ('A' for Active; 'I' for Inactive)
REMARK    1  A    between atoms: O_1  and  C_2
REMARK    2  A    between atoms: C_9  and  C_10
REMARK    3  A    between atoms: C_10  and  N_11
REMARK    4  A    between atoms: C_16  and  C_17
REMARK                            x       y       z     vdW  Elec       q    Type
REMARK                         _______ _______ _______ _____ _____    ______ ____
ROOT
ATOM      1  C   UNL     1      48.083   2.889  16.955  0.00  0.00    +0.000 C 
ATOM      2  C   UNL     1      48.279   2.951  18.467  0.00  0.00    +0.000 C 
ATOM      3  C   UNL     1      49.026   4.220  18.867  0.00  0.00    +0.000 C 
ATOM      4  C   UNL     1      48.302   5.466  18.368  0.00  0.00    +0.000 C 
ATOM      5  N   UNL     1      47.983   5.405  16.943  0.00  0.00    +0.000 N 
ATOM      6  C   UNL     1      48.783   6.132  16.062  0.00  0.00    +0.000 A 
ATOM      7  C   UNL     1      48.240   6.550  14.841  0.00  0.00    +0.000 A 
ATOM      8  C   UNL     1      48.985   7.335  13.954  0.00  0.00    +0.000 A 
ATOM      9  C   UNL     1      50.296   7.647  14.303  0.00  0.00    +0.000 A 
ATOM     10  C   UNL     1      50.762   7.218  15.535  0.00  0.00    +0.000 A 
ATOM     11  N   UNL     1      50.030   6.501  16.420  0.00  0.00    +0.000 NA
ATOM     12  C   UNL     1      47.387   4.158  16.427  0.00  0.00    +0.000 C 
ENDROOT
BRANCH   1  13
ATOM     13  O   UNL     1      49.333   2.688  16.293  0.00  0.00    +0.000 OA
ATOM     14  H   UNL     1      49.578   3.518  15.850  0.00  0.00    +0.000 HD
ENDBRANCH   1  13
BRANCH   8  15
ATOM     15  C   UNL     1      48.378   7.829  12.666  0.00  0.00    +0.000 C 
BRANCH  15  16
ATOM     16  N   UNL     1      47.825   6.721  11.918  0.00  0.00    +0.000 N 
ATOM     17  C   UNL     1      46.455   6.598  11.776  0.00  0.00    +0.000 A 
ATOM     18  C   UNL     1      45.573   7.672  11.652  0.00  0.00    +0.000 A 
ATOM     19  N   UNL     1      44.237   7.538  11.450  0.00  0.00    +0.000 NA
ATOM     20  C   UNL     1      43.801   6.267  11.338  0.00  0.00    +0.000 A 
ATOM     21  C   UNL     1      44.645   5.171  11.442  0.00  0.00    +0.000 A 
ATOM     22  N   UNL     1      45.987   5.336  11.675  0.00  0.00    +0.000 NA
ATOM     23  H   UNL     1      48.220   5.807  12.130  0.00  0.00    +0.000 HD
BRANCH  21  24
ATOM     24  C   UNL     1      44.069   3.784  11.263  0.00  0.00    +0.000 C 
ATOM     25  F   UNL     1      42.721   3.729  11.480  0.00  0.00    +0.000 F 
ATOM     26  F   UNL     1      44.249   3.286  10.007  0.00  0.00    +0.000 F 
ATOM     27  F   UNL     1      44.606   2.865  12.114  0.00  0.00    +0.000 F 
ENDBRANCH  21  24
ENDBRANCH  15  16
ENDBRANCH   8  15
TORSDOF 4
ENDMDL
MODEL 7
REMARK VINA RESULT:    -6.264      4.671      6.449
REMARK INTER + INTRA:          -7.994
REMARK INTER:                  -7.618
REMARK INTRA:                  -0.376
REMARK UNBOUND:                -0.448
REMARK  Name = 
REMARK  4 active torsions:
REMARK  status: ('A' for Active; 'I' for Inactive)
REMARK    1  A    between atoms: O_1  and  C_2
REMARK    2  A    between atoms: C_9  and  C_10
REMARK    3  A    between atoms: C_10  and  N_11
REMARK    4  A    between atoms: C_16  and  C_17
REMARK                            x       y       z     vdW  Elec       q    Type
REMARK                         _______ _______ _______ _____ _____    ______ ____
ROOT
ATOM      1  C   UNL     1      48.643   3.967  19.358  0.00  0.00    +0.000 C 
ATOM      2  C   UNL     1      48.761   4.614  20.736  0.00  0.00    +0.000 C 
ATOM      3  C   UNL     1      49.367   6.010  20.630  0.00  0.00    +0.000 C 
ATOM      4  C   UNL     1      48.554   6.894  19.690  0.00  0.00    +0.000 C 
ATOM      5  N   UNL     1      48.310   6.268  18.392  0.00  0.00    +0.000 N 
ATOM      6  C   UNL     1      49.079   6.689  17.308  0.00  0.00    +0.000 A 
ATOM      7  C   UNL     1      48.558   6.557  16.015  0.00  0.00    +0.000 A 
ATOM      8  C   UNL     1      49.268   7.023  14.902  0.00  0.00    +0.000 A 
ATOM      9  C   UNL     1      50.525   7.579  15.118  0.00  0.00    +0.000 A 
ATOM     10  C   UNL     1      50.971   7.696  16.425  0.00  0.00    +0.000 A 
ATOM     11  N   UNL     1      50.268   7.293  17.509  0.00  0.00    +0.000 NA
ATOM     12  C   UNL     1      47.858   4.864  18.382  0.00  0.00    +0.000 C 
ENDROOT
BRANCH   1  13
ATOM     13  O   UNL     1      49.936   3.663  18.832  0.00  0.00    +0.000 OA
ATOM     14  H   UNL     1      50.236   4.424  18.307  0.00  0.00    +0.000 HD
ENDBRANCH   1  13
BRANCH   8  15
ATOM     15  C   UNL     1      48.679   6.931  13.518  0.00  0.00    +0.000 C 
BRANCH  15  16
ATOM     16  N   UNL     1      47.233   6.910  13.593  0.00  0.00    +0.000 N 
ATOM     17  C   UNL     1      46.540   5.764  13.252  0.00  0.00    +0.000 A 
ATOM     18  C   UNL     1      46.991   4.466  13.488  0.00  0.00    +0.000 A 
ATOM     19  N   UNL     1      46.274   3.348  13.206  0.00  0.00    +0.000 NA
ATOM     20  C   UNL     1      45.045   3.572  12.699  0.00  0.00    +0.000 A 
ATOM     21  C   UNL     1      44.551   4.846  12.460  0.00  0.00    +0.000 A 
ATOM     22  N   UNL     1      45.310   5.957  12.729  0.00  0.00    +0.000 NA
ATOM     23  H   UNL     1      46.761   7.717  13.189  0.00  0.00    +0.000 HD
BRANCH  21  24
ATOM     24  C   UNL     1      43.144   4.998  11.927  0.00  0.00    +0.000 C 
ATOM     25  F   UNL     1      43.040   5.947  10.948  0.00  0.00    +0.000 F 
ATOM     26  F   UNL     1      42.654   3.854  11.369  0.00  0.00    +0.000 F 
ATOM     27  F   UNL     1      42.244   5.369  12.881  0.00  0.00    +0.000 F 
ENDBRANCH  21  24
ENDBRANCH  15  16
ENDBRANCH   8  15
TORSDOF 4
ENDMDL
MODEL 8
REMARK VINA RESULT:    -5.807      4.488      6.300
REMARK INTER + INTRA:          -7.443
REMARK INTER:                  -7.098
REMARK INTRA:                  -0.345
REMARK UNBOUND:                -0.448
REMARK  Name = 
REMARK  4 active torsions:
REMARK  status: ('A' for Active; 'I' for Inactive)
REMARK    1  A    between atoms: O_1  and  C_2
REMARK    2  A    between atoms: C_9  and  C_10
REMARK    3  A    between atoms: C_10  and  N_11
REMARK    4  A    between atoms: C_16  and  C_17
REMARK                            x       y       z     vdW  Elec       q    Type
REMARK                         _______ _______ _______ _____ _____    ______ ____
ROOT
ATOM      1  C   UNL     1      50.285   4.045  18.185  0.00  0.00    +0.000 C 
ATOM      2  C   UNL     1      51.229   4.407  19.329  0.00  0.00    +0.000 C 
ATOM      3  C   UNL     1      51.949   5.722  19.043  0.00  0.00    +0.000 C 
ATOM      4  C   UNL     1      50.957   6.851  18.789  0.00  0.00    +0.000 C 
ATOM      5  N   UNL     1      49.954   6.509  17.782  0.00  0.00    +0.000 N 
ATOM      6  C   UNL     1      50.109   7.033  16.500  0.00  0.00    +0.000 A 
ATOM      7  C   UNL     1      48.976   7.204  15.695  0.00  0.00    +0.000 A 
ATOM      8  C   UNL     1      49.075   7.785  14.426  0.00  0.00    +0.000 A 
ATOM      9  C   UNL     1      50.341   8.145  13.972  0.00  0.00    +0.000 A 
ATOM     10  C   UNL     1      51.415   7.966  14.827  0.00  0.00    +0.000 A 
ATOM     11  N   UNL     1      51.319   7.451  16.075  0.00  0.00    +0.000 NA
ATOM     12  C   UNL     1      49.299   5.191  17.887  0.00  0.00    +0.000 C 
ENDROOT
BRANCH   1  13
ATOM     13  O   UNL     1      51.025   3.700  17.013  0.00  0.00    +0.000 OA
ATOM     14  H   UNL     1      50.486   3.087  16.485  0.00  0.00    +0.000 HD
ENDBRANCH   1  13
BRANCH   8  15
ATOM     15  C   UNL     1      47.846   8.019  13.587  0.00  0.00    +0.000 C 
BRANCH  15  16
ATOM     16  N   UNL     1      46.903   6.936  13.772  0.00  0.00    +0.000 N 
ATOM     17  C   UNL     1      46.177   6.460  12.697  0.00  0.00    +0.000 A 
ATOM     18  C   UNL     1      46.657   6.381  11.389  0.00  0.00    +0.000 A 
ATOM     19  N   UNL     1      45.955   5.854  10.353  0.00  0.00    +0.000 NA
ATOM     20  C   UNL     1      44.742   5.364  10.675  0.00  0.00    +0.000 A 
ATOM     21  C   UNL     1      44.231   5.411  11.964  0.00  0.00    +0.000 A 
ATOM     22  N   UNL     1      44.951   5.975  12.987  0.00  0.00    +0.000 NA
ATOM     23  H   UNL     1      46.288   7.023  14.577  0.00  0.00    +0.000 HD
BRANCH  21  24
ATOM     24  C   UNL     1      42.875   4.799  12.236  0.00  0.00    +0.000 C 
ATOM     25  F   UNL     1      42.621   4.624  13.569  0.00  0.00    +0.000 F 
ATOM     26  F   UNL     1      41.840   5.557  11.773  0.00  0.00    +0.000 F 
ATOM     27  F   UNL     1      42.719   3.565  11.678  0.00  0.00    +0.000 F 
ENDBRANCH  21  24
ENDBRANCH  15  16
ENDBRANCH   8  15
TORSDOF 4
ENDMDL
