MODEL 1
REMARK VINA RESULT:    -8.667      0.000      0.000
REMARK INTER + INTRA:         -13.421
REMARK INTER:                 -12.214
REMARK INTRA:                  -1.206
REMARK UNBOUND:                -1.206
REMARK  Name = 
REMARK  8 active torsions:
REMARK  status: ('A' for Active; 'I' for Inactive)
REMARK    1  A    between atoms: C_1  and  C_2
REMARK    2  A    between atoms: C_2  and  N_3
REMARK    3  A    between atoms: C_2  and  C_25
REMARK    4  A    between atoms: N_3  and  C_4
REMARK    5  A    between atoms: C_4  and  C_5
REMARK    6  A    between atoms: C_8  and  C_9
REMARK    7  A    between atoms: C_9  and  N_10
REMARK    8  A    between atoms: C_11  and  C_13
REMARK                            x       y       z     vdW  Elec       q    Type
REMARK                         _______ _______ _______ _____ _____    ______ ____
ROOT
ATOM      1  C   UNL     1      44.576   5.532  10.995  0.00  0.00    +0.000 A 
ATOM      2  C   UNL     1      45.857   5.848  10.535  0.00  0.00    +0.000 A 
ATOM      3  C   UNL     1      46.689   6.658  11.304  0.00  0.00    +0.000 A 
ATOM      4  C   UNL     1      46.224   7.133  12.529  0.00  0.00    +0.000 A 
ATOM      5  N   UNL     1      44.975   6.861  12.984  0.00  0.00    +0.000 NA
ATOM      6  C   UNL     1      44.188   6.073  12.214  0.00  0.00    +0.000 A 
ENDROOT
BRANCH   1   7
ATOM      7  C   UNL     1      43.621   4.718  10.164  0.00  0.00    +0.000 C 
BRANCH   7   8
ATOM      8  N   UNL     1      44.247   4.200   8.944  0.00  0.00    +0.000 NA
ATOM      9  H   UNL     1      44.871   4.915   8.567  0.00  0.00    +0.000 HD
BRANCH   8  11
ATOM     10  C   UNL     1      44.145   1.754   9.437  0.00  0.00    +0.000 C 
ATOM     11  C   UNL     1      45.036   2.978   9.175  0.00  0.00    +0.000 C 
BRANCH  11  12
ATOM     12  C   UNL     1      45.962   2.708   7.989  0.00  0.00    +0.000 A 
ATOM     13  C   UNL     1      46.624   1.475   7.866  0.00  0.00    +0.000 A 
ATOM     14  C   UNL     1      47.446   1.210   6.763  0.00  0.00    +0.000 A 
ATOM     15  C   UNL     1      47.619   2.171   5.770  0.00  0.00    +0.000 A 
ATOM     16  C   UNL     1      46.978   3.402   5.882  0.00  0.00    +0.000 A 
ATOM     17  C   UNL     1      46.161   3.670   6.985  0.00  0.00    +0.000 A 
ENDBRANCH  11  12
ENDBRANCH   8  11
ENDBRANCH   7   8
ENDBRANCH   1   7
BRANCH   4  18
ATOM     18  C   UNL     1      47.090   8.038  13.375  0.00  0.00    +0.000 C 
BRANCH  18  19
ATOM     19  N   UNL     1      47.521   7.365  14.579  0.00  0.00    +0.000 N 
ATOM     20  C   UNL     1      48.777   6.834  14.711  0.00  0.00    +0.000 C 
ATOM     21  O   UNL     1      49.629   6.941  13.831  0.00  0.00    +0.000 OA
ATOM     22  H   UNL     1      46.776   7.051  15.193  0.00  0.00    +0.000 HD
BRANCH  20  23
ATOM     23  C   UNL     1      49.086   6.197  15.997  0.00  0.00    +0.000 A 
ATOM     24  C   UNL     1      50.122   6.688  16.777  0.00  0.00    +0.000 A 
ATOM     25  S   UNL     1      50.312   5.870  18.261  0.00  0.00    +0.000 S 
ATOM     26  C   UNL     1      49.049   4.793  17.889  0.00  0.00    +0.000 A 
ATOM     27  N   UNL     1      48.695   3.800  18.750  0.00  0.00    +0.000 NA
ATOM     28  C   UNL     1      47.743   3.043  18.330  0.00  0.00    +0.000 A 
ATOM     29  N   UNL     1      47.102   3.188  17.125  0.00  0.00    +0.000 N 
ATOM     30  C   UNL     1      47.399   4.198  16.241  0.00  0.00    +0.000 A 
ATOM     31  O   UNL     1      46.769   4.332  15.194  0.00  0.00    +0.000 OA
ATOM     32  C   UNL     1      48.474   5.072  16.660  0.00  0.00    +0.000 A 
ATOM     33  H   UNL     1      46.354   2.567  16.856  0.00  0.00    +0.000 HD
ENDBRANCH  20  23
ENDBRANCH  18  19
ENDBRANCH   4  18
TORSDOF 7
ENDMDL
MODEL 2
REMARK VINA RESULT:    -8.270      2.631      3.166
REMARK INTER + INTRA:         -12.861
REMARK INTER:                 -11.827
REMARK INTRA:                  -1.034
REMARK UNBOUND:                -1.206
REMARK  Name = 
REMARK  8 active torsions:
REMARK  status: ('A' for Active; 'I' for Inactive)
REMARK    1  A    between atoms: C_1  and  C_2
REMARK    2  A    between atoms: C_2  and  N_3
REMARK    3  A    between atoms: C_2  and  C_25
REMARK    4  A    between atoms: N_3  and  C_4
REMARK    5  A    between atoms: C_4  and  C_5
REMARK    6  A    between atoms: C_8  and  C_9
REMARK    7  A    between atoms: C_9  and  N_10
REMARK    8  A    between atoms: C_11  and  C_13
REMARK                            x       y       z     vdW  Elec       q    Type
REMARK                         _______ _______ _______ _____ _____    ______ ____
ROOT
ATOM      1  C   UNL     1      45.579   4.367  12.252  0.00  0.00    +0.000 A 
ATOM      2  C   UNL     1      45.780   5.698  11.877  0.00  0.00    +0.000 A 
ATOM      3  C   UNL     1      46.741   6.464  12.530  0.00  0.00    +0.000 A 
ATOM      4  C   UNL     1      47.492   5.881  13.549  0.00  0.00    +0.000 A 
ATOM      5  N   UNL     1      47.296   4.599  13.948  0.00  0.00    +0.000 NA
ATOM      6  C   UNL     1      46.354   3.878  13.295  0.00  0.00    +0.000 A 
ENDROOT
BRANCH   1   7
ATOM      7  C   UNL     1      44.504   3.526  11.618  0.00  0.00    +0.000 C 
BRANCH   7   8
ATOM      8  N   UNL     1      45.037   2.606  10.610  0.00  0.00    +0.000 NA
ATOM      9  H   UNL     1      44.768   1.654  10.860  0.00  0.00    +0.000 HD
BRANCH   8  11
ATOM     10  C   UNL     1      44.053   4.334   9.098  0.00  0.00    +0.000 C 
ATOM     11  C   UNL     1      44.535   2.883   9.253  0.00  0.00    +0.000 C 
BRANCH  11  12
ATOM     12  C   UNL     1      45.611   2.574   8.212  0.00  0.00    +0.000 A 
ATOM     13  C   UNL     1      46.244   1.320   8.190  0.00  0.00    +0.000 A 
ATOM     14  C   UNL     1      47.205   1.019   7.216  0.00  0.00    +0.000 A 
ATOM     15  C   UNL     1      47.548   1.966   6.254  0.00  0.00    +0.000 A 
ATOM     16  C   UNL     1      46.939   3.218   6.268  0.00  0.00    +0.000 A 
ATOM     17  C   UNL     1      45.982   3.521   7.243  0.00  0.00    +0.000 A 
ENDBRANCH  11  12
ENDBRANCH   8  11
ENDBRANCH   7   8
ENDBRANCH   1   7
BRANCH   4  18
ATOM     18  C   UNL     1      48.522   6.693  14.299  0.00  0.00    +0.000 C 
BRANCH  18  19
ATOM     19  N   UNL     1      48.186   6.789  15.701  0.00  0.00    +0.000 N 
ATOM     20  C   UNL     1      48.984   6.262  16.683  0.00  0.00    +0.000 C 
ATOM     21  O   UNL     1      50.058   5.720  16.432  0.00  0.00    +0.000 OA
ATOM     22  H   UNL     1      47.213   6.997  15.902  0.00  0.00    +0.000 HD
BRANCH  20  23
ATOM     23  C   UNL     1      48.530   6.452  18.065  0.00  0.00    +0.000 A 
ATOM     24  C   UNL     1      48.515   5.375  18.940  0.00  0.00    +0.000 A 
ATOM     25  S   UNL     1      48.012   5.780  20.518  0.00  0.00    +0.000 S 
ATOM     26  C   UNL     1      47.743   7.399  20.075  0.00  0.00    +0.000 A 
ATOM     27  N   UNL     1      47.278   8.307  20.976  0.00  0.00    +0.000 NA
ATOM     28  C   UNL     1      47.095   9.488  20.499  0.00  0.00    +0.000 A 
ATOM     29  N   UNL     1      47.341   9.853  19.198  0.00  0.00    +0.000 N 
ATOM     30  C   UNL     1      47.847   8.982  18.264  0.00  0.00    +0.000 A 
ATOM     31  O   UNL     1      48.107   9.354  17.122  0.00  0.00    +0.000 OA
ATOM     32  C   UNL     1      48.059   7.633  18.746  0.00  0.00    +0.000 A 
ATOM     33  H   UNL     1      47.187  10.800  18.886  0.00  0.00    +0.000 HD
ENDBRANCH  20  23
ENDBRANCH  18  19
ENDBRANCH   4  18
TORSDOF 7
ENDMDL
MODEL 3
REMARK VINA RESULT:    -8.197      2.054      2.506
REMARK INTER + INTRA:         -12.757
REMARK INTER:                 -11.748
REMARK INTRA:                  -1.009
REMARK UNBOUND:                -1.206
REMARK  Name = 
REMARK  8 active torsions:
REMARK  status: ('A' for Active; 'I' for Inactive)
REMARK    1  A    between atoms: C_1  and  C_2
REMARK    2  A    between atoms: C_2  and  N_3
REMARK    3  A    between atoms: C_2  and  C_25
REMARK    4  A    between atoms: N_3  and  C_4
REMARK    5  A    between atoms: C_4  and  C_5
REMARK    6  A    between atoms: C_8  and  C_9
REMARK    7  A    between atoms: C_9  and  N_10
REMARK    8  A    between atoms: C_11  and  C_13
REMARK                            x       y       z     vdW  Elec       q    Type
REMARK                         _______ _______ _______ _____ _____    ______ ____
ROOT
ATOM      1  C   UNL     1      45.549   4.337  12.272  0.00  0.00    +0.000 A 
ATOM      2  C   UNL     1      45.671   5.678  11.898  0.00  0.00    +0.000 A 
ATOM      3  C   UNL     1      46.624   6.485  12.513  0.00  0.00    +0.000 A 
ATOM      4  C   UNL     1      47.447   5.932  13.492  0.00  0.00    +0.000 A 
ATOM      5  N   UNL     1      47.329   4.640  13.890  0.00  0.00    +0.000 NA
ATOM      6  C   UNL     1      46.393   3.880  13.275  0.00  0.00    +0.000 A 
ENDROOT
BRANCH   1   7
ATOM      7  C   UNL     1      44.487   3.450  11.681  0.00  0.00    +0.000 C 
BRANCH   7   8
ATOM      8  N   UNL     1      45.020   2.550  10.654  0.00  0.00    +0.000 NA
ATOM      9  H   UNL     1      44.769   1.591  10.898  0.00  0.00    +0.000 HD
BRANCH   8  11
ATOM     10  C   UNL     1      43.994   4.282   9.175  0.00  0.00    +0.000 C 
ATOM     11  C   UNL     1      44.493   2.835   9.308  0.00  0.00    +0.000 C 
BRANCH  11  12
ATOM     12  C   UNL     1      45.555   2.546   8.248  0.00  0.00    +0.000 A 
ATOM     13  C   UNL     1      45.890   3.517   7.289  0.00  0.00    +0.000 A 
ATOM     14  C   UNL     1      46.887   3.271   6.337  0.00  0.00    +0.000 A 
ATOM     15  C   UNL     1      47.563   2.053   6.329  0.00  0.00    +0.000 A 
ATOM     16  C   UNL     1      47.237   1.076   7.265  0.00  0.00    +0.000 A 
ATOM     17  C   UNL     1      46.237   1.319   8.213  0.00  0.00    +0.000 A 
ENDBRANCH  11  12
ENDBRANCH   8  11
ENDBRANCH   7   8
ENDBRANCH   1   7
BRANCH   4  18
ATOM     18  C   UNL     1      48.472   6.787  14.201  0.00  0.00    +0.000 C 
BRANCH  18  19
ATOM     19  N   UNL     1      48.294   6.729  15.634  0.00  0.00    +0.000 N 
ATOM     20  C   UNL     1      48.964   7.564  16.489  0.00  0.00    +0.000 C 
ATOM     21  O   UNL     1      49.719   8.445  16.086  0.00  0.00    +0.000 OA
ATOM     22  H   UNL     1      47.887   5.869  15.988  0.00  0.00    +0.000 HD
BRANCH  20  23
ATOM     23  C   UNL     1      48.670   7.408  17.919  0.00  0.00    +0.000 A 
ATOM     24  C   UNL     1      48.243   8.502  18.658  0.00  0.00    +0.000 A 
ATOM     25  S   UNL     1      47.895   8.136  20.286  0.00  0.00    +0.000 S 
ATOM     26  C   UNL     1      48.355   6.513  20.076  0.00  0.00    +0.000 A 
ATOM     27  N   UNL     1      48.313   5.630  21.111  0.00  0.00    +0.000 NA
ATOM     28  C   UNL     1      48.715   4.443  20.818  0.00  0.00    +0.000 A 
ATOM     29  N   UNL     1      49.151   4.049  19.577  0.00  0.00    +0.000 N 
ATOM     30  C   UNL     1      49.173   4.894  18.494  0.00  0.00    +0.000 A 
ATOM     31  O   UNL     1      49.519   4.496  17.383  0.00  0.00    +0.000 OA
ATOM     32  C   UNL     1      48.744   6.248  18.773  0.00  0.00    +0.000 A 
ATOM     33  H   UNL     1      49.444   3.099  19.406  0.00  0.00    +0.000 HD
ENDBRANCH  20  23
ENDBRANCH  18  19
ENDBRANCH   4  18
TORSDOF 7
ENDMDL
MODEL 4
REMARK VINA RESULT:    -8.177      2.336      2.703
REMARK INTER + INTRA:         -12.729
REMARK INTER:                 -11.745
REMARK INTRA:                  -0.985
REMARK UNBOUND:                -1.206
REMARK  Name = 
REMARK  8 active torsions:
REMARK  status: ('A' for Active; 'I' for Inactive)
REMARK    1  A    between atoms: C_1  and  C_2
REMARK    2  A    between atoms: C_2  and  N_3
REMARK    3  A    between atoms: C_2  and  C_25
REMARK    4  A    between atoms: N_3  and  C_4
REMARK    5  A    between atoms: C_4  and  C_5
REMARK    6  A    between atoms: C_8  and  C_9
REMARK    7  A    between atoms: C_9  and  N_10
REMARK    8  A    between atoms: C_11  and  C_13
REMARK                            x       y       z     vdW  Elec       q    Type
REMARK                         _______ _______ _______ _____ _____    ______ ____
ROOT
ATOM      1  C   UNL     1      45.847   4.551  12.829  0.00  0.00    +0.000 A 
ATOM      2  C   UNL     1      46.031   5.876  12.427  0.00  0.00    +0.000 A 
ATOM      3  C   UNL     1      46.916   6.695  13.123  0.00  0.00    +0.000 A 
ATOM      4  C   UNL     1      47.609   6.169  14.211  0.00  0.00    +0.000 A 
ATOM      5  N   UNL     1      47.426   4.894  14.637  0.00  0.00    +0.000 NA
ATOM      6  C   UNL     1      46.559   4.121  13.941  0.00  0.00    +0.000 A 
ENDROOT
BRANCH   1   7
ATOM      7  C   UNL     1      44.849   3.654  12.148  0.00  0.00    +0.000 C 
BRANCH   7   8
ATOM      8  N   UNL     1      45.448   2.885  11.053  0.00  0.00    +0.000 NA
ATOM      9  H   UNL     1      45.498   1.904  11.332  0.00  0.00    +0.000 HD
BRANCH   8  11
ATOM     10  C   UNL     1      43.975   4.325   9.641  0.00  0.00    +0.000 C 
ATOM     11  C   UNL     1      44.677   2.968   9.801  0.00  0.00    +0.000 C 
BRANCH  11  12
ATOM     12  C   UNL     1      45.583   2.701   8.599  0.00  0.00    +0.000 A 
ATOM     13  C   UNL     1      46.113   1.419   8.374  0.00  0.00    +0.000 A 
ATOM     14  C   UNL     1      46.914   1.161   7.255  0.00  0.00    +0.000 A 
ATOM     15  C   UNL     1      47.198   2.177   6.346  0.00  0.00    +0.000 A 
ATOM     16  C   UNL     1      46.689   3.456   6.559  0.00  0.00    +0.000 A 
ATOM     17  C   UNL     1      45.892   3.716   7.679  0.00  0.00    +0.000 A 
ENDBRANCH  11  12
ENDBRANCH   8  11
ENDBRANCH   7   8
ENDBRANCH   1   7
BRANCH   4  18
ATOM     18  C   UNL     1      48.555   7.039  15.007  0.00  0.00    +0.000 C 
BRANCH  18  19
ATOM     19  N   UNL     1      49.623   6.253  15.580  0.00  0.00    +0.000 N 
ATOM     20  C   UNL     1      49.678   5.957  16.917  0.00  0.00    +0.000 C 
ATOM     21  O   UNL     1      48.795   6.299  17.699  0.00  0.00    +0.000 OA
ATOM     22  H   UNL     1      50.464   6.185  15.015  0.00  0.00    +0.000 HD
BRANCH  20  23
ATOM     23  C   UNL     1      50.810   5.132  17.357  0.00  0.00    +0.000 A 
ATOM     24  C   UNL     1      51.965   5.741  17.825  0.00  0.00    +0.000 A 
ATOM     25  S   UNL     1      53.159   4.641  18.344  0.00  0.00    +0.000 S 
ATOM     26  C   UNL     1      52.196   3.308  17.911  0.00  0.00    +0.000 A 
ATOM     27  N   UNL     1      52.641   2.033  18.080  0.00  0.00    +0.000 NA
ATOM     28  C   UNL     1      51.821   1.124  17.685  0.00  0.00    +0.000 A 
ATOM     29  N   UNL     1      50.586   1.369  17.138  0.00  0.00    +0.000 N 
ATOM     30  C   UNL     1      50.079   2.636  16.983  0.00  0.00    +0.000 A 
ATOM     31  O   UNL     1      48.947   2.819  16.539  0.00  0.00    +0.000 OA
ATOM     32  C   UNL     1      50.969   3.699  17.400  0.00  0.00    +0.000 A 
ATOM     33  H   UNL     1      49.983   0.611  16.855  0.00  0.00    +0.000 HD
ENDBRANCH  20  23
ENDBRANCH  18  19
ENDBRANCH   4  18
TORSDOF 7
ENDMDL
MODEL 5
REMARK VINA RESULT:    -7.466      3.004      8.530
REMARK INTER + INTRA:         -11.728
REMARK INTER:                  -9.854
REMARK INTRA:                  -1.874
REMARK UNBOUND:                -1.206
REMARK  Name = 
REMARK  8 active torsions:
REMARK  status: ('A' for Active; 'I' for Inactive)
REMARK    1  A    between atoms: C_1  and  C_2
REMARK    2  A    between atoms: C_2  and  N_3
REMARK    3  A    between atoms: C_2  and  C_25
REMARK    4  A    between atoms: N_3  and  C_4
REMARK    5  A    between atoms: C_4  and  C_5
REMARK    6  A    between atoms: C_8  and  C_9
REMARK    7  A    between atoms: C_9  and  N_10
REMARK    8  A    between atoms: C_11  and  C_13
REMARK                            x       y       z     vdW  Elec       q    Type
REMARK                         _______ _______ _______ _____ _____    ______ ____
ROOT
ATOM      1  C   UNL     1      48.785   7.899  16.061  0.00  0.00    +0.000 A 
ATOM      2  C   UNL     1      49.084   6.779  15.280  0.00  0.00    +0.000 A 
ATOM      3  C   UNL     1      48.658   6.724  13.956  0.00  0.00    +0.000 A 
ATOM      4  C   UNL     1      47.942   7.799  13.432  0.00  0.00    +0.000 A 
ATOM      5  N   UNL     1      47.618   8.885  14.178  0.00  0.00    +0.000 NA
ATOM      6  C   UNL     1      48.045   8.910  15.463  0.00  0.00    +0.000 A 
ENDROOT
BRANCH   1   7
ATOM      7  C   UNL     1      49.167   7.967  17.515  0.00  0.00    +0.000 C 
BRANCH   7   8
ATOM      8  N   UNL     1      48.072   7.557  18.398  0.00  0.00    +0.000 NA
ATOM      9  H   UNL     1      47.268   7.300  17.825  0.00  0.00    +0.000 HD
BRANCH   8  11
ATOM     10  C   UNL     1      47.494   6.284  20.469  0.00  0.00    +0.000 C 
ATOM     11  C   UNL     1      48.418   6.403  19.246  0.00  0.00    +0.000 C 
BRANCH  11  12
ATOM     12  C   UNL     1      48.377   5.110  18.431  0.00  0.00    +0.000 A 
ATOM     13  C   UNL     1      47.189   4.699  17.803  0.00  0.00    +0.000 A 
ATOM     14  C   UNL     1      47.156   3.534  17.026  0.00  0.00    +0.000 A 
ATOM     15  C   UNL     1      48.305   2.765  16.866  0.00  0.00    +0.000 A 
ATOM     16  C   UNL     1      49.488   3.152  17.490  0.00  0.00    +0.000 A 
ATOM     17  C   UNL     1      49.522   4.313  18.271  0.00  0.00    +0.000 A 
ENDBRANCH  11  12
ENDBRANCH   8  11
ENDBRANCH   7   8
ENDBRANCH   1   7
BRANCH   4  18
ATOM     18  C   UNL     1      47.439   7.760  12.007  0.00  0.00    +0.000 C 
BRANCH  18  19
ATOM     19  N   UNL     1      46.752   6.518  11.734  0.00  0.00    +0.000 N 
ATOM     20  C   UNL     1      45.385   6.424  11.729  0.00  0.00    +0.000 C 
ATOM     21  O   UNL     1      44.661   7.401  11.906  0.00  0.00    +0.000 OA
ATOM     22  H   UNL     1      47.313   5.678  11.838  0.00  0.00    +0.000 HD
BRANCH  20  23
ATOM     23  C   UNL     1      44.822   5.106  11.415  0.00  0.00    +0.000 A 
ATOM     24  C   UNL     1      44.067   4.435  12.366  0.00  0.00    +0.000 A 
ATOM     25  S   UNL     1      43.446   2.943  11.822  0.00  0.00    +0.000 S 
ATOM     26  C   UNL     1      44.210   3.114  10.313  0.00  0.00    +0.000 A 
ATOM     27  N   UNL     1      44.099   2.154   9.355  0.00  0.00    +0.000 NA
ATOM     28  C   UNL     1      44.750   2.400   8.273  0.00  0.00    +0.000 A 
ATOM     29  N   UNL     1      45.502   3.527   8.052  0.00  0.00    +0.000 N 
ATOM     30  C   UNL     1      45.612   4.540   8.974  0.00  0.00    +0.000 A 
ATOM     31  O   UNL     1      46.251   5.561   8.724  0.00  0.00    +0.000 OA
ATOM     32  C   UNL     1      44.909   4.307  10.217  0.00  0.00    +0.000 A 
ATOM     33  H   UNL     1      45.983   3.668   7.177  0.00  0.00    +0.000 HD
ENDBRANCH  20  23
ENDBRANCH  18  19
ENDBRANCH   4  18
TORSDOF 7
ENDMDL
MODEL 6
REMARK VINA RESULT:    -7.410      2.626      3.235
REMARK INTER + INTRA:         -11.648
REMARK INTER:                 -10.525
REMARK INTRA:                  -1.123
REMARK UNBOUND:                -1.206
REMARK  Name = 
REMARK  8 active torsions:
REMARK  status: ('A' for Active; 'I' for Inactive)
REMARK    1  A    between atoms: C_1  and  C_2
REMARK    2  A    between atoms: C_2  and  N_3
REMARK    3  A    between atoms: C_2  and  C_25
REMARK    4  A    between atoms: N_3  and  C_4
REMARK    5  A    between atoms: C_4  and  C_5
REMARK    6  A    between atoms: C_8  and  C_9
REMARK    7  A    between atoms: C_9  and  N_10
REMARK    8  A    between atoms: C_11  and  C_13
REMARK                            x       y       z     vdW  Elec       q    Type
REMARK                         _______ _______ _______ _____ _____    ______ ____
ROOT
ATOM      1  C   UNL     1      45.275   4.826  12.094  0.00  0.00    +0.000 A 
ATOM      2  C   UNL     1      45.696   5.933  12.835  0.00  0.00    +0.000 A 
ATOM      3  C   UNL     1      46.478   5.750  13.972  0.00  0.00    +0.000 A 
ATOM      4  C   UNL     1      46.831   4.455  14.347  0.00  0.00    +0.000 A 
ATOM      5  N   UNL     1      46.412   3.363  13.659  0.00  0.00    +0.000 NA
ATOM      6  C   UNL     1      45.653   3.573  12.558  0.00  0.00    +0.000 A 
ENDROOT
BRANCH   1   7
ATOM      7  C   UNL     1      44.373   4.977  10.899  0.00  0.00    +0.000 C 
BRANCH   7   8
ATOM      8  N   UNL     1      44.495   3.855   9.964  0.00  0.00    +0.000 NA
ATOM      9  H   UNL     1      43.564   3.477   9.783  0.00  0.00    +0.000 HD
BRANCH   8  11
ATOM     10  C   UNL     1      46.024   5.456   8.807  0.00  0.00    +0.000 C 
ATOM     11  C   UNL     1      45.091   4.242   8.674  0.00  0.00    +0.000 C 
BRANCH  11  12
ATOM     12  C   UNL     1      45.849   3.064   8.061  0.00  0.00    +0.000 A 
ATOM     13  C   UNL     1      45.709   1.771   8.592  0.00  0.00    +0.000 A 
ATOM     14  C   UNL     1      46.373   0.682   8.012  0.00  0.00    +0.000 A 
ATOM     15  C   UNL     1      47.186   0.870   6.897  0.00  0.00    +0.000 A 
ATOM     16  C   UNL     1      47.344   2.146   6.365  0.00  0.00    +0.000 A 
ATOM     17  C   UNL     1      46.685   3.235   6.945  0.00  0.00    +0.000 A 
ENDBRANCH  11  12
ENDBRANCH   8  11
ENDBRANCH   7   8
ENDBRANCH   1   7
BRANCH   4  18
ATOM     18  C   UNL     1      47.654   4.219  15.593  0.00  0.00    +0.000 C 
BRANCH  18  19
ATOM     19  N   UNL     1      47.772   5.429  16.373  0.00  0.00    +0.000 N 
ATOM     20  C   UNL     1      48.986   5.986  16.680  0.00  0.00    +0.000 C 
ATOM     21  O   UNL     1      50.044   5.517  16.268  0.00  0.00    +0.000 OA
ATOM     22  H   UNL     1      46.954   5.677  16.920  0.00  0.00    +0.000 HD
BRANCH  20  23
ATOM     23  C   UNL     1      48.956   7.227  17.462  0.00  0.00    +0.000 A 
ATOM     24  C   UNL     1      49.537   8.379  16.950  0.00  0.00    +0.000 A 
ATOM     25  S   UNL     1      49.368   9.741  17.960  0.00  0.00    +0.000 S 
ATOM     26  C   UNL     1      48.558   8.829  19.145  0.00  0.00    +0.000 A 
ATOM     27  N   UNL     1      48.139   9.399  20.308  0.00  0.00    +0.000 NA
ATOM     28  C   UNL     1      47.566   8.587  21.125  0.00  0.00    +0.000 A 
ATOM     29  N   UNL     1      47.363   7.250  20.886  0.00  0.00    +0.000 N 
ATOM     30  C   UNL     1      47.733   6.640  19.712  0.00  0.00    +0.000 A 
ATOM     31  O   UNL     1      47.490   5.452  19.508  0.00  0.00    +0.000 OA
ATOM     32  C   UNL     1      48.397   7.507  18.762  0.00  0.00    +0.000 A 
ATOM     33  H   UNL     1      46.897   6.665  21.564  0.00  0.00    +0.000 HD
ENDBRANCH  20  23
ENDBRANCH  18  19
ENDBRANCH   4  18
TORSDOF 7
ENDMDL
MODEL 7
REMARK VINA RESULT:    -7.232      2.964      4.365
REMARK INTER + INTRA:         -11.397
REMARK INTER:                 -10.236
REMARK INTRA:                  -1.161
REMARK UNBOUND:                -1.206
REMARK  Name = 
REMARK  8 active torsions:
REMARK  status: ('A' for Active; 'I' for Inactive)
REMARK    1  A    between atoms: C_1  and  C_2
REMARK    2  A    between atoms: C_2  and  N_3
REMARK    3  A    between atoms: C_2  and  C_25
REMARK    4  A    between atoms: N_3  and  C_4
REMARK    5  A    between atoms: C_4  and  C_5
REMARK    6  A    between atoms: C_8  and  C_9
REMARK    7  A    between atoms: C_9  and  N_10
REMARK    8  A    between atoms: C_11  and  C_13
REMARK                            x       y       z     vdW  Elec       q    Type
REMARK                         _______ _______ _______ _____ _____    ______ ____
ROOT
ATOM      1  C   UNL     1      47.094   4.996  13.872  0.00  0.00    +0.000 A 
ATOM      2  C   UNL     1      47.770   6.217  13.808  0.00  0.00    +0.000 A 
ATOM      3  C   UNL     1      48.472   6.680  14.918  0.00  0.00    +0.000 A 
ATOM      4  C   UNL     1      48.490   5.905  16.076  0.00  0.00    +0.000 A 
ATOM      5  N   UNL     1      47.819   4.729  16.170  0.00  0.00    +0.000 NA
ATOM      6  C   UNL     1      47.145   4.305  15.075  0.00  0.00    +0.000 A 
ENDROOT
BRANCH   1   7
ATOM      7  C   UNL     1      46.268   4.494  12.718  0.00  0.00    +0.000 C 
BRANCH   7   8
ATOM      8  N   UNL     1      44.846   4.815  12.871  0.00  0.00    +0.000 NA
ATOM      9  H   UNL     1      44.742   5.492  13.628  0.00  0.00    +0.000 HD
BRANCH   8  11
ATOM     10  C   UNL     1      44.692   6.847  11.427  0.00  0.00    +0.000 C 
ATOM     11  C   UNL     1      44.251   5.393  11.653  0.00  0.00    +0.000 C 
BRANCH  11  12
ATOM     12  C   UNL     1      44.603   4.543  10.432  0.00  0.00    +0.000 A 
ATOM     13  C   UNL     1      45.419   5.060   9.413  0.00  0.00    +0.000 A 
ATOM     14  C   UNL     1      45.773   4.273   8.309  0.00  0.00    +0.000 A 
ATOM     15  C   UNL     1      45.317   2.962   8.208  0.00  0.00    +0.000 A 
ATOM     16  C   UNL     1      44.498   2.436   9.205  0.00  0.00    +0.000 A 
ATOM     17  C   UNL     1      44.141   3.223  10.305  0.00  0.00    +0.000 A 
ENDBRANCH  11  12
ENDBRANCH   8  11
ENDBRANCH   7   8
ENDBRANCH   1   7
BRANCH   4  18
ATOM     18  C   UNL     1      49.217   6.391  17.309  0.00  0.00    +0.000 C 
BRANCH  18  19
ATOM     19  N   UNL     1      50.212   5.433  17.735  0.00  0.00    +0.000 N 
ATOM     20  C   UNL     1      51.506   5.473  17.286  0.00  0.00    +0.000 C 
ATOM     21  O   UNL     1      51.910   6.356  16.533  0.00  0.00    +0.000 OA
ATOM     22  H   UNL     1      49.847   4.576  18.139  0.00  0.00    +0.000 HD
BRANCH  20  23
ATOM     23  C   UNL     1      52.414   4.451  17.818  0.00  0.00    +0.000 A 
ATOM     24  C   UNL     1      53.600   4.834  18.430  0.00  0.00    +0.000 A 
ATOM     25  S   UNL     1      54.511   3.527  19.039  0.00  0.00    +0.000 S 
ATOM     26  C   UNL     1      53.379   2.398  18.459  0.00  0.00    +0.000 A 
ATOM     27  N   UNL     1      53.566   1.062  18.633  0.00  0.00    +0.000 NA
ATOM     28  C   UNL     1      52.646   0.322  18.121  0.00  0.00    +0.000 A 
ATOM     29  N   UNL     1      51.545   0.794  17.451  0.00  0.00    +0.000 N 
ATOM     30  C   UNL     1      51.294   2.135  17.285  0.00  0.00    +0.000 A 
ATOM     31  O   UNL     1      50.271   2.526  16.727  0.00  0.00    +0.000 OA
ATOM     32  C   UNL     1      52.307   3.013  17.832  0.00  0.00    +0.000 A 
ATOM     33  H   UNL     1      50.851   0.163  17.080  0.00  0.00    +0.000 HD
ENDBRANCH  20  23
ENDBRANCH  18  19
ENDBRANCH   4  18
TORSDOF 7
ENDMDL
MODEL 8
REMARK VINA RESULT:    -7.057      1.908      2.593
REMARK INTER + INTRA:         -11.151
REMARK INTER:                 -10.359
REMARK INTRA:                  -0.791
REMARK UNBOUND:                -1.206
REMARK  Name = 
REMARK  8 active torsions:
REMARK  status: ('A' for Active; 'I' for Inactive)
REMARK    1  A    between atoms: C_1  and  C_2
REMARK    2  A    between atoms: C_2  and  N_3
REMARK    3  A    between atoms: C_2  and  C_25
REMARK    4  A    between atoms: N_3  and  C_4
REMARK    5  A    between atoms: C_4  and  C_5
REMARK    6  A    between atoms: C_8  and  C_9
REMARK    7  A    between atoms: C_9  and  N_10
REMARK    8  A    between atoms: C_11  and  C_13
REMARK                            x       y       z     vdW  Elec       q    Type
REMARK                         _______ _______ _______ _____ _____    ______ ____
ROOT
ATOM      1  C   UNL     1      44.651   6.179  11.711  0.00  0.00    +0.000 A 
ATOM      2  C   UNL     1      45.118   7.464  11.422  0.00  0.00    +0.000 A 
ATOM      3  C   UNL     1      46.223   7.970  12.102  0.00  0.00    +0.000 A 
ATOM      4  C   UNL     1      46.847   7.174  13.060  0.00  0.00    +0.000 A 
ATOM      5  N   UNL     1      46.396   5.934  13.377  0.00  0.00    +0.000 NA
ATOM      6  C   UNL     1      45.319   5.470  12.700  0.00  0.00    +0.000 A 
ENDROOT
BRANCH   1   7
ATOM      7  C   UNL     1      43.420   5.623  11.049  0.00  0.00    +0.000 C 
BRANCH   7   8
ATOM      8  N   UNL     1      43.739   4.805   9.876  0.00  0.00    +0.000 NA
ATOM      9  H   UNL     1      44.242   5.383   9.201  0.00  0.00    +0.000 HD
BRANCH   8  11
ATOM     10  C   UNL     1      43.751   2.453  10.717  0.00  0.00    +0.000 C 
ATOM     11  C   UNL     1      44.579   3.639  10.197  0.00  0.00    +0.000 C 
BRANCH  11  12
ATOM     12  C   UNL     1      45.393   3.214   8.975  0.00  0.00    +0.000 A 
ATOM     13  C   UNL     1      45.742   1.867   8.782  0.00  0.00    +0.000 A 
ATOM     14  C   UNL     1      46.457   1.468   7.646  0.00  0.00    +0.000 A 
ATOM     15  C   UNL     1      46.835   2.406   6.689  0.00  0.00    +0.000 A 
ATOM     16  C   UNL     1      46.507   3.748   6.870  0.00  0.00    +0.000 A 
ATOM     17  C   UNL     1      45.796   4.148   8.007  0.00  0.00    +0.000 A 
ENDBRANCH  11  12
ENDBRANCH   8  11
ENDBRANCH   7   8
ENDBRANCH   1   7
BRANCH   4  18
ATOM     18  C   UNL     1      48.031   7.702  13.838  0.00  0.00    +0.000 C 
BRANCH  18  19
ATOM     19  N   UNL     1      48.535   6.706  14.755  0.00  0.00    +0.000 N 
ATOM     20  C   UNL     1      48.823   6.995  16.064  0.00  0.00    +0.000 C 
ATOM     21  O   UNL     1      48.622   8.106  16.548  0.00  0.00    +0.000 OA
ATOM     22  H   UNL     1      48.936   5.880  14.323  0.00  0.00    +0.000 HD
BRANCH  20  23
ATOM     23  C   UNL     1      49.308   5.881  16.887  0.00  0.00    +0.000 A 
ATOM     24  C   UNL     1      48.400   5.063  17.544  0.00  0.00    +0.000 A 
ATOM     25  S   UNL     1      49.128   3.788  18.412  0.00  0.00    +0.000 S 
ATOM     26  C   UNL     1      50.687   4.315  17.984  0.00  0.00    +0.000 A 
ATOM     27  N   UNL     1      51.796   3.660  18.423  0.00  0.00    +0.000 NA
ATOM     28  C   UNL     1      52.910   4.183  18.046  0.00  0.00    +0.000 A 
ATOM     29  N   UNL     1      53.022   5.303  17.261  0.00  0.00    +0.000 N 
ATOM     30  C   UNL     1      51.931   5.975  16.763  0.00  0.00    +0.000 A 
ATOM     31  O   UNL     1      52.066   6.944  16.018  0.00  0.00    +0.000 OA
ATOM     32  C   UNL     1      50.651   5.435  17.169  0.00  0.00    +0.000 A 
ATOM     33  H   UNL     1      53.926   5.660  16.990  0.00  0.00    +0.000 HD
ENDBRANCH  20  23
ENDBRANCH  18  19
ENDBRANCH   4  18
TORSDOF 7
ENDMDL
MODEL 9
REMARK VINA RESULT:    -6.901      2.187      2.836
REMARK INTER + INTRA:         -10.931
REMARK INTER:                  -9.756
REMARK INTRA:                  -1.175
REMARK UNBOUND:                -1.206
REMARK  Name = 
REMARK  8 active torsions:
REMARK  status: ('A' for Active; 'I' for Inactive)
REMARK    1  A    between atoms: C_1  and  C_2
REMARK    2  A    between atoms: C_2  and  N_3
REMARK    3  A    between atoms: C_2  and  C_25
REMARK    4  A    between atoms: N_3  and  C_4
REMARK    5  A    between atoms: C_4  and  C_5
REMARK    6  A    between atoms: C_8  and  C_9
REMARK    7  A    between atoms: C_9  and  N_10
REMARK    8  A    between atoms: C_11  and  C_13
REMARK                            x       y       z     vdW  Elec       q    Type
REMARK                         _______ _______ _______ _____ _____    ______ ____
ROOT
ATOM      1  C   UNL     1      45.726   5.611  13.015  0.00  0.00    +0.000 A 
ATOM      2  C   UNL     1      46.968   5.012  13.239  0.00  0.00    +0.000 A 
ATOM      3  C   UNL     1      48.102   5.804  13.398  0.00  0.00    +0.000 A 
ATOM      4  C   UNL     1      47.970   7.190  13.334  0.00  0.00    +0.000 A 
ATOM      5  N   UNL     1      46.779   7.793  13.091  0.00  0.00    +0.000 NA
ATOM      6  C   UNL     1      45.695   6.997  12.940  0.00  0.00    +0.000 A 
ENDROOT
BRANCH   1   7
ATOM      7  C   UNL     1      44.489   4.789  12.770  0.00  0.00    +0.000 C 
BRANCH   7   8
ATOM      8  N   UNL     1      44.752   3.630  11.912  0.00  0.00    +0.000 NA
ATOM      9  H   UNL     1      44.457   2.785  12.403  0.00  0.00    +0.000 HD
BRANCH   8  11
ATOM     10  C   UNL     1      43.358   5.051  10.403  0.00  0.00    +0.000 C 
ATOM     11  C   UNL     1      44.032   3.689  10.628  0.00  0.00    +0.000 C 
BRANCH  11  12
ATOM     12  C   UNL     1      44.979   3.374   9.470  0.00  0.00    +0.000 A 
ATOM     13  C   UNL     1      45.303   2.044   9.153  0.00  0.00    +0.000 A 
ATOM     14  C   UNL     1      46.142   1.750   8.071  0.00  0.00    +0.000 A 
ATOM     15  C   UNL     1      46.670   2.777   7.293  0.00  0.00    +0.000 A 
ATOM     16  C   UNL     1      46.368   4.101   7.600  0.00  0.00    +0.000 A 
ATOM     17  C   UNL     1      45.534   4.397   8.683  0.00  0.00    +0.000 A 
ENDBRANCH  11  12
ENDBRANCH   8  11
ENDBRANCH   7   8
ENDBRANCH   1   7
BRANCH   4  18
ATOM     18  C   UNL     1      49.185   8.079  13.472  0.00  0.00    +0.000 C 
BRANCH  18  19
ATOM     19  N   UNL     1      50.240   7.406  14.193  0.00  0.00    +0.000 N 
ATOM     20  C   UNL     1      50.428   7.573  15.541  0.00  0.00    +0.000 C 
ATOM     21  O   UNL     1      49.679   8.265  16.225  0.00  0.00    +0.000 OA
ATOM     22  H   UNL     1      50.999   7.047  13.621  0.00  0.00    +0.000 HD
BRANCH  20  23
ATOM     23  C   UNL     1      51.526   6.811  16.146  0.00  0.00    +0.000 A 
ATOM     24  C   UNL     1      52.838   7.216  15.946  0.00  0.00    +0.000 A 
ATOM     25  S   UNL     1      53.986   6.253  16.761  0.00  0.00    +0.000 S 
ATOM     26  C   UNL     1      52.774   5.227  17.367  0.00  0.00    +0.000 A 
ATOM     27  N   UNL     1      53.084   4.156  18.149  0.00  0.00    +0.000 NA
ATOM     28  C   UNL     1      52.072   3.450  18.514  0.00  0.00    +0.000 A 
ATOM     29  N   UNL     1      50.768   3.718  18.177  0.00  0.00    +0.000 N 
ATOM     30  C   UNL     1      50.404   4.807  17.424  0.00  0.00    +0.000 A 
ATOM     31  O   UNL     1      49.222   5.049  17.184  0.00  0.00    +0.000 OA
ATOM     32  C   UNL     1      51.508   5.629  16.973  0.00  0.00    +0.000 A 
ATOM     33  H   UNL     1      50.016   3.131  18.504  0.00  0.00    +0.000 HD
ENDBRANCH  20  23
ENDBRANCH  18  19
ENDBRANCH   4  18
TORSDOF 7
ENDMDL
