MODEL 1
REMARK VINA RESULT:    -8.723      0.000      0.000
REMARK INTER + INTRA:         -11.482
REMARK INTER:                 -10.763
REMARK INTRA:                  -0.719
REMARK UNBOUND:                -0.719
REMARK  Name = 
REMARK  4 active torsions:
REMARK  status: ('A' for Active; 'I' for Inactive)
REMARK    1  A    between atoms: C_2  and  C_4
REMARK    2  A    between atoms: N_8  and  C_9
REMARK    3  A    between atoms: C_9  and  C_10
REMARK    4  A    between atoms: C_14  and  N_15
REMARK                            x       y       z     vdW  Elec       q    Type
REMARK                         _______ _______ _______ _____ _____    ______ ____
ROOT
ATOM      1  C   UNL     1      46.384   2.294   7.700  0.00  0.00    +0.000 A 
ATOM      2  C   UNL     1      45.604   1.778   8.730  0.00  0.00    +0.000 A 
ATOM      3  C   UNL     1      44.739   2.631   9.415  0.00  0.00    +0.000 A 
ATOM      4  C   UNL     1      44.684   3.982   9.083  0.00  0.00    +0.000 A 
ATOM      5  N   UNL     1      43.806   4.869   9.662  0.00  0.00    +0.000 N 
ATOM      6  N   UNL     1      45.445   4.491   8.093  0.00  0.00    +0.000 NA
ATOM      7  C   UNL     1      46.284   3.647   7.432  0.00  0.00    +0.000 A 
ATOM      8  H   UNL     1      44.025   5.805   9.338  0.00  0.00    +0.000 HD
ENDROOT
BRANCH   1  10
ATOM      9  N   UNL     1      48.435   2.060   6.422  0.00  0.00    +0.000 N 
ATOM     10  C   UNL     1      47.307   1.456   6.910  0.00  0.00    +0.000 C 
ATOM     11  O   UNL     1      47.093   0.263   6.724  0.00  0.00    +0.000 OA
ATOM     12  H   UNL     1      49.104   1.456   5.963  0.00  0.00    +0.000 HD
ATOM     13  H   UNL     1      48.769   2.948   6.770  0.00  0.00    +0.000 HD
ENDBRANCH   1  10
BRANCH   5  14
ATOM     14  C   UNL     1      43.355   4.751  11.031  0.00  0.00    +0.000 C 
BRANCH  14  15
ATOM     15  C   UNL     1      44.440   5.001  12.051  0.00  0.00    +0.000 A 
ATOM     16  C   UNL     1      45.037   3.942  12.739  0.00  0.00    +0.000 A 
ATOM     17  C   UNL     1      46.148   4.175  13.542  0.00  0.00    +0.000 A 
ATOM     18  C   UNL     1      46.677   5.465  13.652  0.00  0.00    +0.000 A 
ATOM     19  C   UNL     1      46.103   6.561  12.993  0.00  0.00    +0.000 A 
ATOM     20  C   UNL     1      44.962   6.300  12.217  0.00  0.00    +0.000 A 
BRANCH  19  21
ATOM     21  N   UNL     1      46.660   7.820  13.059  0.00  0.00    +0.000 N 
ATOM     22  C   UNL     1      45.871   9.059  13.065  0.00  0.00    +0.000 C 
ATOM     23  C   UNL     1      46.391  10.010  11.975  0.00  0.00    +0.000 C 
ATOM     24  O   UNL     1      47.799  10.263  12.121  0.00  0.00    +0.000 OA
ATOM     25  C   UNL     1      48.537   9.032  12.041  0.00  0.00    +0.000 C 
ATOM     26  C   UNL     1      48.113   8.037  13.137  0.00  0.00    +0.000 C 
ENDBRANCH  19  21
ENDBRANCH  14  15
ENDBRANCH   5  14
TORSDOF 4
ENDMDL
MODEL 2
REMARK VINA RESULT:    -8.335      2.062      3.038
REMARK INTER + INTRA:         -11.003
REMARK INTER:                 -10.302
REMARK INTRA:                  -0.701
REMARK UNBOUND:                -0.719
REMARK  Name = 
REMARK  4 active torsions:
REMARK  status: ('A' for Active; 'I' for Inactive)
REMARK    1  A    between atoms: C_2  and  C_4
REMARK    2  A    between atoms: N_8  and  C_9
REMARK    3  A    between atoms: C_9  and  C_10
REMARK    4  A    between atoms: C_14  and  N_15
REMARK                            x       y       z     vdW  Elec       q    Type
REMARK                         _______ _______ _______ _____ _____    ______ ____
ROOT
ATOM      1  C   UNL     1      46.197   2.014   7.954  0.00  0.00    +0.000 A 
ATOM      2  C   UNL     1      45.558   1.786   9.168  0.00  0.00    +0.000 A 
ATOM      3  C   UNL     1      44.758   2.793   9.710  0.00  0.00    +0.000 A 
ATOM      4  C   UNL     1      44.631   4.012   9.050  0.00  0.00    +0.000 A 
ATOM      5  N   UNL     1      43.806   5.025   9.482  0.00  0.00    +0.000 N 
ATOM      6  N   UNL     1      45.256   4.243   7.878  0.00  0.00    +0.000 NA
ATOM      7  C   UNL     1      46.032   3.252   7.360  0.00  0.00    +0.000 A 
ATOM      8  H   UNL     1      43.961   5.844   8.904  0.00  0.00    +0.000 HD
ENDROOT
BRANCH   1  10
ATOM      9  N   UNL     1      46.797  -0.315   7.619  0.00  0.00    +0.000 N 
ATOM     10  C   UNL     1      47.041   0.994   7.300  0.00  0.00    +0.000 C 
ATOM     11  O   UNL     1      47.903   1.300   6.483  0.00  0.00    +0.000 OA
ATOM     12  H   UNL     1      47.317  -1.008   7.096  0.00  0.00    +0.000 HD
ATOM     13  H   UNL     1      45.945  -0.614   8.070  0.00  0.00    +0.000 HD
ENDBRANCH   1  10
BRANCH   5  14
ATOM     14  C   UNL     1      43.523   5.268  10.879  0.00  0.00    +0.000 C 
BRANCH  14  15
ATOM     15  C   UNL     1      44.549   6.138  11.564  0.00  0.00    +0.000 A 
ATOM     16  C   UNL     1      44.431   7.530  11.556  0.00  0.00    +0.000 A 
ATOM     17  C   UNL     1      45.285   8.303  12.335  0.00  0.00    +0.000 A 
ATOM     18  C   UNL     1      46.253   7.689  13.136  0.00  0.00    +0.000 A 
ATOM     19  C   UNL     1      46.418   6.298  13.166  0.00  0.00    +0.000 A 
ATOM     20  C   UNL     1      45.564   5.547  12.342  0.00  0.00    +0.000 A 
BRANCH  19  21
ATOM     21  N   UNL     1      47.335   5.694  13.998  0.00  0.00    +0.000 N 
ATOM     22  C   UNL     1      47.186   4.328  14.520  0.00  0.00    +0.000 C 
ATOM     23  C   UNL     1      47.346   4.336  16.048  0.00  0.00    +0.000 C 
ATOM     24  O   UNL     1      48.590   4.936  16.448  0.00  0.00    +0.000 OA
ATOM     25  C   UNL     1      48.665   6.292  15.974  0.00  0.00    +0.000 C 
ATOM     26  C   UNL     1      48.565   6.370  14.440  0.00  0.00    +0.000 C 
ENDBRANCH  19  21
ENDBRANCH  14  15
ENDBRANCH   5  14
TORSDOF 4
ENDMDL
MODEL 3
REMARK VINA RESULT:    -7.432      2.057      2.569
REMARK INTER + INTRA:          -9.889
REMARK INTER:                  -9.288
REMARK INTRA:                  -0.600
REMARK UNBOUND:                -0.719
REMARK  Name = 
REMARK  4 active torsions:
REMARK  status: ('A' for Active; 'I' for Inactive)
REMARK    1  A    between atoms: C_2  and  C_4
REMARK    2  A    between atoms: N_8  and  C_9
REMARK    3  A    between atoms: C_9  and  C_10
REMARK    4  A    between atoms: C_14  and  N_15
REMARK                            x       y       z     vdW  Elec       q    Type
REMARK                         _______ _______ _______ _____ _____    ______ ____
ROOT
ATOM      1  C   UNL     1      46.593   2.607   7.295  0.00  0.00    +0.000 A 
ATOM      2  C   UNL     1      46.328   3.910   7.702  0.00  0.00    +0.000 A 
ATOM      3  C   UNL     1      45.533   4.119   8.829  0.00  0.00    +0.000 A 
ATOM      4  C   UNL     1      44.996   3.032   9.513  0.00  0.00    +0.000 A 
ATOM      5  N   UNL     1      44.264   3.152  10.672  0.00  0.00    +0.000 N 
ATOM      6  N   UNL     1      45.240   1.766   9.119  0.00  0.00    +0.000 NA
ATOM      7  C   UNL     1      46.019   1.577   8.018  0.00  0.00    +0.000 A 
ATOM      8  H   UNL     1      43.895   2.242  10.923  0.00  0.00    +0.000 HD
ENDROOT
BRANCH   1  10
ATOM      9  N   UNL     1      47.292   3.087   5.021  0.00  0.00    +0.000 N 
ATOM     10  C   UNL     1      47.444   2.298   6.130  0.00  0.00    +0.000 C 
ATOM     11  O   UNL     1      48.274   1.396   6.160  0.00  0.00    +0.000 OA
ATOM     12  H   UNL     1      47.944   2.927   4.263  0.00  0.00    +0.000 HD
ATOM     13  H   UNL     1      46.823   3.981   5.050  0.00  0.00    +0.000 HD
ENDBRANCH   1  10
BRANCH   5  14
ATOM     14  C   UNL     1      43.417   4.290  10.953  0.00  0.00    +0.000 C 
BRANCH  14  15
ATOM     15  C   UNL     1      44.136   5.428  11.638  0.00  0.00    +0.000 A 
ATOM     16  C   UNL     1      45.259   5.192  12.435  0.00  0.00    +0.000 A 
ATOM     17  C   UNL     1      46.008   6.262  12.913  0.00  0.00    +0.000 A 
ATOM     18  C   UNL     1      45.646   7.573  12.587  0.00  0.00    +0.000 A 
ATOM     19  C   UNL     1      44.521   7.859  11.803  0.00  0.00    +0.000 A 
ATOM     20  C   UNL     1      43.765   6.760  11.364  0.00  0.00    +0.000 A 
BRANCH  19  21
ATOM     21  N   UNL     1      44.200   9.148  11.437  0.00  0.00    +0.000 N 
ATOM     22  C   UNL     1      43.007   9.500  10.656  0.00  0.00    +0.000 C 
ATOM     23  C   UNL     1      43.413  10.355   9.445  0.00  0.00    +0.000 C 
ATOM     24  O   UNL     1      44.163  11.516   9.844  0.00  0.00    +0.000 OA
ATOM     25  C   UNL     1      45.354  11.123  10.545  0.00  0.00    +0.000 C 
ATOM     26  C   UNL     1      45.033  10.304  11.808  0.00  0.00    +0.000 C 
ENDBRANCH  19  21
ENDBRANCH  14  15
ENDBRANCH   5  14
TORSDOF 4
ENDMDL
MODEL 4
REMARK VINA RESULT:    -6.843      3.997      8.382
REMARK INTER + INTRA:          -9.161
REMARK INTER:                  -8.756
REMARK INTRA:                  -0.406
REMARK UNBOUND:                -0.719
REMARK  Name = 
REMARK  4 active torsions:
REMARK  status: ('A' for Active; 'I' for Inactive)
REMARK    1  A    between atoms: C_2  and  C_4
REMARK    2  A    between atoms: N_8  and  C_9
REMARK    3  A    between atoms: C_9  and  C_10
REMARK    4  A    between atoms: C_14  and  N_15
REMARK                            x       y       z     vdW  Elec       q    Type
REMARK                         _______ _______ _______ _____ _____    ______ ____
ROOT
ATOM      1  C   UNL     1      49.176   4.687  18.179  0.00  0.00    +0.000 A 
ATOM      2  C   UNL     1      49.217   5.633  17.159  0.00  0.00    +0.000 A 
ATOM      3  C   UNL     1      48.301   5.537  16.112  0.00  0.00    +0.000 A 
ATOM      4  C   UNL     1      47.381   4.493  16.084  0.00  0.00    +0.000 A 
ATOM      5  N   UNL     1      46.401   4.371  15.125  0.00  0.00    +0.000 N 
ATOM      6  N   UNL     1      47.342   3.567  17.063  0.00  0.00    +0.000 NA
ATOM      7  C   UNL     1      48.241   3.673  18.080  0.00  0.00    +0.000 A 
ATOM      8  H   UNL     1      45.927   3.484  15.251  0.00  0.00    +0.000 HD
ENDROOT
BRANCH   1  10
ATOM      9  N   UNL     1      49.589   4.332  20.544  0.00  0.00    +0.000 N 
ATOM     10  C   UNL     1      50.092   4.729  19.335  0.00  0.00    +0.000 C 
ATOM     11  O   UNL     1      51.263   5.074  19.215  0.00  0.00    +0.000 OA
ATOM     12  H   UNL     1      50.250   4.276  21.309  0.00  0.00    +0.000 HD
ATOM     13  H   UNL     1      48.733   3.804  20.629  0.00  0.00    +0.000 HD
ENDBRANCH   1  10
BRANCH   5  14
ATOM     14  C   UNL     1      46.574   4.821  13.761  0.00  0.00    +0.000 C 
BRANCH  14  15
ATOM     15  C   UNL     1      45.380   4.549  12.878  0.00  0.00    +0.000 A 
ATOM     16  C   UNL     1      44.110   5.021  13.220  0.00  0.00    +0.000 A 
ATOM     17  C   UNL     1      43.062   4.912  12.312  0.00  0.00    +0.000 A 
ATOM     18  C   UNL     1      43.279   4.342  11.054  0.00  0.00    +0.000 A 
ATOM     19  C   UNL     1      44.531   3.842  10.672  0.00  0.00    +0.000 A 
ATOM     20  C   UNL     1      45.561   3.935  11.622  0.00  0.00    +0.000 A 
BRANCH  19  21
ATOM     21  N   UNL     1      44.755   3.333   9.411  0.00  0.00    +0.000 N 
ATOM     22  C   UNL     1      44.744   1.897   9.099  0.00  0.00    +0.000 C 
ATOM     23  C   UNL     1      46.037   1.517   8.360  0.00  0.00    +0.000 C 
ATOM     24  O   UNL     1      46.233   2.325   7.187  0.00  0.00    +0.000 OA
ATOM     25  C   UNL     1      46.304   3.716   7.546  0.00  0.00    +0.000 C 
ATOM     26  C   UNL     1      45.021   4.194   8.248  0.00  0.00    +0.000 C 
ENDBRANCH  19  21
ENDBRANCH  14  15
ENDBRANCH   5  14
TORSDOF 4
ENDMDL
MODEL 5
REMARK VINA RESULT:    -6.594      2.043      7.065
REMARK INTER + INTRA:          -8.854
REMARK INTER:                  -8.221
REMARK INTRA:                  -0.633
REMARK UNBOUND:                -0.719
REMARK  Name = 
REMARK  4 active torsions:
REMARK  status: ('A' for Active; 'I' for Inactive)
REMARK    1  A    between atoms: C_2  and  C_4
REMARK    2  A    between atoms: N_8  and  C_9
REMARK    3  A    between atoms: C_9  and  C_10
REMARK    4  A    between atoms: C_14  and  N_15
REMARK                            x       y       z     vdW  Elec       q    Type
REMARK                         _______ _______ _______ _____ _____    ______ ____
ROOT
ATOM      1  C   UNL     1      49.956   8.121  12.795  0.00  0.00    +0.000 A 
ATOM      2  C   UNL     1      49.080   8.492  11.781  0.00  0.00    +0.000 A 
ATOM      3  C   UNL     1      47.722   8.201  11.920  0.00  0.00    +0.000 A 
ATOM      4  C   UNL     1      47.268   7.526  13.049  0.00  0.00    +0.000 A 
ATOM      5  N   UNL     1      45.938   7.268  13.293  0.00  0.00    +0.000 N 
ATOM      6  N   UNL     1      48.113   7.154  14.031  0.00  0.00    +0.000 NA
ATOM      7  C   UNL     1      49.434   7.445  13.882  0.00  0.00    +0.000 A 
ATOM      8  H   UNL     1      45.864   6.678  14.114  0.00  0.00    +0.000 HD
ENDROOT
BRANCH   1  10
ATOM      9  N   UNL     1      52.047   8.604  13.929  0.00  0.00    +0.000 N 
ATOM     10  C   UNL     1      51.402   8.411  12.737  0.00  0.00    +0.000 C 
ATOM     11  O   UNL     1      52.009   8.447  11.672  0.00  0.00    +0.000 OA
ATOM     12  H   UNL     1      53.053   8.710  13.884  0.00  0.00    +0.000 HD
ATOM     13  H   UNL     1      51.648   8.327  14.814  0.00  0.00    +0.000 HD
ENDBRANCH   1  10
BRANCH   5  14
ATOM     14  C   UNL     1      44.976   7.029  12.240  0.00  0.00    +0.000 C 
BRANCH  14  15
ATOM     15  C   UNL     1      44.695   5.565  11.996  0.00  0.00    +0.000 A 
ATOM     16  C   UNL     1      43.953   4.814  12.911  0.00  0.00    +0.000 A 
ATOM     17  C   UNL     1      43.558   3.520  12.587  0.00  0.00    +0.000 A 
ATOM     18  C   UNL     1      43.891   2.975  11.344  0.00  0.00    +0.000 A 
ATOM     19  C   UNL     1      44.646   3.685  10.400  0.00  0.00    +0.000 A 
ATOM     20  C   UNL     1      45.059   4.975  10.769  0.00  0.00    +0.000 A 
BRANCH  19  21
ATOM     21  N   UNL     1      44.924   3.165   9.155  0.00  0.00    +0.000 N 
ATOM     22  C   UNL     1      44.971   1.725   8.865  0.00  0.00    +0.000 C 
ATOM     23  C   UNL     1      46.298   1.379   8.170  0.00  0.00    +0.000 C 
ATOM     24  O   UNL     1      46.502   2.177   6.991  0.00  0.00    +0.000 OA
ATOM     25  C   UNL     1      46.515   3.574   7.330  0.00  0.00    +0.000 C 
ATOM     26  C   UNL     1      45.196   4.018   7.987  0.00  0.00    +0.000 C 
ENDBRANCH  19  21
ENDBRANCH  14  15
ENDBRANCH   5  14
TORSDOF 4
ENDMDL
MODEL 6
REMARK VINA RESULT:    -6.301      5.191      8.144
REMARK INTER + INTRA:          -8.493
REMARK INTER:                  -7.951
REMARK INTRA:                  -0.542
REMARK UNBOUND:                -0.719
REMARK  Name = 
REMARK  4 active torsions:
REMARK  status: ('A' for Active; 'I' for Inactive)
REMARK    1  A    between atoms: C_2  and  C_4
REMARK    2  A    between atoms: N_8  and  C_9
REMARK    3  A    between atoms: C_9  and  C_10
REMARK    4  A    between atoms: C_14  and  N_15
REMARK                            x       y       z     vdW  Elec       q    Type
REMARK                         _______ _______ _______ _____ _____    ______ ____
ROOT
ATOM      1  C   UNL     1      51.279   2.601  17.581  0.00  0.00    +0.000 A 
ATOM      2  C   UNL     1      51.635   3.941  17.465  0.00  0.00    +0.000 A 
ATOM      3  C   UNL     1      50.673   4.862  17.048  0.00  0.00    +0.000 A 
ATOM      4  C   UNL     1      49.389   4.432  16.729  0.00  0.00    +0.000 A 
ATOM      5  N   UNL     1      48.368   5.287  16.381  0.00  0.00    +0.000 N 
ATOM      6  N   UNL     1      49.039   3.134  16.830  0.00  0.00    +0.000 NA
ATOM      7  C   UNL     1      49.987   2.246  17.239  0.00  0.00    +0.000 A 
ATOM      8  H   UNL     1      47.564   4.739  16.095  0.00  0.00    +0.000 HD
ENDROOT
BRANCH   1  10
ATOM      9  N   UNL     1      51.765   0.279  18.096  0.00  0.00    +0.000 N 
ATOM     10  C   UNL     1      52.227   1.567  18.038  0.00  0.00    +0.000 C 
ATOM     11  O   UNL     1      53.388   1.840  18.323  0.00  0.00    +0.000 OA
ATOM     12  H   UNL     1      52.448  -0.433  18.320  0.00  0.00    +0.000 HD
ATOM     13  H   UNL     1      50.920  -0.016  17.628  0.00  0.00    +0.000 HD
ENDBRANCH   1  10
BRANCH   5  14
ATOM     14  C   UNL     1      48.588   6.527  15.671  0.00  0.00    +0.000 C 
BRANCH  14  15
ATOM     15  C   UNL     1      47.898   6.588  14.329  0.00  0.00    +0.000 A 
ATOM     16  C   UNL     1      48.465   7.287  13.261  0.00  0.00    +0.000 A 
ATOM     17  C   UNL     1      47.905   7.187  11.991  0.00  0.00    +0.000 A 
ATOM     18  C   UNL     1      46.784   6.379  11.780  0.00  0.00    +0.000 A 
ATOM     19  C   UNL     1      46.173   5.670  12.823  0.00  0.00    +0.000 A 
ATOM     20  C   UNL     1      46.740   5.819  14.099  0.00  0.00    +0.000 A 
BRANCH  19  21
ATOM     21  N   UNL     1      45.103   4.831  12.600  0.00  0.00    +0.000 N 
ATOM     22  C   UNL     1      45.241   3.434  12.167  0.00  0.00    +0.000 C 
ATOM     23  C   UNL     1      44.370   3.188  10.925  0.00  0.00    +0.000 C 
ATOM     24  O   UNL     1      42.999   3.550  11.159  0.00  0.00    +0.000 OA
ATOM     25  C   UNL     1      42.904   4.940  11.514  0.00  0.00    +0.000 C 
ATOM     26  C   UNL     1      43.709   5.264  12.786  0.00  0.00    +0.000 C 
ENDBRANCH  19  21
ENDBRANCH  14  15
ENDBRANCH   5  14
TORSDOF 4
ENDMDL
MODEL 7
REMARK VINA RESULT:    -6.235      1.710      7.039
REMARK INTER + INTRA:          -8.411
REMARK INTER:                  -7.620
REMARK INTRA:                  -0.791
REMARK UNBOUND:                -0.719
REMARK  Name = 
REMARK  4 active torsions:
REMARK  status: ('A' for Active; 'I' for Inactive)
REMARK    1  A    between atoms: C_2  and  C_4
REMARK    2  A    between atoms: N_8  and  C_9
REMARK    3  A    between atoms: C_9  and  C_10
REMARK    4  A    between atoms: C_14  and  N_15
REMARK                            x       y       z     vdW  Elec       q    Type
REMARK                         _______ _______ _______ _____ _____    ______ ____
ROOT
ATOM      1  C   UNL     1      48.446   9.082  12.314  0.00  0.00    +0.000 A 
ATOM      2  C   UNL     1      47.447   8.918  13.268  0.00  0.00    +0.000 A 
ATOM      3  C   UNL     1      47.081   7.627  13.648  0.00  0.00    +0.000 A 
ATOM      4  C   UNL     1      47.694   6.526  13.056  0.00  0.00    +0.000 A 
ATOM      5  N   UNL     1      47.440   5.226  13.429  0.00  0.00    +0.000 N 
ATOM      6  N   UNL     1      48.656   6.677  12.124  0.00  0.00    +0.000 NA
ATOM      7  C   UNL     1      49.004   7.943  11.763  0.00  0.00    +0.000 A 
ATOM      8  H   UNL     1      47.920   4.602  12.791  0.00  0.00    +0.000 HD
ENDROOT
BRANCH   1  10
ATOM      9  N   UNL     1      49.918  10.992  12.595  0.00  0.00    +0.000 N 
ATOM     10  C   UNL     1      48.910  10.412  11.873  0.00  0.00    +0.000 C 
ATOM     11  O   UNL     1      48.437  10.962  10.884  0.00  0.00    +0.000 OA
ATOM     12  H   UNL     1      50.290  11.859  12.230  0.00  0.00    +0.000 HD
ATOM     13  H   UNL     1      50.497  10.469  13.236  0.00  0.00    +0.000 HD
ENDBRANCH   1  10
BRANCH   5  14
ATOM     14  C   UNL     1      46.151   4.784  13.914  0.00  0.00    +0.000 C 
BRANCH  14  15
ATOM     15  C   UNL     1      45.083   4.741  12.847  0.00  0.00    +0.000 A 
ATOM     16  C   UNL     1      43.909   5.487  12.975  0.00  0.00    +0.000 A 
ATOM     17  C   UNL     1      43.021   5.571  11.909  0.00  0.00    +0.000 A 
ATOM     18  C   UNL     1      43.306   4.920  10.704  0.00  0.00    +0.000 A 
ATOM     19  C   UNL     1      44.464   4.149  10.534  0.00  0.00    +0.000 A 
ATOM     20  C   UNL     1      45.324   4.055  11.640  0.00  0.00    +0.000 A 
BRANCH  19  21
ATOM     21  N   UNL     1      44.769   3.556   9.328  0.00  0.00    +0.000 N 
ATOM     22  C   UNL     1      44.581   2.125   9.054  0.00  0.00    +0.000 C 
ATOM     23  C   UNL     1      45.885   1.525   8.506  0.00  0.00    +0.000 C 
ATOM     24  O   UNL     1      46.354   2.242   7.351  0.00  0.00    +0.000 OA
ATOM     25  C   UNL     1      46.589   3.621   7.681  0.00  0.00    +0.000 C 
ATOM     26  C   UNL     1      45.313   4.315   8.191  0.00  0.00    +0.000 C 
ENDBRANCH  19  21
ENDBRANCH  14  15
ENDBRANCH   5  14
TORSDOF 4
ENDMDL
MODEL 8
REMARK VINA RESULT:    -6.107      3.077      5.454
REMARK INTER + INTRA:          -8.254
REMARK INTER:                  -7.609
REMARK INTRA:                  -0.645
REMARK UNBOUND:                -0.719
REMARK  Name = 
REMARK  4 active torsions:
REMARK  status: ('A' for Active; 'I' for Inactive)
REMARK    1  A    between atoms: C_2  and  C_4
REMARK    2  A    between atoms: N_8  and  C_9
REMARK    3  A    between atoms: C_9  and  C_10
REMARK    4  A    between atoms: C_14  and  N_15
REMARK                            x       y       z     vdW  Elec       q    Type
REMARK                         _______ _______ _______ _____ _____    ______ ____
ROOT
ATOM      1  C   UNL     1      44.559   4.088  11.592  0.00  0.00    +0.000 A 
ATOM      2  C   UNL     1      44.543   5.303  10.914  0.00  0.00    +0.000 A 
ATOM      3  C   UNL     1      45.156   6.411  11.499  0.00  0.00    +0.000 A 
ATOM      4  C   UNL     1      45.749   6.298  12.753  0.00  0.00    +0.000 A 
ATOM      5  N   UNL     1      46.436   7.324  13.361  0.00  0.00    +0.000 N 
ATOM      6  N   UNL     1      45.761   5.126  13.420  0.00  0.00    +0.000 NA
ATOM      7  C   UNL     1      45.159   4.053  12.837  0.00  0.00    +0.000 A 
ATOM      8  H   UNL     1      46.683   7.040  14.303  0.00  0.00    +0.000 HD
ENDROOT
BRANCH   1  10
ATOM      9  N   UNL     1      44.587   2.286   9.965  0.00  0.00    +0.000 N 
ATOM     10  C   UNL     1      43.955   2.862  11.034  0.00  0.00    +0.000 C 
ATOM     11  O   UNL     1      42.949   2.361  11.525  0.00  0.00    +0.000 OA
ATOM     12  H   UNL     1      44.219   1.397   9.651  0.00  0.00    +0.000 HD
ATOM     13  H   UNL     1      45.537   2.512   9.709  0.00  0.00    +0.000 HD
ENDBRANCH   1  10
BRANCH   5  14
ATOM     14  C   UNL     1      46.094   8.717  13.178  0.00  0.00    +0.000 C 
BRANCH  14  15
ATOM     15  C   UNL     1      47.033   9.456  12.255  0.00  0.00    +0.000 A 
ATOM     16  C   UNL     1      46.688  10.701  11.725  0.00  0.00    +0.000 A 
ATOM     17  C   UNL     1      47.632  11.441  11.021  0.00  0.00    +0.000 A 
ATOM     18  C   UNL     1      48.929  10.947  10.854  0.00  0.00    +0.000 A 
ATOM     19  C   UNL     1      49.318   9.697  11.355  0.00  0.00    +0.000 A 
ATOM     20  C   UNL     1      48.333   8.959  12.031  0.00  0.00    +0.000 A 
BRANCH  19  21
ATOM     21  N   UNL     1      50.612   9.239  11.237  0.00  0.00    +0.000 N 
ATOM     22  C   UNL     1      51.758  10.106  10.934  0.00  0.00    +0.000 C 
ATOM     23  C   UNL     1      52.540   9.533   9.740  0.00  0.00    +0.000 C 
ATOM     24  O   UNL     1      52.937   8.171   9.972  0.00  0.00    +0.000 OA
ATOM     25  C   UNL     1      51.781   7.346  10.198  0.00  0.00    +0.000 C 
ATOM     26  C   UNL     1      50.966   7.821  11.415  0.00  0.00    +0.000 C 
ENDBRANCH  19  21
ENDBRANCH  14  15
ENDBRANCH   5  14
TORSDOF 4
ENDMDL
MODEL 9
REMARK VINA RESULT:    -6.098      4.080      6.408
REMARK INTER + INTRA:          -8.243
REMARK INTER:                  -7.619
REMARK INTRA:                  -0.624
REMARK UNBOUND:                -0.719
REMARK  Name = 
REMARK  4 active torsions:
REMARK  status: ('A' for Active; 'I' for Inactive)
REMARK    1  A    between atoms: C_2  and  C_4
REMARK    2  A    between atoms: N_8  and  C_9
REMARK    3  A    between atoms: C_9  and  C_10
REMARK    4  A    between atoms: C_14  and  N_15
REMARK                            x       y       z     vdW  Elec       q    Type
REMARK                         _______ _______ _______ _____ _____    ______ ____
ROOT
ATOM      1  C   UNL     1      44.702   4.512  12.085  0.00  0.00    +0.000 A 
ATOM      2  C   UNL     1      45.874   4.346  12.814  0.00  0.00    +0.000 A 
ATOM      3  C   UNL     1      46.554   5.476  13.268  0.00  0.00    +0.000 A 
ATOM      4  C   UNL     1      46.071   6.746  12.967  0.00  0.00    +0.000 A 
ATOM      5  N   UNL     1      46.644   7.905  13.440  0.00  0.00    +0.000 N 
ATOM      6  N   UNL     1      44.941   6.916  12.253  0.00  0.00    +0.000 NA
ATOM      7  C   UNL     1      44.287   5.804  11.817  0.00  0.00    +0.000 A 
ATOM      8  H   UNL     1      46.185   8.698  13.005  0.00  0.00    +0.000 HD
ENDROOT
BRANCH   1  10
ATOM      9  N   UNL     1      43.742   2.310  12.438  0.00  0.00    +0.000 N 
ATOM     10  C   UNL     1      43.909   3.370  11.588  0.00  0.00    +0.000 C 
ATOM     11  O   UNL     1      43.394   3.381  10.475  0.00  0.00    +0.000 OA
ATOM     12  H   UNL     1      43.121   1.576  12.123  0.00  0.00    +0.000 HD
ATOM     13  H   UNL     1      43.920   2.376  13.430  0.00  0.00    +0.000 HD
ENDBRANCH   1  10
BRANCH   5  14
ATOM     14  C   UNL     1      48.062   8.039  13.688  0.00  0.00    +0.000 C 
BRANCH  14  15
ATOM     15  C   UNL     1      48.436   7.925  15.146  0.00  0.00    +0.000 A 
ATOM     16  C   UNL     1      48.331   9.023  16.003  0.00  0.00    +0.000 A 
ATOM     17  C   UNL     1      48.513   8.855  17.372  0.00  0.00    +0.000 A 
ATOM     18  C   UNL     1      48.788   7.587  17.893  0.00  0.00    +0.000 A 
ATOM     19  C   UNL     1      48.917   6.459  17.072  0.00  0.00    +0.000 A 
ATOM     20  C   UNL     1      48.763   6.667  15.691  0.00  0.00    +0.000 A 
BRANCH  19  21
ATOM     21  N   UNL     1      49.132   5.202  17.594  0.00  0.00    +0.000 N 
ATOM     22  C   UNL     1      50.410   4.770  18.176  0.00  0.00    +0.000 C 
ATOM     23  C   UNL     1      50.857   3.451  17.526  0.00  0.00    +0.000 C 
ATOM     24  O   UNL     1      49.843   2.438  17.632  0.00  0.00    +0.000 OA
ATOM     25  C   UNL     1      48.632   2.875  16.992  0.00  0.00    +0.000 C 
ATOM     26  C   UNL     1      48.085   4.169  17.621  0.00  0.00    +0.000 C 
ENDBRANCH  19  21
ENDBRANCH  14  15
ENDBRANCH   5  14
TORSDOF 4
ENDMDL
