MODEL 1
REMARK VINA RESULT:    -7.388      0.000      0.000
REMARK INTER + INTRA:          -9.665
REMARK INTER:                  -9.115
REMARK INTRA:                  -0.550
REMARK UNBOUND:                -0.550
REMARK  Name = 
REMARK  5 active torsions:
REMARK  status: ('A' for Active; 'I' for Inactive)
REMARK    1  A    between atoms: C_1  and  C_2
REMARK    2  A    between atoms: C_2  and  C_3
REMARK    3  A    between atoms: C_2  and  C_14
REMARK    4  A    between atoms: C_3  and  N_4
REMARK    5  A    between atoms: C_8  and  C_9
REMARK                            x       y       z     vdW  Elec       q    Type
REMARK                         _______ _______ _______ _____ _____    ______ ____
ROOT
ATOM      1  N   UNL     1      44.052   2.659  10.414  0.00  0.00    +0.000 N 
ATOM      2  C   UNL     1      44.931   2.596   9.309  0.00  0.00    +0.000 A 
ATOM      3  C   UNL     1      45.446   1.360   8.888  0.00  0.00    +0.000 A 
ATOM      4  N   UNL     1      46.291   1.200   7.830  0.00  0.00    +0.000 NA
ATOM      5  C   UNL     1      46.629   2.361   7.204  0.00  0.00    +0.000 A 
ATOM      6  C   UNL     1      46.149   3.591   7.616  0.00  0.00    +0.000 A 
ATOM      7  N   UNL     1      45.302   3.727   8.668  0.00  0.00    +0.000 NA
ATOM      8  H   UNL     1      43.281   2.022  10.242  0.00  0.00    +0.000 HD
ENDROOT
BRANCH   5   9
ATOM      9  C   UNL     1      47.545   2.292   6.031  0.00  0.00    +0.000 C 
ATOM     10  N   UNL     1      47.311   3.193   5.030  0.00  0.00    +0.000 N 
ATOM     11  O   UNL     1      48.466   1.489   5.969  0.00  0.00    +0.000 OA
ATOM     12  H   UNL     1      46.541   3.849   5.101  0.00  0.00    +0.000 HD
ATOM     13  H   UNL     1      47.907   3.188   4.214  0.00  0.00    +0.000 HD
ENDBRANCH   5   9
BRANCH   1  14
ATOM     14  C   UNL     1      43.591   4.018  10.674  0.00  0.00    +0.000 C 
BRANCH  14  16
ATOM     15  C   UNL     1      42.924   5.149  12.901  0.00  0.00    +0.000 C 
ATOM     16  C   UNL     1      43.970   4.460  12.068  0.00  0.00    +0.000 C 
BRANCH  16  17
ATOM     17  C   UNL     1      45.425   4.912  12.222  0.00  0.00    +0.000 C 
ATOM     18  C   UNL     1      45.913   4.957  13.683  0.00  0.00    +0.000 C 
ATOM     19  C   UNL     1      47.326   5.529  13.809  0.00  0.00    +0.000 C 
ATOM     20  C   UNL     1      47.438   6.893  13.138  0.00  0.00    +0.000 C 
ATOM     21  C   UNL     1      47.051   6.803  11.668  0.00  0.00    +0.000 C 
ATOM     22  C   UNL     1      45.637   6.259  11.503  0.00  0.00    +0.000 C 
ENDBRANCH  16  17
ENDBRANCH  14  16
ENDBRANCH   1  14
TORSDOF 4
ENDMDL
MODEL 2
REMARK VINA RESULT:    -7.003      1.230      2.142
REMARK INTER + INTRA:          -9.191
REMARK INTER:                  -8.800
REMARK INTRA:                  -0.391
REMARK UNBOUND:                -0.550
REMARK  Name = 
REMARK  5 active torsions:
REMARK  status: ('A' for Active; 'I' for Inactive)
REMARK    1  A    between atoms: C_1  and  C_2
REMARK    2  A    between atoms: C_2  and  C_3
REMARK    3  A    between atoms: C_2  and  C_14
REMARK    4  A    between atoms: C_3  and  N_4
REMARK    5  A    between atoms: C_8  and  C_9
REMARK                            x       y       z     vdW  Elec       q    Type
REMARK                         _______ _______ _______ _____ _____    ______ ____
ROOT
ATOM      1  N   UNL     1      44.077   4.961   9.814  0.00  0.00    +0.000 N 
ATOM      2  C   UNL     1      44.831   3.947   9.180  0.00  0.00    +0.000 A 
ATOM      3  C   UNL     1      45.659   4.263   8.091  0.00  0.00    +0.000 A 
ATOM      4  N   UNL     1      46.429   3.357   7.423  0.00  0.00    +0.000 NA
ATOM      5  C   UNL     1      46.318   2.080   7.884  0.00  0.00    +0.000 A 
ATOM      6  C   UNL     1      45.490   1.745   8.942  0.00  0.00    +0.000 A 
ATOM      7  N   UNL     1      44.739   2.666   9.598  0.00  0.00    +0.000 NA
ATOM      8  H   UNL     1      44.712   5.703  10.088  0.00  0.00    +0.000 HD
ENDROOT
BRANCH   5   9
ATOM      9  C   UNL     1      47.123   1.016   7.224  0.00  0.00    +0.000 C 
ATOM     10  N   UNL     1      46.833  -0.270   7.584  0.00  0.00    +0.000 N 
ATOM     11  O   UNL     1      47.985   1.271   6.392  0.00  0.00    +0.000 OA
ATOM     12  H   UNL     1      46.117  -0.459   8.275  0.00  0.00    +0.000 HD
ATOM     13  H   UNL     1      47.351  -1.029   7.161  0.00  0.00    +0.000 HD
ENDBRANCH   5   9
BRANCH   1  14
ATOM     14  C   UNL     1      43.312   4.450  10.945  0.00  0.00    +0.000 C 
BRANCH  14  16
ATOM     15  C   UNL     1      42.252   6.686  11.694  0.00  0.00    +0.000 C 
ATOM     16  C   UNL     1      43.140   5.512  12.005  0.00  0.00    +0.000 C 
BRANCH  16  17
ATOM     17  C   UNL     1      44.378   5.757  12.872  0.00  0.00    +0.000 C 
ATOM     18  C   UNL     1      45.262   6.920  12.383  0.00  0.00    +0.000 C 
ATOM     19  C   UNL     1      46.550   7.058  13.198  0.00  0.00    +0.000 C 
ATOM     20  C   UNL     1      47.324   5.745  13.243  0.00  0.00    +0.000 C 
ATOM     21  C   UNL     1      46.464   4.633  13.828  0.00  0.00    +0.000 C 
ATOM     22  C   UNL     1      45.180   4.450  13.026  0.00  0.00    +0.000 C 
ENDBRANCH  16  17
ENDBRANCH  14  16
ENDBRANCH   1  14
TORSDOF 4
ENDMDL
MODEL 3
REMARK VINA RESULT:    -6.982      3.837      6.966
REMARK INTER + INTRA:          -9.165
REMARK INTER:                  -8.793
REMARK INTRA:                  -0.372
REMARK UNBOUND:                -0.550
REMARK  Name = 
REMARK  5 active torsions:
REMARK  status: ('A' for Active; 'I' for Inactive)
REMARK    1  A    between atoms: C_1  and  C_2
REMARK    2  A    between atoms: C_2  and  C_3
REMARK    3  A    between atoms: C_2  and  C_14
REMARK    4  A    between atoms: C_3  and  N_4
REMARK    5  A    between atoms: C_8  and  C_9
REMARK                            x       y       z     vdW  Elec       q    Type
REMARK                         _______ _______ _______ _____ _____    ______ ____
ROOT
ATOM      1  N   UNL     1      44.608   5.753  10.428  0.00  0.00    +0.000 N 
ATOM      2  C   UNL     1      45.421   6.531  11.284  0.00  0.00    +0.000 A 
ATOM      3  C   UNL     1      44.834   7.338  12.270  0.00  0.00    +0.000 A 
ATOM      4  N   UNL     1      45.535   8.115  13.145  0.00  0.00    +0.000 NA
ATOM      5  C   UNL     1      46.885   8.069  12.975  0.00  0.00    +0.000 A 
ATOM      6  C   UNL     1      47.482   7.296  11.995  0.00  0.00    +0.000 A 
ATOM      7  N   UNL     1      46.764   6.524  11.139  0.00  0.00    +0.000 NA
ATOM      8  H   UNL     1      44.000   5.179  11.004  0.00  0.00    +0.000 HD
ENDROOT
BRANCH   5   9
ATOM      9  C   UNL     1      47.741   8.879  13.886  0.00  0.00    +0.000 C 
ATOM     10  N   UNL     1      47.270   9.057  15.156  0.00  0.00    +0.000 N 
ATOM     11  O   UNL     1      48.815   9.346  13.529  0.00  0.00    +0.000 OA
ATOM     12  H   UNL     1      46.377   8.662  15.431  0.00  0.00    +0.000 HD
ATOM     13  H   UNL     1      47.816   9.597  15.813  0.00  0.00    +0.000 HD
ENDBRANCH   5   9
BRANCH   1  14
ATOM     14  C   UNL     1      45.396   4.952   9.499  0.00  0.00    +0.000 C 
BRANCH  14  16
ATOM     15  C   UNL     1      44.091   2.885  10.342  0.00  0.00    +0.000 C 
ATOM     16  C   UNL     1      44.709   3.641   9.197  0.00  0.00    +0.000 C 
BRANCH  16  17
ATOM     17  C   UNL     1      45.343   2.834   8.061  0.00  0.00    +0.000 C 
ATOM     18  C   UNL     1      46.008   1.522   8.523  0.00  0.00    +0.000 C 
ATOM     19  C   UNL     1      46.736   0.804   7.385  0.00  0.00    +0.000 C 
ATOM     20  C   UNL     1      47.733   1.726   6.692  0.00  0.00    +0.000 C 
ATOM     21  C   UNL     1      47.034   2.966   6.151  0.00  0.00    +0.000 C 
ATOM     22  C   UNL     1      46.317   3.722   7.263  0.00  0.00    +0.000 C 
ENDBRANCH  16  17
ENDBRANCH  14  16
ENDBRANCH   1  14
TORSDOF 4
ENDMDL
MODEL 4
REMARK VINA RESULT:    -6.590      3.623      6.133
REMARK INTER + INTRA:          -8.681
REMARK INTER:                  -8.141
REMARK INTRA:                  -0.540
REMARK UNBOUND:                -0.550
REMARK  Name = 
REMARK  5 active torsions:
REMARK  status: ('A' for Active; 'I' for Inactive)
REMARK    1  A    between atoms: C_1  and  C_2
REMARK    2  A    between atoms: C_2  and  C_3
REMARK    3  A    between atoms: C_2  and  C_14
REMARK    4  A    between atoms: C_3  and  N_4
REMARK    5  A    between atoms: C_8  and  C_9
REMARK                            x       y       z     vdW  Elec       q    Type
REMARK                         _______ _______ _______ _____ _____    ______ ____
ROOT
ATOM      1  N   UNL     1      45.007   4.694  12.722  0.00  0.00    +0.000 N 
ATOM      2  C   UNL     1      46.193   5.465  12.707  0.00  0.00    +0.000 A 
ATOM      3  C   UNL     1      47.115   5.358  13.760  0.00  0.00    +0.000 A 
ATOM      4  N   UNL     1      48.286   6.053  13.829  0.00  0.00    +0.000 NA
ATOM      5  C   UNL     1      48.496   6.901  12.784  0.00  0.00    +0.000 A 
ATOM      6  C   UNL     1      47.589   7.037  11.748  0.00  0.00    +0.000 A 
ATOM      7  N   UNL     1      46.431   6.329  11.696  0.00  0.00    +0.000 NA
ATOM      8  H   UNL     1      45.265   3.720  12.836  0.00  0.00    +0.000 HD
ENDROOT
BRANCH   5   9
ATOM      9  C   UNL     1      49.751   7.702  12.764  0.00  0.00    +0.000 C 
ATOM     10  N   UNL     1      50.676   7.349  11.822  0.00  0.00    +0.000 N 
ATOM     11  O   UNL     1      49.942   8.636  13.532  0.00  0.00    +0.000 OA
ATOM     12  H   UNL     1      50.498   6.571  11.196  0.00  0.00    +0.000 HD
ATOM     13  H   UNL     1      51.543   7.865  11.766  0.00  0.00    +0.000 HD
ENDBRANCH   5   9
BRANCH   1  14
ATOM     14  C   UNL     1      44.197   4.910  11.529  0.00  0.00    +0.000 C 
BRANCH  14  16
ATOM     15  C   UNL     1      43.394   2.457  11.379  0.00  0.00    +0.000 C 
ATOM     16  C   UNL     1      44.064   3.636  10.728  0.00  0.00    +0.000 C 
BRANCH  16  17
ATOM     17  C   UNL     1      45.223   3.363   9.764  0.00  0.00    +0.000 C 
ATOM     18  C   UNL     1      45.413   4.454   8.692  0.00  0.00    +0.000 C 
ATOM     19  C   UNL     1      46.496   4.090   7.675  0.00  0.00    +0.000 C 
ATOM     20  C   UNL     1      46.235   2.725   7.047  0.00  0.00    +0.000 C 
ATOM     21  C   UNL     1      46.156   1.647   8.119  0.00  0.00    +0.000 C 
ATOM     22  C   UNL     1      45.068   1.963   9.139  0.00  0.00    +0.000 C 
ENDBRANCH  16  17
ENDBRANCH  14  16
ENDBRANCH   1  14
TORSDOF 4
ENDMDL
MODEL 5
REMARK VINA RESULT:    -6.565      4.456      7.348
REMARK INTER + INTRA:          -8.650
REMARK INTER:                  -8.294
REMARK INTRA:                  -0.356
REMARK UNBOUND:                -0.550
REMARK  Name = 
REMARK  5 active torsions:
REMARK  status: ('A' for Active; 'I' for Inactive)
REMARK    1  A    between atoms: C_1  and  C_2
REMARK    2  A    between atoms: C_2  and  C_3
REMARK    3  A    between atoms: C_2  and  C_14
REMARK    4  A    between atoms: C_3  and  N_4
REMARK    5  A    between atoms: C_8  and  C_9
REMARK                            x       y       z     vdW  Elec       q    Type
REMARK                         _______ _______ _______ _____ _____    ______ ____
ROOT
ATOM      1  N   UNL     1      46.298   5.457  12.537  0.00  0.00    +0.000 N 
ATOM      2  C   UNL     1      46.880   5.230  13.805  0.00  0.00    +0.000 A 
ATOM      3  C   UNL     1      47.893   6.080  14.277  0.00  0.00    +0.000 A 
ATOM      4  N   UNL     1      48.507   5.946  15.487  0.00  0.00    +0.000 NA
ATOM      5  C   UNL     1      48.071   4.884  16.221  0.00  0.00    +0.000 A 
ATOM      6  C   UNL     1      47.089   4.023  15.764  0.00  0.00    +0.000 A 
ATOM      7  N   UNL     1      46.486   4.180  14.558  0.00  0.00    +0.000 NA
ATOM      8  H   UNL     1      45.964   6.414  12.509  0.00  0.00    +0.000 HD
ENDROOT
BRANCH   5   9
ATOM      9  C   UNL     1      48.676   4.655  17.563  0.00  0.00    +0.000 C 
ATOM     10  N   UNL     1      47.884   4.023  18.480  0.00  0.00    +0.000 N 
ATOM     11  O   UNL     1      49.821   4.995  17.829  0.00  0.00    +0.000 OA
ATOM     12  H   UNL     1      46.938   3.751  18.239  0.00  0.00    +0.000 HD
ATOM     13  H   UNL     1      48.250   3.841  19.404  0.00  0.00    +0.000 HD
ENDBRANCH   5   9
BRANCH   1  14
ATOM     14  C   UNL     1      45.240   4.499  12.239  0.00  0.00    +0.000 C 
BRANCH  14  16
ATOM     15  C   UNL     1      43.059   5.571  11.356  0.00  0.00    +0.000 C 
ATOM     16  C   UNL     1      44.405   4.962  11.069  0.00  0.00    +0.000 C 
BRANCH  16  17
ATOM     17  C   UNL     1      44.556   4.117   9.801  0.00  0.00    +0.000 C 
ATOM     18  C   UNL     1      44.738   2.611  10.073  0.00  0.00    +0.000 C 
ATOM     19  C   UNL     1      45.008   1.815   8.795  0.00  0.00    +0.000 C 
ATOM     20  C   UNL     1      46.186   2.391   8.018  0.00  0.00    +0.000 C 
ATOM     21  C   UNL     1      45.938   3.852   7.669  0.00  0.00    +0.000 C 
ATOM     22  C   UNL     1      45.689   4.683   8.923  0.00  0.00    +0.000 C 
ENDBRANCH  16  17
ENDBRANCH  14  16
ENDBRANCH   1  14
TORSDOF 4
ENDMDL
MODEL 6
REMARK VINA RESULT:    -6.175      1.665      2.336
REMARK INTER + INTRA:          -8.169
REMARK INTER:                  -7.835
REMARK INTRA:                  -0.334
REMARK UNBOUND:                -0.550
REMARK  Name = 
REMARK  5 active torsions:
REMARK  status: ('A' for Active; 'I' for Inactive)
REMARK    1  A    between atoms: C_1  and  C_2
REMARK    2  A    between atoms: C_2  and  C_3
REMARK    3  A    between atoms: C_2  and  C_14
REMARK    4  A    between atoms: C_3  and  N_4
REMARK    5  A    between atoms: C_8  and  C_9
REMARK                            x       y       z     vdW  Elec       q    Type
REMARK                         _______ _______ _______ _____ _____    ______ ____
ROOT
ATOM      1  N   UNL     1      44.131   4.037  10.951  0.00  0.00    +0.000 N 
ATOM      2  C   UNL     1      44.850   3.599   9.815  0.00  0.00    +0.000 A 
ATOM      3  C   UNL     1      44.901   2.233   9.498  0.00  0.00    +0.000 A 
ATOM      4  N   UNL     1      45.560   1.718   8.422  0.00  0.00    +0.000 NA
ATOM      5  C   UNL     1      46.205   2.648   7.663  0.00  0.00    +0.000 A 
ATOM      6  C   UNL     1      46.185   3.997   7.972  0.00  0.00    +0.000 A 
ATOM      7  N   UNL     1      45.515   4.488   9.045  0.00  0.00    +0.000 NA
ATOM      8  H   UNL     1      43.184   3.680  10.883  0.00  0.00    +0.000 HD
ENDROOT
BRANCH   5   9
ATOM      9  C   UNL     1      46.951   2.186   6.460  0.00  0.00    +0.000 C 
ATOM     10  N   UNL     1      47.202   3.133   5.507  0.00  0.00    +0.000 N 
ATOM     11  O   UNL     1      47.335   1.031   6.334  0.00  0.00    +0.000 OA
ATOM     12  H   UNL     1      46.873   4.084   5.630  0.00  0.00    +0.000 HD
ATOM     13  H   UNL     1      47.708   2.870   4.672  0.00  0.00    +0.000 HD
ENDBRANCH   5   9
BRANCH   1  14
ATOM     14  C   UNL     1      44.158   5.488  11.093  0.00  0.00    +0.000 C 
BRANCH  14  16
ATOM     15  C   UNL     1      45.330   4.979  13.341  0.00  0.00    +0.000 C 
ATOM     16  C   UNL     1      45.126   5.907  12.174  0.00  0.00    +0.000 C 
BRANCH  16  17
ATOM     17  C   UNL     1      45.178   7.415  12.437  0.00  0.00    +0.000 C 
ATOM     18  C   UNL     1      44.579   8.267  11.301  0.00  0.00    +0.000 C 
ATOM     19  C   UNL     1      44.758   9.768  11.541  0.00  0.00    +0.000 C 
ATOM     20  C   UNL     1      46.219  10.121  11.797  0.00  0.00    +0.000 C 
ATOM     21  C   UNL     1      46.760   9.344  12.989  0.00  0.00    +0.000 C 
ATOM     22  C   UNL     1      46.620   7.841  12.775  0.00  0.00    +0.000 C 
ENDBRANCH  16  17
ENDBRANCH  14  16
ENDBRANCH   1  14
TORSDOF 4
ENDMDL
MODEL 7
REMARK VINA RESULT:    -6.156      4.391      6.397
REMARK INTER + INTRA:          -8.145
REMARK INTER:                  -7.775
REMARK INTRA:                  -0.371
REMARK UNBOUND:                -0.550
REMARK  Name = 
REMARK  5 active torsions:
REMARK  status: ('A' for Active; 'I' for Inactive)
REMARK    1  A    between atoms: C_1  and  C_2
REMARK    2  A    between atoms: C_2  and  C_3
REMARK    3  A    between atoms: C_2  and  C_14
REMARK    4  A    between atoms: C_3  and  N_4
REMARK    5  A    between atoms: C_8  and  C_9
REMARK                            x       y       z     vdW  Elec       q    Type
REMARK                         _______ _______ _______ _____ _____    ______ ____
ROOT
ATOM      1  N   UNL     1      47.127   4.945  15.290  0.00  0.00    +0.000 N 
ATOM      2  C   UNL     1      46.467   4.732  14.058  0.00  0.00    +0.000 A 
ATOM      3  C   UNL     1      46.069   5.826  13.274  0.00  0.00    +0.000 A 
ATOM      4  N   UNL     1      45.435   5.719  12.071  0.00  0.00    +0.000 NA
ATOM      5  C   UNL     1      45.187   4.438  11.681  0.00  0.00    +0.000 A 
ATOM      6  C   UNL     1      45.552   3.347  12.451  0.00  0.00    +0.000 A 
ATOM      7  N   UNL     1      46.189   3.477  13.642  0.00  0.00    +0.000 NA
ATOM      8  H   UNL     1      47.933   5.537  15.118  0.00  0.00    +0.000 HD
ENDROOT
BRANCH   5   9
ATOM      9  C   UNL     1      44.503   4.215  10.377  0.00  0.00    +0.000 C 
ATOM     10  N   UNL     1      44.863   5.049   9.357  0.00  0.00    +0.000 N 
ATOM     11  O   UNL     1      43.678   3.325  10.218  0.00  0.00    +0.000 OA
ATOM     12  H   UNL     1      45.548   5.781   9.511  0.00  0.00    +0.000 HD
ATOM     13  H   UNL     1      44.430   4.936   8.451  0.00  0.00    +0.000 HD
ENDBRANCH   5   9
BRANCH   1  14
ATOM     14  C   UNL     1      47.497   3.694  15.939  0.00  0.00    +0.000 C 
BRANCH  14  16
ATOM     15  C   UNL     1      47.164   5.135  18.059  0.00  0.00    +0.000 C 
ATOM     16  C   UNL     1      47.734   3.900  17.416  0.00  0.00    +0.000 C 
BRANCH  16  17
ATOM     17  C   UNL     1      49.081   3.381  17.926  0.00  0.00    +0.000 C 
ATOM     18  C   UNL     1      50.120   4.490  18.184  0.00  0.00    +0.000 C 
ATOM     19  C   UNL     1      51.489   3.928  18.574  0.00  0.00    +0.000 C 
ATOM     20  C   UNL     1      51.989   2.917  17.548  0.00  0.00    +0.000 C 
ATOM     21  C   UNL     1      50.994   1.776  17.388  0.00  0.00    +0.000 C 
ATOM     22  C   UNL     1      49.622   2.296  16.975  0.00  0.00    +0.000 C 
ENDBRANCH  16  17
ENDBRANCH  14  16
ENDBRANCH   1  14
TORSDOF 4
ENDMDL
MODEL 8
REMARK VINA RESULT:    -5.801      5.426      8.203
REMARK INTER + INTRA:          -7.707
REMARK INTER:                  -7.353
REMARK INTRA:                  -0.354
REMARK UNBOUND:                -0.550
REMARK  Name = 
REMARK  5 active torsions:
REMARK  status: ('A' for Active; 'I' for Inactive)
REMARK    1  A    between atoms: C_1  and  C_2
REMARK    2  A    between atoms: C_2  and  C_3
REMARK    3  A    between atoms: C_2  and  C_14
REMARK    4  A    between atoms: C_3  and  N_4
REMARK    5  A    between atoms: C_8  and  C_9
REMARK                            x       y       z     vdW  Elec       q    Type
REMARK                         _______ _______ _______ _____ _____    ______ ____
ROOT
ATOM      1  N   UNL     1      46.336   4.115  14.645  0.00  0.00    +0.000 N 
ATOM      2  C   UNL     1      47.237   4.372  15.704  0.00  0.00    +0.000 A 
ATOM      3  C   UNL     1      47.183   3.603  16.876  0.00  0.00    +0.000 A 
ATOM      4  N   UNL     1      48.015   3.770  17.944  0.00  0.00    +0.000 NA
ATOM      5  C   UNL     1      48.914   4.782  17.799  0.00  0.00    +0.000 A 
ATOM      6  C   UNL     1      48.969   5.566  16.660  0.00  0.00    +0.000 A 
ATOM      7  N   UNL     1      48.136   5.376  15.605  0.00  0.00    +0.000 NA
ATOM      8  H   UNL     1      46.409   3.134  14.398  0.00  0.00    +0.000 HD
ENDROOT
BRANCH   5   9
ATOM      9  C   UNL     1      49.872   5.043  18.910  0.00  0.00    +0.000 C 
ATOM     10  N   UNL     1      49.680   4.319  20.053  0.00  0.00    +0.000 N 
ATOM     11  O   UNL     1      50.791   5.844  18.804  0.00  0.00    +0.000 OA
ATOM     12  H   UNL     1      48.912   3.660  20.120  0.00  0.00    +0.000 HD
ATOM     13  H   UNL     1      50.307   4.457  20.834  0.00  0.00    +0.000 HD
ENDBRANCH   5   9
BRANCH   1  14
ATOM     14  C   UNL     1      46.572   4.986  13.500  0.00  0.00    +0.000 C 
BRANCH  14  16
ATOM     15  C   UNL     1      44.004   4.888  13.211  0.00  0.00    +0.000 C 
ATOM     16  C   UNL     1      45.368   5.018  12.588  0.00  0.00    +0.000 C 
BRANCH  16  17
ATOM     17  C   UNL     1      45.591   4.388  11.211  0.00  0.00    +0.000 C 
ATOM     18  C   UNL     1      45.596   5.404  10.052  0.00  0.00    +0.000 C 
ATOM     19  C   UNL     1      45.699   4.729   8.683  0.00  0.00    +0.000 C 
ATOM     20  C   UNL     1      44.614   3.674   8.500  0.00  0.00    +0.000 C 
ATOM     21  C   UNL     1      44.695   2.622   9.597  0.00  0.00    +0.000 C 
ATOM     22  C   UNL     1      44.572   3.256  10.978  0.00  0.00    +0.000 C 
ENDBRANCH  16  17
ENDBRANCH  14  16
ENDBRANCH   1  14
TORSDOF 4
ENDMDL
MODEL 9
REMARK VINA RESULT:    -5.622      3.512      5.515
REMARK INTER + INTRA:          -7.487
REMARK INTER:                  -7.043
REMARK INTRA:                  -0.444
REMARK UNBOUND:                -0.550
REMARK  Name = 
REMARK  5 active torsions:
REMARK  status: ('A' for Active; 'I' for Inactive)
REMARK    1  A    between atoms: C_1  and  C_2
REMARK    2  A    between atoms: C_2  and  C_3
REMARK    3  A    between atoms: C_2  and  C_14
REMARK    4  A    between atoms: C_3  and  N_4
REMARK    5  A    between atoms: C_8  and  C_9
REMARK                            x       y       z     vdW  Elec       q    Type
REMARK                         _______ _______ _______ _____ _____    ______ ____
ROOT
ATOM      1  N   UNL     1      44.826   8.186  12.330  0.00  0.00    +0.000 N 
ATOM      2  C   UNL     1      44.588   6.826  12.023  0.00  0.00    +0.000 A 
ATOM      3  C   UNL     1      43.399   6.448  11.379  0.00  0.00    +0.000 A 
ATOM      4  N   UNL     1      43.087   5.166  11.036  0.00  0.00    +0.000 NA
ATOM      5  C   UNL     1      44.026   4.246  11.392  0.00  0.00    +0.000 A 
ATOM      6  C   UNL     1      45.194   4.597  12.046  0.00  0.00    +0.000 A 
ATOM      7  N   UNL     1      45.488   5.881  12.372  0.00  0.00    +0.000 NA
ATOM      8  H   UNL     1      44.728   8.725  11.477  0.00  0.00    +0.000 HD
ENDROOT
BRANCH   5   9
ATOM      9  C   UNL     1      43.780   2.816  11.055  0.00  0.00    +0.000 C 
ATOM     10  N   UNL     1      44.550   2.292  10.055  0.00  0.00    +0.000 N 
ATOM     11  O   UNL     1      42.951   2.140  11.649  0.00  0.00    +0.000 OA
ATOM     12  H   UNL     1      45.231   2.870   9.576  0.00  0.00    +0.000 HD
ATOM     13  H   UNL     1      44.423   1.324   9.792  0.00  0.00    +0.000 HD
ENDBRANCH   5   9
BRANCH   1  14
ATOM     14  C   UNL     1      46.125   8.388  12.959  0.00  0.00    +0.000 C 
BRANCH  14  16
ATOM     15  C   UNL     1      45.983  10.676  11.763  0.00  0.00    +0.000 C 
ATOM     16  C   UNL     1      46.827   9.591  12.375  0.00  0.00    +0.000 C 
BRANCH  16  17
ATOM     17  C   UNL     1      48.185   9.290  11.734  0.00  0.00    +0.000 C 
ATOM     18  C   UNL     1      48.668   7.841  11.945  0.00  0.00    +0.000 C 
ATOM     19  C   UNL     1      50.079   7.611  11.400  0.00  0.00    +0.000 C 
ATOM     20  C   UNL     1      51.068   8.621  11.969  0.00  0.00    +0.000 C 
ATOM     21  C   UNL     1      50.625  10.043  11.658  0.00  0.00    +0.000 C 
ATOM     22  C   UNL     1      49.230  10.319  12.208  0.00  0.00    +0.000 C 
ENDBRANCH  16  17
ENDBRANCH  14  16
ENDBRANCH   1  14
TORSDOF 4
ENDMDL
