MODEL 1
REMARK VINA RESULT:    -8.210      0.000      0.000
REMARK INTER + INTRA:         -12.412
REMARK INTER:                 -11.569
REMARK INTRA:                  -0.843
REMARK UNBOUND:                -0.843
REMARK  Name = 
REMARK  7 active torsions:
REMARK  status: ('A' for Active; 'I' for Inactive)
REMARK    1  A    between atoms: C_2  and  C_3
REMARK    2  A    between atoms: N_7  and  C_8
REMARK    3  A    between atoms: C_8  and  C_9
REMARK    4  A    between atoms: C_9  and  C_10
REMARK    5  A    between atoms: C_9  and  C_12
REMARK    6  A    between atoms: C_16  and  O_17
REMARK    7  A    between atoms: O_17  and  C_18
REMARK                            x       y       z     vdW  Elec       q    Type
REMARK                         _______ _______ _______ _____ _____    ______ ____
ROOT
ATOM      1  C   UNL     1      43.641   4.790  12.119  0.00  0.00    +0.000 C 
ENDROOT
BRANCH   1   2
ATOM      2  C   UNL     1      45.106   5.034  12.466  0.00  0.00    +0.000 A 
ATOM      3  C   UNL     1      45.780   6.119  11.885  0.00  0.00    +0.000 A 
ATOM      4  C   UNL     1      47.062   6.471  12.315  0.00  0.00    +0.000 A 
ATOM      5  C   UNL     1      47.694   5.747  13.329  0.00  0.00    +0.000 A 
ATOM      6  C   UNL     1      47.051   4.645  13.883  0.00  0.00    +0.000 A 
ATOM      7  C   UNL     1      45.774   4.287  13.444  0.00  0.00    +0.000 A 
BRANCH   6   8
ATOM      8  O   UNL     1      47.526   3.870  14.907  0.00  0.00    +0.000 OA
BRANCH   8   9
ATOM      9  C   UNL     1      47.419   4.336  16.266  0.00  0.00    +0.000 C 
ATOM     10  C   UNL     1      48.709   4.693  17.016  0.00  0.00    +0.000 C 
ATOM     11  O   UNL     1      48.376   3.798  18.107  0.00  0.00    +0.000 OA
ATOM     12  C   UNL     1      47.316   3.214  17.312  0.00  0.00    +0.000 C 
ENDBRANCH   8   9
ENDBRANCH   6   8
ENDBRANCH   1   2
BRANCH   1  13
ATOM     13  C   UNL     1      42.857   6.012  11.624  0.00  0.00    +0.000 C 
ATOM     14  F   UNL     1      41.523   5.774  11.757  0.00  0.00    +0.000 F 
ENDBRANCH   1  13
BRANCH   1  15
ATOM     15  C   UNL     1      43.517   3.622  11.110  0.00  0.00    +0.000 C 
BRANCH  15  20
ATOM     16  C   UNL     1      46.748   2.506   7.308  0.00  0.00    +0.000 A 
ATOM     17  C   UNL     1      46.156   1.659   8.237  0.00  0.00    +0.000 A 
ATOM     18  C   UNL     1      45.166   2.159   9.089  0.00  0.00    +0.000 A 
ATOM     19  C   UNL     1      44.801   3.498   9.008  0.00  0.00    +0.000 A 
ATOM     20  N   UNL     1      43.762   4.053   9.737  0.00  0.00    +0.000 N 
ATOM     21  N   UNL     1      45.387   4.332   8.126  0.00  0.00    +0.000 NA
ATOM     22  C   UNL     1      46.337   3.826   7.298  0.00  0.00    +0.000 A 
ATOM     23  H   UNL     1      43.848   5.062   9.608  0.00  0.00    +0.000 HD
BRANCH  16  25
ATOM     24  N   UNL     1      48.523   1.655   5.627  0.00  0.00    +0.000 NA
ATOM     25  C   UNL     1      47.729   2.030   6.380  0.00  0.00    +0.000 C 
ENDBRANCH  16  25
ENDBRANCH  15  20
ENDBRANCH   1  15
TORSDOF 7
ENDMDL
MODEL 2
REMARK VINA RESULT:    -7.330      2.145      3.220
REMARK INTER + INTRA:         -11.173
REMARK INTER:                 -10.355
REMARK INTRA:                  -0.818
REMARK UNBOUND:                -0.843
REMARK  Name = 
REMARK  7 active torsions:
REMARK  status: ('A' for Active; 'I' for Inactive)
REMARK    1  A    between atoms: C_2  and  C_3
REMARK    2  A    between atoms: N_7  and  C_8
REMARK    3  A    between atoms: C_8  and  C_9
REMARK    4  A    between atoms: C_9  and  C_10
REMARK    5  A    between atoms: C_9  and  C_12
REMARK    6  A    between atoms: C_16  and  O_17
REMARK    7  A    between atoms: O_17  and  C_18
REMARK                            x       y       z     vdW  Elec       q    Type
REMARK                         _______ _______ _______ _____ _____    ______ ____
ROOT
ATOM      1  C   UNL     1      43.543   4.825  12.044  0.00  0.00    +0.000 C 
ENDROOT
BRANCH   1   2
ATOM      2  C   UNL     1      44.937   5.165  12.563  0.00  0.00    +0.000 A 
ATOM      3  C   UNL     1      45.529   4.343  13.534  0.00  0.00    +0.000 A 
ATOM      4  C   UNL     1      46.866   4.524  13.899  0.00  0.00    +0.000 A 
ATOM      5  C   UNL     1      47.633   5.528  13.303  0.00  0.00    +0.000 A 
ATOM      6  C   UNL     1      47.045   6.374  12.369  0.00  0.00    +0.000 A 
ATOM      7  C   UNL     1      45.705   6.199  12.014  0.00  0.00    +0.000 A 
BRANCH   6   8
ATOM      8  O   UNL     1      47.680   7.368  11.675  0.00  0.00    +0.000 OA
BRANCH   8   9
ATOM      9  C   UNL     1      47.458   8.746  12.032  0.00  0.00    +0.000 C 
ATOM     10  C   UNL     1      48.611   9.741  11.843  0.00  0.00    +0.000 C 
ATOM     11  O   UNL     1      48.529  10.168  13.226  0.00  0.00    +0.000 OA
ATOM     12  C   UNL     1      47.658   9.051  13.525  0.00  0.00    +0.000 C 
ENDBRANCH   8   9
ENDBRANCH   6   8
ENDBRANCH   1   2
BRANCH   1  13
ATOM     13  C   UNL     1      42.765   5.982  11.406  0.00  0.00    +0.000 C 
ATOM     14  F   UNL     1      41.460   5.913  11.792  0.00  0.00    +0.000 F 
ENDBRANCH   1  13
BRANCH   1  15
ATOM     15  C   UNL     1      43.613   3.619  11.075  0.00  0.00    +0.000 C 
BRANCH  15  20
ATOM     16  C   UNL     1      46.797   2.523   7.229  0.00  0.00    +0.000 A 
ATOM     17  C   UNL     1      46.242   1.677   8.180  0.00  0.00    +0.000 A 
ATOM     18  C   UNL     1      45.257   2.166   9.044  0.00  0.00    +0.000 A 
ATOM     19  C   UNL     1      44.860   3.495   8.951  0.00  0.00    +0.000 A 
ATOM     20  N   UNL     1      43.823   4.037   9.692  0.00  0.00    +0.000 N 
ATOM     21  N   UNL     1      45.411   4.330   8.048  0.00  0.00    +0.000 NA
ATOM     22  C   UNL     1      46.357   3.833   7.209  0.00  0.00    +0.000 A 
ATOM     23  H   UNL     1      43.884   5.045   9.548  0.00  0.00    +0.000 HD
BRANCH  16  25
ATOM     24  N   UNL     1      48.556   1.672   5.530  0.00  0.00    +0.000 NA
ATOM     25  C   UNL     1      47.772   2.057   6.290  0.00  0.00    +0.000 C 
ENDBRANCH  16  25
ENDBRANCH  15  20
ENDBRANCH   1  15
TORSDOF 7
ENDMDL
MODEL 3
REMARK VINA RESULT:    -6.920      3.293      4.979
REMARK INTER + INTRA:         -10.595
REMARK INTER:                  -9.892
REMARK INTRA:                  -0.703
REMARK UNBOUND:                -0.843
REMARK  Name = 
REMARK  7 active torsions:
REMARK  status: ('A' for Active; 'I' for Inactive)
REMARK    1  A    between atoms: C_2  and  C_3
REMARK    2  A    between atoms: N_7  and  C_8
REMARK    3  A    between atoms: C_8  and  C_9
REMARK    4  A    between atoms: C_9  and  C_10
REMARK    5  A    between atoms: C_9  and  C_12
REMARK    6  A    between atoms: C_16  and  O_17
REMARK    7  A    between atoms: O_17  and  C_18
REMARK                            x       y       z     vdW  Elec       q    Type
REMARK                         _______ _______ _______ _____ _____    ______ ____
ROOT
ATOM      1  C   UNL     1      45.212   4.769  11.957  0.00  0.00    +0.000 C 
ENDROOT
BRANCH   1   2
ATOM      2  C   UNL     1      45.599   6.153  12.466  0.00  0.00    +0.000 A 
ATOM      3  C   UNL     1      46.792   6.313  13.188  0.00  0.00    +0.000 A 
ATOM      4  C   UNL     1      47.261   7.589  13.513  0.00  0.00    +0.000 A 
ATOM      5  C   UNL     1      46.548   8.726  13.126  0.00  0.00    +0.000 A 
ATOM      6  C   UNL     1      45.344   8.578  12.446  0.00  0.00    +0.000 A 
ATOM      7  C   UNL     1      44.871   7.301  12.131  0.00  0.00    +0.000 A 
BRANCH   6   8
ATOM      8  O   UNL     1      44.562   9.596  11.968  0.00  0.00    +0.000 OA
BRANCH   8   9
ATOM      9  C   UNL     1      43.909   9.459  10.692  0.00  0.00    +0.000 C 
ATOM     10  C   UNL     1      43.905  10.666   9.745  0.00  0.00    +0.000 C 
ATOM     11  O   UNL     1      42.461  10.624   9.624  0.00  0.00    +0.000 OA
ATOM     12  C   UNL     1      42.391   9.692  10.730  0.00  0.00    +0.000 C 
ENDBRANCH   8   9
ENDBRANCH   6   8
ENDBRANCH   1   2
BRANCH   1  13
ATOM     13  C   UNL     1      45.061   3.680  13.026  0.00  0.00    +0.000 C 
ATOM     14  F   UNL     1      46.070   2.775  12.891  0.00  0.00    +0.000 F 
ENDBRANCH   1  13
BRANCH   1  15
ATOM     15  C   UNL     1      43.933   4.857  11.088  0.00  0.00    +0.000 C 
BRANCH  15  20
ATOM     16  C   UNL     1      46.780   2.745   7.404  0.00  0.00    +0.000 A 
ATOM     17  C   UNL     1      46.037   2.130   8.404  0.00  0.00    +0.000 A 
ATOM     18  C   UNL     1      45.194   2.903   9.207  0.00  0.00    +0.000 A 
ATOM     19  C   UNL     1      45.123   4.277   9.007  0.00  0.00    +0.000 A 
ATOM     20  N   UNL     1      44.240   5.104   9.683  0.00  0.00    +0.000 N 
ATOM     21  N   UNL     1      45.858   4.885   8.055  0.00  0.00    +0.000 NA
ATOM     22  C   UNL     1      46.662   4.116   7.276  0.00  0.00    +0.000 A 
ATOM     23  H   UNL     1      44.539   6.055   9.464  0.00  0.00    +0.000 HD
BRANCH  16  25
ATOM     24  N   UNL     1      48.306   1.386   5.814  0.00  0.00    +0.000 NA
ATOM     25  C   UNL     1      47.620   1.990   6.524  0.00  0.00    +0.000 C 
ENDBRANCH  16  25
ENDBRANCH  15  20
ENDBRANCH   1  15
TORSDOF 7
ENDMDL
MODEL 4
REMARK VINA RESULT:    -6.856      3.873      7.835
REMARK INTER + INTRA:         -10.504
REMARK INTER:                 -10.000
REMARK INTRA:                  -0.504
REMARK UNBOUND:                -0.843
REMARK  Name = 
REMARK  7 active torsions:
REMARK  status: ('A' for Active; 'I' for Inactive)
REMARK    1  A    between atoms: C_2  and  C_3
REMARK    2  A    between atoms: N_7  and  C_8
REMARK    3  A    between atoms: C_8  and  C_9
REMARK    4  A    between atoms: C_9  and  C_10
REMARK    5  A    between atoms: C_9  and  C_12
REMARK    6  A    between atoms: C_16  and  O_17
REMARK    7  A    between atoms: O_17  and  C_18
REMARK                            x       y       z     vdW  Elec       q    Type
REMARK                         _______ _______ _______ _____ _____    ______ ____
ROOT
ATOM      1  C   UNL     1      45.273   6.078  11.176  0.00  0.00    +0.000 C 
ENDROOT
BRANCH   1   2
ATOM      2  C   UNL     1      45.155   4.773  10.396  0.00  0.00    +0.000 A 
ATOM      3  C   UNL     1      44.452   3.695  10.957  0.00  0.00    +0.000 A 
ATOM      4  C   UNL     1      44.176   2.554  10.199  0.00  0.00    +0.000 A 
ATOM      5  C   UNL     1      44.598   2.467   8.871  0.00  0.00    +0.000 A 
ATOM      6  C   UNL     1      45.331   3.512   8.317  0.00  0.00    +0.000 A 
ATOM      7  C   UNL     1      45.615   4.647   9.079  0.00  0.00    +0.000 A 
BRANCH   6   8
ATOM      8  O   UNL     1      45.771   3.585   7.022  0.00  0.00    +0.000 OA
BRANCH   8   9
ATOM      9  C   UNL     1      47.146   3.286   6.716  0.00  0.00    +0.000 C 
ATOM     10  C   UNL     1      47.485   2.789   5.304  0.00  0.00    +0.000 C 
ATOM     11  O   UNL     1      48.147   1.611   5.829  0.00  0.00    +0.000 OA
ATOM     12  C   UNL     1      47.597   1.880   7.141  0.00  0.00    +0.000 C 
ENDBRANCH   8   9
ENDBRANCH   6   8
ENDBRANCH   1   2
BRANCH   1  13
ATOM     13  C   UNL     1      43.991   6.567  11.861  0.00  0.00    +0.000 C 
ATOM     14  F   UNL     1      42.979   6.602  10.949  0.00  0.00    +0.000 F 
ENDBRANCH   1  13
BRANCH   1  15
ATOM     15  C   UNL     1      46.432   5.987  12.198  0.00  0.00    +0.000 C 
BRANCH  15  20
ATOM     16  C   UNL     1      48.517   4.737  16.696  0.00  0.00    +0.000 A 
ATOM     17  C   UNL     1      48.666   5.899  15.950  0.00  0.00    +0.000 A 
ATOM     18  C   UNL     1      47.864   6.098  14.821  0.00  0.00    +0.000 A 
ATOM     19  C   UNL     1      46.943   5.125  14.452  0.00  0.00    +0.000 A 
ATOM     20  N   UNL     1      46.038   5.282  13.415  0.00  0.00    +0.000 N 
ATOM     21  N   UNL     1      46.809   3.983  15.157  0.00  0.00    +0.000 NA
ATOM     22  C   UNL     1      47.586   3.814  16.257  0.00  0.00    +0.000 A 
ATOM     23  H   UNL     1      45.629   4.359  13.269  0.00  0.00    +0.000 HD
BRANCH  16  25
ATOM     24  N   UNL     1      49.887   4.320  18.853  0.00  0.00    +0.000 NA
ATOM     25  C   UNL     1      49.279   4.509  17.887  0.00  0.00    +0.000 C 
ENDBRANCH  16  25
ENDBRANCH  15  20
ENDBRANCH   1  15
TORSDOF 7
ENDMDL
MODEL 5
REMARK VINA RESULT:    -6.669      2.598      3.210
REMARK INTER + INTRA:         -10.241
REMARK INTER:                  -9.541
REMARK INTRA:                  -0.701
REMARK UNBOUND:                -0.843
REMARK  Name = 
REMARK  7 active torsions:
REMARK  status: ('A' for Active; 'I' for Inactive)
REMARK    1  A    between atoms: C_2  and  C_3
REMARK    2  A    between atoms: N_7  and  C_8
REMARK    3  A    between atoms: C_8  and  C_9
REMARK    4  A    between atoms: C_9  and  C_10
REMARK    5  A    between atoms: C_9  and  C_12
REMARK    6  A    between atoms: C_16  and  O_17
REMARK    7  A    between atoms: O_17  and  C_18
REMARK                            x       y       z     vdW  Elec       q    Type
REMARK                         _______ _______ _______ _____ _____    ______ ____
ROOT
ATOM      1  C   UNL     1      45.116   4.736  11.976  0.00  0.00    +0.000 C 
ENDROOT
BRANCH   1   2
ATOM      2  C   UNL     1      45.682   6.152  11.941  0.00  0.00    +0.000 A 
ATOM      3  C   UNL     1      44.823   7.243  12.144  0.00  0.00    +0.000 A 
ATOM      4  C   UNL     1      45.336   8.534  12.293  0.00  0.00    +0.000 A 
ATOM      5  C   UNL     1      46.713   8.760  12.240  0.00  0.00    +0.000 A 
ATOM      6  C   UNL     1      47.571   7.692  11.999  0.00  0.00    +0.000 A 
ATOM      7  C   UNL     1      47.056   6.403  11.839  0.00  0.00    +0.000 A 
BRANCH   6   8
ATOM      8  O   UNL     1      48.939   7.754  11.964  0.00  0.00    +0.000 OA
BRANCH   8   9
ATOM      9  C   UNL     1      49.701   7.447  13.147  0.00  0.00    +0.000 C 
ATOM     10  C   UNL     1      49.178   7.951  14.498  0.00  0.00    +0.000 C 
ATOM     11  O   UNL     1      50.437   8.609  14.791  0.00  0.00    +0.000 OA
ATOM     12  C   UNL     1      50.862   8.416  13.420  0.00  0.00    +0.000 C 
ENDBRANCH   8   9
ENDBRANCH   6   8
ENDBRANCH   1   2
BRANCH   1  13
ATOM     13  C   UNL     1      44.871   4.146  13.369  0.00  0.00    +0.000 C 
ATOM     14  F   UNL     1      45.824   4.607  14.227  0.00  0.00    +0.000 F 
ENDBRANCH   1  13
BRANCH   1  15
ATOM     15  C   UNL     1      43.830   4.654  11.118  0.00  0.00    +0.000 C 
BRANCH  15  20
ATOM     16  C   UNL     1      46.757   2.648   7.437  0.00  0.00    +0.000 A 
ATOM     17  C   UNL     1      46.073   2.009   8.463  0.00  0.00    +0.000 A 
ATOM     18  C   UNL     1      45.191   2.744   9.262  0.00  0.00    +0.000 A 
ATOM     19  C   UNL     1      45.024   4.103   9.031  0.00  0.00    +0.000 A 
ATOM     20  N   UNL     1      44.098   4.886   9.702  0.00  0.00    +0.000 N 
ATOM     21  N   UNL     1      45.703   4.737   8.053  0.00  0.00    +0.000 NA
ATOM     22  C   UNL     1      46.545   4.005   7.279  0.00  0.00    +0.000 A 
ATOM     23  H   UNL     1      44.328   5.850   9.456  0.00  0.00    +0.000 HD
BRANCH  16  25
ATOM     24  N   UNL     1      48.342   1.358   5.848  0.00  0.00    +0.000 NA
ATOM     25  C   UNL     1      47.633   1.930   6.561  0.00  0.00    +0.000 C 
ENDBRANCH  16  25
ENDBRANCH  15  20
ENDBRANCH   1  15
TORSDOF 7
ENDMDL
MODEL 6
REMARK VINA RESULT:    -6.557      4.414      7.954
REMARK INTER + INTRA:         -10.084
REMARK INTER:                  -9.573
REMARK INTRA:                  -0.511
REMARK UNBOUND:                -0.843
REMARK  Name = 
REMARK  7 active torsions:
REMARK  status: ('A' for Active; 'I' for Inactive)
REMARK    1  A    between atoms: C_2  and  C_3
REMARK    2  A    between atoms: N_7  and  C_8
REMARK    3  A    between atoms: C_8  and  C_9
REMARK    4  A    between atoms: C_9  and  C_10
REMARK    5  A    between atoms: C_9  and  C_12
REMARK    6  A    between atoms: C_16  and  O_17
REMARK    7  A    between atoms: O_17  and  C_18
REMARK                            x       y       z     vdW  Elec       q    Type
REMARK                         _______ _______ _______ _____ _____    ______ ____
ROOT
ATOM      1  C   UNL     1      46.903   4.729  13.685  0.00  0.00    +0.000 C 
ENDROOT
BRANCH   1   2
ATOM      2  C   UNL     1      45.562   4.494  12.998  0.00  0.00    +0.000 A 
ATOM      3  C   UNL     1      44.506   5.390  13.222  0.00  0.00    +0.000 A 
ATOM      4  C   UNL     1      43.328   5.303  12.475  0.00  0.00    +0.000 A 
ATOM      5  C   UNL     1      43.183   4.319  11.494  0.00  0.00    +0.000 A 
ATOM      6  C   UNL     1      44.208   3.400  11.291  0.00  0.00    +0.000 A 
ATOM      7  C   UNL     1      45.380   3.482  12.047  0.00  0.00    +0.000 A 
BRANCH   6   8
ATOM      8  O   UNL     1      44.224   2.414  10.341  0.00  0.00    +0.000 OA
BRANCH   8   9
ATOM      9  C   UNL     1      44.496   2.748   8.967  0.00  0.00    +0.000 C 
ATOM     10  C   UNL     1      45.767   2.182   8.320  0.00  0.00    +0.000 C 
ATOM     11  O   UNL     1      46.211   3.505   7.927  0.00  0.00    +0.000 OA
ATOM     12  C   UNL     1      45.197   4.101   8.773  0.00  0.00    +0.000 C 
ENDBRANCH   8   9
ENDBRANCH   6   8
ENDBRANCH   1   2
BRANCH   1  13
ATOM     13  C   UNL     1      47.616   6.041  13.332  0.00  0.00    +0.000 C 
ATOM     14  F   UNL     1      47.493   6.274  11.996  0.00  0.00    +0.000 F 
ENDBRANCH   1  13
BRANCH   1  15
ATOM     15  C   UNL     1      46.749   4.592  15.219  0.00  0.00    +0.000 C 
BRANCH  15  20
ATOM     16  C   UNL     1      50.921   2.752  17.532  0.00  0.00    +0.000 A 
ATOM     17  C   UNL     1      50.273   3.965  17.721  0.00  0.00    +0.000 A 
ATOM     18  C   UNL     1      49.043   4.193  17.096  0.00  0.00    +0.000 A 
ATOM     19  C   UNL     1      48.494   3.210  16.281  0.00  0.00    +0.000 A 
ATOM     20  N   UNL     1      47.236   3.305  15.707  0.00  0.00    +0.000 N 
ATOM     21  N   UNL     1      49.128   2.038  16.072  0.00  0.00    +0.000 NA
ATOM     22  C   UNL     1      50.315   1.830  16.698  0.00  0.00    +0.000 A 
ATOM     23  H   UNL     1      47.185   2.538  15.036  0.00  0.00    +0.000 HD
BRANCH  16  25
ATOM     24  N   UNL     1      53.159   2.205  18.712  0.00  0.00    +0.000 NA
ATOM     25  C   UNL     1      52.157   2.452  18.189  0.00  0.00    +0.000 C 
ENDBRANCH  16  25
ENDBRANCH  15  20
ENDBRANCH   1  15
TORSDOF 7
ENDMDL
MODEL 7
REMARK VINA RESULT:    -6.389      4.322      7.386
REMARK INTER + INTRA:          -9.847
REMARK INTER:                  -9.275
REMARK INTRA:                  -0.572
REMARK UNBOUND:                -0.843
REMARK  Name = 
REMARK  7 active torsions:
REMARK  status: ('A' for Active; 'I' for Inactive)
REMARK    1  A    between atoms: C_2  and  C_3
REMARK    2  A    between atoms: N_7  and  C_8
REMARK    3  A    between atoms: C_8  and  C_9
REMARK    4  A    between atoms: C_9  and  C_10
REMARK    5  A    between atoms: C_9  and  C_12
REMARK    6  A    between atoms: C_16  and  O_17
REMARK    7  A    between atoms: O_17  and  C_18
REMARK                            x       y       z     vdW  Elec       q    Type
REMARK                         _______ _______ _______ _____ _____    ______ ____
ROOT
ATOM      1  C   UNL     1      44.613   5.960  11.293  0.00  0.00    +0.000 C 
ENDROOT
BRANCH   1   2
ATOM      2  C   UNL     1      44.805   4.682  10.484  0.00  0.00    +0.000 A 
ATOM      3  C   UNL     1      44.170   3.501  10.900  0.00  0.00    +0.000 A 
ATOM      4  C   UNL     1      44.181   2.363  10.089  0.00  0.00    +0.000 A 
ATOM      5  C   UNL     1      44.828   2.383   8.851  0.00  0.00    +0.000 A 
ATOM      6  C   UNL     1      45.495   3.535   8.446  0.00  0.00    +0.000 A 
ATOM      7  C   UNL     1      45.492   4.668   9.264  0.00  0.00    +0.000 A 
BRANCH   6   8
ATOM      8  O   UNL     1      46.132   3.714   7.247  0.00  0.00    +0.000 OA
BRANCH   8   9
ATOM      9  C   UNL     1      46.490   2.570   6.449  0.00  0.00    +0.000 C 
ATOM     10  C   UNL     1      47.591   1.636   6.968  0.00  0.00    +0.000 C 
ATOM     11  O   UNL     1      48.346   1.768   5.737  0.00  0.00    +0.000 OA
ATOM     12  C   UNL     1      47.500   2.871   5.331  0.00  0.00    +0.000 C 
ENDBRANCH   8   9
ENDBRANCH   6   8
ENDBRANCH   1   2
BRANCH   1  13
ATOM     13  C   UNL     1      43.161   6.392  11.531  0.00  0.00    +0.000 C 
ATOM     14  F   UNL     1      42.920   7.549  10.855  0.00  0.00    +0.000 F 
ENDBRANCH   1  13
BRANCH   1  15
ATOM     15  C   UNL     1      45.376   5.862  12.637  0.00  0.00    +0.000 C 
BRANCH  15  20
ATOM     16  C   UNL     1      49.673   8.630  12.543  0.00  0.00    +0.000 A 
ATOM     17  C   UNL     1      49.139   7.800  11.566  0.00  0.00    +0.000 A 
ATOM     18  C   UNL     1      47.858   7.268  11.740  0.00  0.00    +0.000 A 
ATOM     19  C   UNL     1      47.144   7.562  12.895  0.00  0.00    +0.000 A 
ATOM     20  N   UNL     1      45.832   7.166  13.106  0.00  0.00    +0.000 N 
ATOM     21  N   UNL     1      47.663   8.347  13.861  0.00  0.00    +0.000 NA
ATOM     22  C   UNL     1      48.903   8.865  13.668  0.00  0.00    +0.000 A 
ATOM     23  H   UNL     1      45.643   7.365  14.089  0.00  0.00    +0.000 HD
BRANCH  16  25
ATOM     24  N   UNL     1      51.996   9.738  12.259  0.00  0.00    +0.000 NA
ATOM     25  C   UNL     1      50.960   9.239  12.388  0.00  0.00    +0.000 C 
ENDBRANCH  16  25
ENDBRANCH  15  20
ENDBRANCH   1  15
TORSDOF 7
ENDMDL
MODEL 8
REMARK VINA RESULT:    -5.949      4.181      7.153
REMARK INTER + INTRA:          -9.226
REMARK INTER:                  -8.690
REMARK INTRA:                  -0.536
REMARK UNBOUND:                -0.843
REMARK  Name = 
REMARK  7 active torsions:
REMARK  status: ('A' for Active; 'I' for Inactive)
REMARK    1  A    between atoms: C_2  and  C_3
REMARK    2  A    between atoms: N_7  and  C_8
REMARK    3  A    between atoms: C_8  and  C_9
REMARK    4  A    between atoms: C_9  and  C_10
REMARK    5  A    between atoms: C_9  and  C_12
REMARK    6  A    between atoms: C_16  and  O_17
REMARK    7  A    between atoms: O_17  and  C_18
REMARK                            x       y       z     vdW  Elec       q    Type
REMARK                         _______ _______ _______ _____ _____    ______ ____
ROOT
ATOM      1  C   UNL     1      45.447   5.391  13.430  0.00  0.00    +0.000 C 
ENDROOT
BRANCH   1   2
ATOM      2  C   UNL     1      44.983   4.486  12.292  0.00  0.00    +0.000 A 
ATOM      3  C   UNL     1      44.014   3.503  12.545  0.00  0.00    +0.000 A 
ATOM      4  C   UNL     1      43.443   2.781  11.494  0.00  0.00    +0.000 A 
ATOM      5  C   UNL     1      43.830   3.025  10.174  0.00  0.00    +0.000 A 
ATOM      6  C   UNL     1      44.819   3.968   9.916  0.00  0.00    +0.000 A 
ATOM      7  C   UNL     1      45.397   4.682  10.969  0.00  0.00    +0.000 A 
BRANCH   6   8
ATOM      8  O   UNL     1      45.267   4.342   8.677  0.00  0.00    +0.000 OA
BRANCH   8   9
ATOM      9  C   UNL     1      45.585   3.336   7.697  0.00  0.00    +0.000 C 
ATOM     10  C   UNL     1      46.203   2.018   8.183  0.00  0.00    +0.000 C 
ATOM     11  O   UNL     1      47.327   2.159   7.279  0.00  0.00    +0.000 OA
ATOM     12  C   UNL     1      46.946   3.530   7.011  0.00  0.00    +0.000 C 
ENDBRANCH   8   9
ENDBRANCH   6   8
ENDBRANCH   1   2
BRANCH   1  13
ATOM     13  C   UNL     1      46.620   4.867  14.267  0.00  0.00    +0.000 C 
ATOM     14  F   UNL     1      47.147   3.766  13.663  0.00  0.00    +0.000 F 
ENDBRANCH   1  13
BRANCH   1  15
ATOM     15  C   UNL     1      45.756   6.810  12.893  0.00  0.00    +0.000 C 
BRANCH  15  20
ATOM     16  C   UNL     1      50.660   8.165  12.389  0.00  0.00    +0.000 A 
ATOM     17  C   UNL     1      49.643   8.171  11.443  0.00  0.00    +0.000 A 
ATOM     18  C   UNL     1      48.328   7.917  11.845  0.00  0.00    +0.000 A 
ATOM     19  C   UNL     1      48.058   7.646  13.181  0.00  0.00    +0.000 A 
ATOM     20  N   UNL     1      46.778   7.487  13.685  0.00  0.00    +0.000 N 
ATOM     21  N   UNL     1      49.042   7.614  14.102  0.00  0.00    +0.000 NA
ATOM     22  C   UNL     1      50.310   7.876  13.696  0.00  0.00    +0.000 A 
ATOM     23  H   UNL     1      46.902   7.127  14.632  0.00  0.00    +0.000 HD
BRANCH  16  25
ATOM     24  N   UNL     1      53.109   8.719  11.758  0.00  0.00    +0.000 NA
ATOM     25  C   UNL     1      52.014   8.467  12.036  0.00  0.00    +0.000 C 
ENDBRANCH  16  25
ENDBRANCH  15  20
ENDBRANCH   1  15
TORSDOF 7
ENDMDL
MODEL 9
REMARK VINA RESULT:    -5.844      4.804      8.096
REMARK INTER + INTRA:          -9.079
REMARK INTER:                  -8.220
REMARK INTRA:                  -0.858
REMARK UNBOUND:                -0.843
REMARK  Name = 
REMARK  7 active torsions:
REMARK  status: ('A' for Active; 'I' for Inactive)
REMARK    1  A    between atoms: C_2  and  C_3
REMARK    2  A    between atoms: N_7  and  C_8
REMARK    3  A    between atoms: C_8  and  C_9
REMARK    4  A    between atoms: C_9  and  C_10
REMARK    5  A    between atoms: C_9  and  C_12
REMARK    6  A    between atoms: C_16  and  O_17
REMARK    7  A    between atoms: O_17  and  C_18
REMARK                            x       y       z     vdW  Elec       q    Type
REMARK                         _______ _______ _______ _____ _____    ______ ____
ROOT
ATOM      1  C   UNL     1      48.600   7.076  13.554  0.00  0.00    +0.000 C 
ENDROOT
BRANCH   1   2
ATOM      2  C   UNL     1      47.204   7.177  12.948  0.00  0.00    +0.000 A 
ATOM      3  C   UNL     1      46.496   8.385  13.047  0.00  0.00    +0.000 A 
ATOM      4  C   UNL     1      45.296   8.565  12.354  0.00  0.00    +0.000 A 
ATOM      5  C   UNL     1      44.781   7.543  11.552  0.00  0.00    +0.000 A 
ATOM      6  C   UNL     1      45.454   6.328  11.479  0.00  0.00    +0.000 A 
ATOM      7  C   UNL     1      46.648   6.146  12.182  0.00  0.00    +0.000 A 
BRANCH   6   8
ATOM      8  O   UNL     1      45.094   5.257  10.705  0.00  0.00    +0.000 OA
BRANCH   8   9
ATOM      9  C   UNL     1      44.771   3.999  11.328  0.00  0.00    +0.000 C 
ATOM     10  C   UNL     1      44.151   2.896  10.460  0.00  0.00    +0.000 C 
ATOM     11  O   UNL     1      43.025   2.756  11.363  0.00  0.00    +0.000 OA
ATOM     12  C   UNL     1      43.409   3.978  12.039  0.00  0.00    +0.000 C 
ENDBRANCH   8   9
ENDBRANCH   6   8
ENDBRANCH   1   2
BRANCH   1  13
ATOM     13  C   UNL     1      49.739   7.669  12.717  0.00  0.00    +0.000 C 
ATOM     14  F   UNL     1      49.406   7.607  11.397  0.00  0.00    +0.000 F 
ENDBRANCH   1  13
BRANCH   1  15
ATOM     15  C   UNL     1      48.608   7.676  14.982  0.00  0.00    +0.000 C 
BRANCH  15  20
ATOM     16  C   UNL     1      51.321   4.212  17.586  0.00  0.00    +0.000 A 
ATOM     17  C   UNL     1      51.676   5.498  17.197  0.00  0.00    +0.000 A 
ATOM     18  C   UNL     1      50.710   6.337  16.634  0.00  0.00    +0.000 A 
ATOM     19  C   UNL     1      49.413   5.870  16.456  0.00  0.00    +0.000 A 
ATOM     20  N   UNL     1      48.370   6.662  16.005  0.00  0.00    +0.000 N 
ATOM     21  N   UNL     1      49.065   4.616  16.808  0.00  0.00    +0.000 NA
ATOM     22  C   UNL     1      50.013   3.820  17.365  0.00  0.00    +0.000 A 
ATOM     23  H   UNL     1      47.605   6.017  15.807  0.00  0.00    +0.000 HD
BRANCH  16  25
ATOM     24  N   UNL     1      53.015   2.621  18.726  0.00  0.00    +0.000 NA
ATOM     25  C   UNL     1      52.260   3.332  18.212  0.00  0.00    +0.000 C 
ENDBRANCH  16  25
ENDBRANCH  15  20
ENDBRANCH   1  15
TORSDOF 7
ENDMDL
