MODEL 1
REMARK VINA RESULT:    -7.476      0.000      0.000
REMARK INTER + INTRA:          -9.806
REMARK INTER:                  -9.443
REMARK INTRA:                  -0.363
REMARK UNBOUND:                -0.363
REMARK  Name = 
REMARK  5 active torsions:
REMARK  status: ('A' for Active; 'I' for Inactive)
REMARK    1  A    between atoms: N_1  and  C_2
REMARK    2  A    between atoms: C_2  and  C_3
REMARK    3  A    between atoms: C_3  and  C_4
REMARK    4  A    between atoms: C_7  and  C_8
REMARK    5  A    between atoms: C_8  and  N_9
REMARK                            x       y       z     vdW  Elec       q    Type
REMARK                         _______ _______ _______ _____ _____    ______ ____
ROOT
ATOM      1  C   UNL     1      46.211   2.388   8.387  0.00  0.00    +0.000 C 
ATOM      2  C   UNL     1      44.879   1.794   8.863  0.00  0.00    +0.000 C 
ATOM      3  C   UNL     1      44.270   2.617   9.993  0.00  0.00    +0.000 C 
ATOM      4  C   UNL     1      44.071   4.095   9.621  0.00  0.00    +0.000 C 
ATOM      5  C   UNL     1      45.380   4.688   9.071  0.00  0.00    +0.000 C 
ATOM      6  C   UNL     1      45.998   3.845   7.953  0.00  0.00    +0.000 C 
ENDROOT
BRANCH   1   7
ATOM      7  C   UNL     1      46.793   1.499   7.269  0.00  0.00    +0.000 C 
BRANCH   7   8
ATOM      8  C   UNL     1      47.278   2.240   6.021  0.00  0.00    +0.000 C 
BRANCH   8   9
ATOM      9  N   UNL     1      48.601   1.795   5.600  0.00  0.00    +0.000 NA
ATOM     10  H   UNL     1      49.285   2.517   5.815  0.00  0.00    +0.000 HD
ATOM     11  H   UNL     1      48.617   1.681   4.586  0.00  0.00    +0.000 HD
ENDBRANCH   8   9
ENDBRANCH   7   8
ENDBRANCH   1   7
BRANCH   4  12
ATOM     12  C   UNL     1      43.585   4.941  10.820  0.00  0.00    +0.000 C 
BRANCH  12  13
ATOM     13  N   UNL     1      44.621   5.766  11.427  0.00  0.00    +0.000 N 
ATOM     14  C   UNL     1      44.805   7.098  11.149  0.00  0.00    +0.000 A 
ATOM     15  C   UNL     1      45.785   7.574  11.989  0.00  0.00    +0.000 A 
ATOM     16  C   UNL     1      46.228   6.493  12.796  0.00  0.00    +0.000 A 
ATOM     17  C   UNL     1      47.159   6.380  13.848  0.00  0.00    +0.000 A 
ATOM     18  C   UNL     1      47.364   5.133  14.435  0.00  0.00    +0.000 A 
ATOM     19  F   UNL     1      48.218   5.027  15.462  0.00  0.00    +0.000 F 
ATOM     20  C   UNL     1      46.704   3.999  13.985  0.00  0.00    +0.000 A 
ATOM     21  C   UNL     1      45.787   4.085  12.936  0.00  0.00    +0.000 A 
ATOM     22  C   UNL     1      45.539   5.350  12.375  0.00  0.00    +0.000 A 
ENDBRANCH  12  13
ENDBRANCH   4  12
TORSDOF 5
ENDMDL
MODEL 2
REMARK VINA RESULT:    -7.468      1.439      2.421
REMARK INTER + INTRA:          -9.796
REMARK INTER:                  -9.475
REMARK INTRA:                  -0.321
REMARK UNBOUND:                -0.363
REMARK  Name = 
REMARK  5 active torsions:
REMARK  status: ('A' for Active; 'I' for Inactive)
REMARK    1  A    between atoms: N_1  and  C_2
REMARK    2  A    between atoms: C_2  and  C_3
REMARK    3  A    between atoms: C_3  and  C_4
REMARK    4  A    between atoms: C_7  and  C_8
REMARK    5  A    between atoms: C_8  and  N_9
REMARK                            x       y       z     vdW  Elec       q    Type
REMARK                         _______ _______ _______ _____ _____    ______ ____
ROOT
ATOM      1  C   UNL     1      46.169   2.425   8.398  0.00  0.00    +0.000 C 
ATOM      2  C   UNL     1      44.870   1.771   8.885  0.00  0.00    +0.000 C 
ATOM      3  C   UNL     1      44.256   2.542  10.048  0.00  0.00    +0.000 C 
ATOM      4  C   UNL     1      43.995   4.020   9.718  0.00  0.00    +0.000 C 
ATOM      5  C   UNL     1      45.269   4.676   9.158  0.00  0.00    +0.000 C 
ATOM      6  C   UNL     1      45.894   3.884   8.005  0.00  0.00    +0.000 C 
ENDROOT
BRANCH   1   7
ATOM      7  C   UNL     1      46.759   1.588   7.245  0.00  0.00    +0.000 C 
BRANCH   7   8
ATOM      8  C   UNL     1      47.351   2.386   6.082  0.00  0.00    +0.000 C 
BRANCH   8   9
ATOM      9  N   UNL     1      48.588   1.796   5.586  0.00  0.00    +0.000 NA
ATOM     10  H   UNL     1      49.379   2.352   5.903  0.00  0.00    +0.000 HD
ATOM     11  H   UNL     1      48.601   1.838   4.566  0.00  0.00    +0.000 HD
ENDBRANCH   8   9
ENDBRANCH   7   8
ENDBRANCH   1   7
BRANCH   4  12
ATOM     12  C   UNL     1      43.504   4.818  10.949  0.00  0.00    +0.000 C 
BRANCH  12  13
ATOM     13  N   UNL     1      44.564   5.205  11.871  0.00  0.00    +0.000 N 
ATOM     14  C   UNL     1      45.260   4.322  12.657  0.00  0.00    +0.000 A 
ATOM     15  C   UNL     1      46.256   5.021  13.300  0.00  0.00    +0.000 A 
ATOM     16  C   UNL     1      46.154   6.381  12.906  0.00  0.00    +0.000 A 
ATOM     17  C   UNL     1      46.910   7.536  13.190  0.00  0.00    +0.000 A 
ATOM     18  C   UNL     1      46.522   8.750  12.627  0.00  0.00    +0.000 A 
ATOM     19  F   UNL     1      47.259   9.844  12.860  0.00  0.00    +0.000 F 
ATOM     20  C   UNL     1      45.392   8.854  11.829  0.00  0.00    +0.000 A 
ATOM     21  C   UNL     1      44.621   7.726  11.545  0.00  0.00    +0.000 A 
ATOM     22  C   UNL     1      45.039   6.489  12.068  0.00  0.00    +0.000 A 
ENDBRANCH  12  13
ENDBRANCH   4  12
TORSDOF 5
ENDMDL
MODEL 3
REMARK VINA RESULT:    -6.959      2.123      3.370
REMARK INTER + INTRA:          -9.153
REMARK INTER:                  -8.591
REMARK INTRA:                  -0.563
REMARK UNBOUND:                -0.363
REMARK  Name = 
REMARK  5 active torsions:
REMARK  status: ('A' for Active; 'I' for Inactive)
REMARK    1  A    between atoms: N_1  and  C_2
REMARK    2  A    between atoms: C_2  and  C_3
REMARK    3  A    between atoms: C_3  and  C_4
REMARK    4  A    between atoms: C_7  and  C_8
REMARK    5  A    between atoms: C_8  and  N_9
REMARK                            x       y       z     vdW  Elec       q    Type
REMARK                         _______ _______ _______ _____ _____    ______ ____
ROOT
ATOM      1  C   UNL     1      45.563   3.242   7.450  0.00  0.00    +0.000 C 
ATOM      2  C   UNL     1      46.392   4.413   7.994  0.00  0.00    +0.000 C 
ATOM      3  C   UNL     1      45.678   5.121   9.139  0.00  0.00    +0.000 C 
ATOM      4  C   UNL     1      45.303   4.175  10.292  0.00  0.00    +0.000 C 
ATOM      5  C   UNL     1      44.534   2.957   9.754  0.00  0.00    +0.000 C 
ATOM      6  C   UNL     1      45.246   2.263   8.589  0.00  0.00    +0.000 C 
ENDROOT
BRANCH   1   7
ATOM      7  C   UNL     1      46.320   2.585   6.277  0.00  0.00    +0.000 C 
BRANCH   7   8
ATOM      8  C   UNL     1      47.528   1.730   6.666  0.00  0.00    +0.000 C 
BRANCH   8   9
ATOM      9  N   UNL     1      48.600   1.819   5.683  0.00  0.00    +0.000 NA
ATOM     10  H   UNL     1      49.295   1.101   5.875  0.00  0.00    +0.000 HD
ATOM     11  H   UNL     1      49.080   2.713   5.781  0.00  0.00    +0.000 HD
ENDBRANCH   8   9
ENDBRANCH   7   8
ENDBRANCH   1   7
BRANCH   4  12
ATOM     12  C   UNL     1      44.458   4.880  11.378  0.00  0.00    +0.000 C 
BRANCH  12  13
ATOM     13  N   UNL     1      45.166   5.930  12.098  0.00  0.00    +0.000 N 
ATOM     14  C   UNL     1      46.158   5.697  13.017  0.00  0.00    +0.000 A 
ATOM     15  C   UNL     1      46.677   6.914  13.397  0.00  0.00    +0.000 A 
ATOM     16  C   UNL     1      45.965   7.926  12.700  0.00  0.00    +0.000 A 
ATOM     17  C   UNL     1      46.075   9.329  12.643  0.00  0.00    +0.000 A 
ATOM     18  C   UNL     1      45.188  10.041  11.838  0.00  0.00    +0.000 A 
ATOM     19  F   UNL     1      45.312  11.372  11.748  0.00  0.00    +0.000 F 
ATOM     20  C   UNL     1      44.181   9.407  11.126  0.00  0.00    +0.000 A 
ATOM     21  C   UNL     1      44.045   8.018  11.178  0.00  0.00    +0.000 A 
ATOM     22  C   UNL     1      44.971   7.291  11.947  0.00  0.00    +0.000 A 
ENDBRANCH  12  13
ENDBRANCH   4  12
TORSDOF 5
ENDMDL
MODEL 4
REMARK VINA RESULT:    -6.644      1.273      1.551
REMARK INTER + INTRA:          -8.755
REMARK INTER:                  -8.446
REMARK INTRA:                  -0.309
REMARK UNBOUND:                -0.363
REMARK  Name = 
REMARK  5 active torsions:
REMARK  status: ('A' for Active; 'I' for Inactive)
REMARK    1  A    between atoms: N_1  and  C_2
REMARK    2  A    between atoms: C_2  and  C_3
REMARK    3  A    between atoms: C_3  and  C_4
REMARK    4  A    between atoms: C_7  and  C_8
REMARK    5  A    between atoms: C_8  and  N_9
REMARK                            x       y       z     vdW  Elec       q    Type
REMARK                         _______ _______ _______ _____ _____    ______ ____
ROOT
ATOM      1  C   UNL     1      45.944   3.098   8.315  0.00  0.00    +0.000 C 
ATOM      2  C   UNL     1      44.573   2.621   8.812  0.00  0.00    +0.000 C 
ATOM      3  C   UNL     1      44.241   3.201  10.183  0.00  0.00    +0.000 C 
ATOM      4  C   UNL     1      44.295   4.737  10.215  0.00  0.00    +0.000 C 
ATOM      5  C   UNL     1      45.636   5.236   9.650  0.00  0.00    +0.000 C 
ATOM      6  C   UNL     1      45.974   4.632   8.285  0.00  0.00    +0.000 C 
ENDROOT
BRANCH   1   7
ATOM      7  C   UNL     1      46.238   2.457   6.944  0.00  0.00    +0.000 C 
BRANCH   7   8
ATOM      8  C   UNL     1      47.552   1.680   6.844  0.00  0.00    +0.000 C 
BRANCH   8   9
ATOM      9  N   UNL     1      48.645   2.513   6.360  0.00  0.00    +0.000 NA
ATOM     10  H   UNL     1      48.305   3.116   5.613  0.00  0.00    +0.000 HD
ATOM     11  H   UNL     1      49.365   1.923   5.942  0.00  0.00    +0.000 HD
ENDBRANCH   8   9
ENDBRANCH   7   8
ENDBRANCH   1   7
BRANCH   4  12
ATOM     12  C   UNL     1      44.094   5.301  11.641  0.00  0.00    +0.000 C 
BRANCH  12  13
ATOM     13  N   UNL     1      44.789   6.557  11.889  0.00  0.00    +0.000 N 
ATOM     14  C   UNL     1      44.347   7.780  11.451  0.00  0.00    +0.000 A 
ATOM     15  C   UNL     1      45.182   8.743  11.971  0.00  0.00    +0.000 A 
ATOM     16  C   UNL     1      46.179   8.084  12.738  0.00  0.00    +0.000 A 
ATOM     17  C   UNL     1      47.254   8.534  13.529  0.00  0.00    +0.000 A 
ATOM     18  C   UNL     1      48.066   7.594  14.160  0.00  0.00    +0.000 A 
ATOM     19  F   UNL     1      49.066   8.017  14.946  0.00  0.00    +0.000 F 
ATOM     20  C   UNL     1      47.864   6.232  13.997  0.00  0.00    +0.000 A 
ATOM     21  C   UNL     1      46.813   5.762  13.208  0.00  0.00    +0.000 A 
ATOM     22  C   UNL     1      45.959   6.708  12.612  0.00  0.00    +0.000 A 
ENDBRANCH  12  13
ENDBRANCH   4  12
TORSDOF 5
ENDMDL
MODEL 5
REMARK VINA RESULT:    -6.463      2.994      6.884
REMARK INTER + INTRA:          -8.526
REMARK INTER:                  -8.108
REMARK INTRA:                  -0.419
REMARK UNBOUND:                -0.363
REMARK  Name = 
REMARK  5 active torsions:
REMARK  status: ('A' for Active; 'I' for Inactive)
REMARK    1  A    between atoms: N_1  and  C_2
REMARK    2  A    between atoms: C_2  and  C_3
REMARK    3  A    between atoms: C_3  and  C_4
REMARK    4  A    between atoms: C_7  and  C_8
REMARK    5  A    between atoms: C_8  and  N_9
REMARK                            x       y       z     vdW  Elec       q    Type
REMARK                         _______ _______ _______ _____ _____    ______ ____
ROOT
ATOM      1  C   UNL     1      47.288   8.290  13.593  0.00  0.00    +0.000 C 
ATOM      2  C   UNL     1      47.559   6.886  13.038  0.00  0.00    +0.000 C 
ATOM      3  C   UNL     1      46.267   6.184  12.634  0.00  0.00    +0.000 C 
ATOM      4  C   UNL     1      45.438   6.988  11.620  0.00  0.00    +0.000 C 
ATOM      5  C   UNL     1      45.219   8.424  12.127  0.00  0.00    +0.000 C 
ATOM      6  C   UNL     1      46.518   9.115  12.552  0.00  0.00    +0.000 C 
ENDROOT
BRANCH   1   7
ATOM      7  C   UNL     1      48.624   8.937  14.012  0.00  0.00    +0.000 C 
BRANCH   7   8
ATOM      8  C   UNL     1      48.855   9.062  15.520  0.00  0.00    +0.000 C 
BRANCH   8   9
ATOM      9  N   UNL     1      47.621   9.346  16.240  0.00  0.00    +0.000 NA
ATOM     10  H   UNL     1      47.358  10.318  16.091  0.00  0.00    +0.000 HD
ATOM     11  H   UNL     1      47.780   9.245  17.243  0.00  0.00    +0.000 HD
ENDBRANCH   8   9
ENDBRANCH   7   8
ENDBRANCH   1   7
BRANCH   4  12
ATOM     12  C   UNL     1      44.069   6.331  11.329  0.00  0.00    +0.000 C 
BRANCH  12  13
ATOM     13  N   UNL     1      44.141   4.904  11.044  0.00  0.00    +0.000 N 
ATOM     14  C   UNL     1      43.492   3.940  11.774  0.00  0.00    +0.000 A 
ATOM     15  C   UNL     1      43.688   2.731  11.147  0.00  0.00    +0.000 A 
ATOM     16  C   UNL     1      44.500   2.961  10.005  0.00  0.00    +0.000 A 
ATOM     17  C   UNL     1      44.984   2.134   8.972  0.00  0.00    +0.000 A 
ATOM     18  C   UNL     1      45.783   2.695   7.978  0.00  0.00    +0.000 A 
ATOM     19  F   UNL     1      46.213   1.923   6.971  0.00  0.00    +0.000 F 
ATOM     20  C   UNL     1      46.143   4.035   8.004  0.00  0.00    +0.000 A 
ATOM     21  C   UNL     1      45.685   4.870   9.024  0.00  0.00    +0.000 A 
ATOM     22  C   UNL     1      44.836   4.319  10.000  0.00  0.00    +0.000 A 
ENDBRANCH  12  13
ENDBRANCH   4  12
TORSDOF 5
ENDMDL
MODEL 6
REMARK VINA RESULT:    -5.841      3.205      6.599
REMARK INTER + INTRA:          -7.740
REMARK INTER:                  -7.308
REMARK INTRA:                  -0.433
REMARK UNBOUND:                -0.363
REMARK  Name = 
REMARK  5 active torsions:
REMARK  status: ('A' for Active; 'I' for Inactive)
REMARK    1  A    between atoms: N_1  and  C_2
REMARK    2  A    between atoms: C_2  and  C_3
REMARK    3  A    between atoms: C_3  and  C_4
REMARK    4  A    between atoms: C_7  and  C_8
REMARK    5  A    between atoms: C_8  and  N_9
REMARK                            x       y       z     vdW  Elec       q    Type
REMARK                         _______ _______ _______ _____ _____    ______ ____
ROOT
ATOM      1  C   UNL     1      48.404   7.746  14.199  0.00  0.00    +0.000 C 
ATOM      2  C   UNL     1      48.656   7.054  12.853  0.00  0.00    +0.000 C 
ATOM      3  C   UNL     1      47.351   6.651  12.177  0.00  0.00    +0.000 C 
ATOM      4  C   UNL     1      46.387   7.832  11.976  0.00  0.00    +0.000 C 
ATOM      5  C   UNL     1      46.181   8.584  13.302  0.00  0.00    +0.000 C 
ATOM      6  C   UNL     1      47.496   8.966  13.987  0.00  0.00    +0.000 C 
ENDROOT
BRANCH   1   7
ATOM      7  C   UNL     1      49.757   8.102  14.848  0.00  0.00    +0.000 C 
BRANCH   7   8
ATOM      8  C   UNL     1      50.507   6.937  15.496  0.00  0.00    +0.000 C 
BRANCH   8   9
ATOM      9  N   UNL     1      49.612   6.047  16.224  0.00  0.00    +0.000 NA
ATOM     10  H   UNL     1      49.225   6.539  17.027  0.00  0.00    +0.000 HD
ATOM     11  H   UNL     1      50.143   5.262  16.602  0.00  0.00    +0.000 HD
ENDBRANCH   8   9
ENDBRANCH   7   8
ENDBRANCH   1   7
BRANCH   4  12
ATOM     12  C   UNL     1      45.016   7.383  11.419  0.00  0.00    +0.000 C 
BRANCH  12  13
ATOM     13  N   UNL     1      44.660   6.010  11.748  0.00  0.00    +0.000 N 
ATOM     14  C   UNL     1      44.129   5.619  12.952  0.00  0.00    +0.000 A 
ATOM     15  C   UNL     1      43.807   4.285  12.860  0.00  0.00    +0.000 A 
ATOM     16  C   UNL     1      44.171   3.839  11.561  0.00  0.00    +0.000 A 
ATOM     17  C   UNL     1      44.044   2.611  10.883  0.00  0.00    +0.000 A 
ATOM     18  C   UNL     1      44.524   2.510   9.578  0.00  0.00    +0.000 A 
ATOM     19  F   UNL     1      44.371   1.357   8.914  0.00  0.00    +0.000 F 
ATOM     20  C   UNL     1      45.155   3.573   8.951  0.00  0.00    +0.000 A 
ATOM     21  C   UNL     1      45.304   4.795   9.608  0.00  0.00    +0.000 A 
ATOM     22  C   UNL     1      44.774   4.918  10.905  0.00  0.00    +0.000 A 
ENDBRANCH  12  13
ENDBRANCH   4  12
TORSDOF 5
ENDMDL
MODEL 7
REMARK VINA RESULT:    -5.565      3.696      6.376
REMARK INTER + INTRA:          -7.393
REMARK INTER:                  -7.028
REMARK INTRA:                  -0.365
REMARK UNBOUND:                -0.363
REMARK  Name = 
REMARK  5 active torsions:
REMARK  status: ('A' for Active; 'I' for Inactive)
REMARK    1  A    between atoms: N_1  and  C_2
REMARK    2  A    between atoms: C_2  and  C_3
REMARK    3  A    between atoms: C_3  and  C_4
REMARK    4  A    between atoms: C_7  and  C_8
REMARK    5  A    between atoms: C_8  and  N_9
REMARK                            x       y       z     vdW  Elec       q    Type
REMARK                         _______ _______ _______ _____ _____    ______ ____
ROOT
ATOM      1  C   UNL     1      49.718   8.853  12.260  0.00  0.00    +0.000 C 
ATOM      2  C   UNL     1      49.548   7.365  11.928  0.00  0.00    +0.000 C 
ATOM      3  C   UNL     1      48.213   6.827  12.429  0.00  0.00    +0.000 C 
ATOM      4  C   UNL     1      47.007   7.615  11.892  0.00  0.00    +0.000 C 
ATOM      5  C   UNL     1      47.194   9.120  12.151  0.00  0.00    +0.000 C 
ATOM      6  C   UNL     1      48.547   9.649  11.665  0.00  0.00    +0.000 C 
ENDROOT
BRANCH   1   7
ATOM      7  C   UNL     1      51.095   9.332  11.757  0.00  0.00    +0.000 C 
BRANCH   7   8
ATOM      8  C   UNL     1      52.069   8.228  11.343  0.00  0.00    +0.000 C 
BRANCH   8   9
ATOM      9  N   UNL     1      53.014   7.905  12.405  0.00  0.00    +0.000 NA
ATOM     10  H   UNL     1      53.853   7.496  11.999  0.00  0.00    +0.000 HD
ATOM     11  H   UNL     1      52.614   7.188  13.012  0.00  0.00    +0.000 HD
ENDBRANCH   8   9
ENDBRANCH   7   8
ENDBRANCH   1   7
BRANCH   4  12
ATOM     12  C   UNL     1      45.673   7.147  12.520  0.00  0.00    +0.000 C 
BRANCH  12  13
ATOM     13  N   UNL     1      45.386   5.733  12.323  0.00  0.00    +0.000 N 
ATOM     14  C   UNL     1      45.062   4.865  13.335  0.00  0.00    +0.000 A 
ATOM     15  C   UNL     1      44.739   3.653  12.768  0.00  0.00    +0.000 A 
ATOM     16  C   UNL     1      44.888   3.779  11.361  0.00  0.00    +0.000 A 
ATOM     17  C   UNL     1      44.661   2.910  10.277  0.00  0.00    +0.000 A 
ATOM     18  C   UNL     1      44.922   3.362   8.985  0.00  0.00    +0.000 A 
ATOM     19  F   UNL     1      44.670   2.554   7.946  0.00  0.00    +0.000 F 
ATOM     20  C   UNL     1      45.434   4.629   8.747  0.00  0.00    +0.000 A 
ATOM     21  C   UNL     1      45.679   5.503   9.807  0.00  0.00    +0.000 A 
ATOM     22  C   UNL     1      45.368   5.070  11.108  0.00  0.00    +0.000 A 
ENDBRANCH  12  13
ENDBRANCH   4  12
TORSDOF 5
ENDMDL
MODEL 8
REMARK VINA RESULT:    -5.368      3.386      5.431
REMARK INTER + INTRA:          -7.143
REMARK INTER:                  -6.564
REMARK INTRA:                  -0.580
REMARK UNBOUND:                -0.363
REMARK  Name = 
REMARK  5 active torsions:
REMARK  status: ('A' for Active; 'I' for Inactive)
REMARK    1  A    between atoms: N_1  and  C_2
REMARK    2  A    between atoms: C_2  and  C_3
REMARK    3  A    between atoms: C_3  and  C_4
REMARK    4  A    between atoms: C_7  and  C_8
REMARK    5  A    between atoms: C_8  and  N_9
REMARK                            x       y       z     vdW  Elec       q    Type
REMARK                         _______ _______ _______ _____ _____    ______ ____
ROOT
ATOM      1  C   UNL     1      45.548   4.768  11.482  0.00  0.00    +0.000 C 
ATOM      2  C   UNL     1      45.653   4.486  12.987  0.00  0.00    +0.000 C 
ATOM      3  C   UNL     1      46.972   4.991  13.560  0.00  0.00    +0.000 C 
ATOM      4  C   UNL     1      47.208   6.488  13.300  0.00  0.00    +0.000 C 
ATOM      5  C   UNL     1      47.033   6.803  11.804  0.00  0.00    +0.000 C 
ATOM      6  C   UNL     1      45.717   6.273  11.229  0.00  0.00    +0.000 C 
ENDROOT
BRANCH   1   7
ATOM      7  C   UNL     1      44.211   4.209  10.953  0.00  0.00    +0.000 C 
BRANCH   7   8
ATOM      8  C   UNL     1      43.344   3.482  11.983  0.00  0.00    +0.000 C 
BRANCH   8   9
ATOM      9  N   UNL     1      43.013   2.127  11.560  0.00  0.00    +0.000 NA
ATOM     10  H   UNL     1      43.044   1.505  12.365  0.00  0.00    +0.000 HD
ATOM     11  H   UNL     1      43.725   1.788  10.912  0.00  0.00    +0.000 HD
ENDBRANCH   8   9
ENDBRANCH   7   8
ENDBRANCH   1   7
BRANCH   4  12
ATOM     12  C   UNL     1      48.609   6.951  13.763  0.00  0.00    +0.000 C 
BRANCH  12  13
ATOM     13  N   UNL     1      48.613   7.653  15.040  0.00  0.00    +0.000 N 
ATOM     14  C   UNL     1      48.412   9.004  15.175  0.00  0.00    +0.000 A 
ATOM     15  C   UNL     1      48.361   9.291  16.520  0.00  0.00    +0.000 A 
ATOM     16  C   UNL     1      48.556   8.077  17.231  0.00  0.00    +0.000 A 
ATOM     17  C   UNL     1      48.559   7.740  18.599  0.00  0.00    +0.000 A 
ATOM     18  C   UNL     1      48.793   6.416  18.966  0.00  0.00    +0.000 A 
ATOM     19  F   UNL     1      48.758   6.081  20.262  0.00  0.00    +0.000 F 
ATOM     20  C   UNL     1      49.060   5.436  18.021  0.00  0.00    +0.000 A 
ATOM     21  C   UNL     1      49.075   5.749  16.661  0.00  0.00    +0.000 A 
ATOM     22  C   UNL     1      48.787   7.073  16.284  0.00  0.00    +0.000 A 
ENDBRANCH  12  13
ENDBRANCH   4  12
TORSDOF 5
ENDMDL
MODEL 9
REMARK VINA RESULT:    -5.288      2.945      4.596
REMARK INTER + INTRA:          -7.042
REMARK INTER:                  -6.487
REMARK INTRA:                  -0.555
REMARK UNBOUND:                -0.363
REMARK  Name = 
REMARK  5 active torsions:
REMARK  status: ('A' for Active; 'I' for Inactive)
REMARK    1  A    between atoms: N_1  and  C_2
REMARK    2  A    between atoms: C_2  and  C_3
REMARK    3  A    between atoms: C_3  and  C_4
REMARK    4  A    between atoms: C_7  and  C_8
REMARK    5  A    between atoms: C_8  and  N_9
REMARK                            x       y       z     vdW  Elec       q    Type
REMARK                         _______ _______ _______ _____ _____    ______ ____
ROOT
ATOM      1  C   UNL     1      44.552   4.286  11.613  0.00  0.00    +0.000 C 
ATOM      2  C   UNL     1      45.197   5.287  10.646  0.00  0.00    +0.000 C 
ATOM      3  C   UNL     1      45.699   6.527  11.377  0.00  0.00    +0.000 C 
ATOM      4  C   UNL     1      46.683   6.200  12.512  0.00  0.00    +0.000 C 
ATOM      5  C   UNL     1      46.082   5.140  13.451  0.00  0.00    +0.000 C 
ATOM      6  C   UNL     1      45.558   3.907  12.709  0.00  0.00    +0.000 C 
ENDROOT
BRANCH   1   7
ATOM      7  C   UNL     1      44.037   3.070  10.816  0.00  0.00    +0.000 C 
BRANCH   7   8
ATOM      8  C   UNL     1      44.512   2.980   9.364  0.00  0.00    +0.000 C 
BRANCH   8   9
ATOM      9  N   UNL     1      45.296   1.777   9.118  0.00  0.00    +0.000 NA
ATOM     10  H   UNL     1      46.255   2.037   8.896  0.00  0.00    +0.000 HD
ATOM     11  H   UNL     1      44.935   1.296   8.294  0.00  0.00    +0.000 HD
ENDBRANCH   8   9
ENDBRANCH   7   8
ENDBRANCH   1   7
BRANCH   4  12
ATOM     12  C   UNL     1      47.073   7.453  13.331  0.00  0.00    +0.000 C 
BRANCH  12  13
ATOM     13  N   UNL     1      48.493   7.545  13.641  0.00  0.00    +0.000 N 
ATOM     14  C   UNL     1      49.410   8.202  12.859  0.00  0.00    +0.000 A 
ATOM     15  C   UNL     1      50.617   8.187  13.519  0.00  0.00    +0.000 A 
ATOM     16  C   UNL     1      50.437   7.480  14.738  0.00  0.00    +0.000 A 
ATOM     17  C   UNL     1      51.280   7.185  15.827  0.00  0.00    +0.000 A 
ATOM     18  C   UNL     1      50.772   6.444  16.892  0.00  0.00    +0.000 A 
ATOM     19  F   UNL     1      51.557   6.195  17.948  0.00  0.00    +0.000 F 
ATOM     20  C   UNL     1      49.472   5.960  16.886  0.00  0.00    +0.000 A 
ATOM     21  C   UNL     1      48.622   6.228  15.812  0.00  0.00    +0.000 A 
ATOM     22  C   UNL     1      49.115   7.020  14.760  0.00  0.00    +0.000 A 
ENDBRANCH  12  13
ENDBRANCH   4  12
TORSDOF 5
ENDMDL
