MODEL 1
REMARK VINA RESULT:    -7.472      0.000      0.000
REMARK INTER + INTRA:         -11.358
REMARK INTER:                 -10.748
REMARK INTRA:                  -0.610
REMARK UNBOUND:                -0.610
REMARK  Name = 
REMARK  8 active torsions:
REMARK  status: ('A' for Active; 'I' for Inactive)
REMARK    1  A    between atoms: N_1  and  C_2
REMARK    2  A    between atoms: C_2  and  C_3
REMARK    3  A    between atoms: C_3  and  N_4
REMARK    4  A    between atoms: N_4  and  C_5
REMARK    5  A    between atoms: C_5  and  C_6
REMARK    6  A    between atoms: C_9  and  C_10
REMARK    7  A    between atoms: C_10  and  N_11
REMARK    8  A    between atoms: C_12  and  C_14
REMARK                            x       y       z     vdW  Elec       q    Type
REMARK                         _______ _______ _______ _____ _____    ______ ____
ROOT
ATOM      1  C   UNL     1      44.188   4.758  12.702  0.00  0.00    +0.000 C 
ENDROOT
BRANCH   1   5
ATOM      2  C   UNL     1      45.390   3.808   8.731  0.00  0.00    +0.000 A 
ATOM      3  C   UNL     1      44.742   2.829   9.480  0.00  0.00    +0.000 A 
ATOM      4  C   UNL     1      44.339   3.131  10.778  0.00  0.00    +0.000 A 
ATOM      5  C   UNL     1      44.603   4.395  11.310  0.00  0.00    +0.000 A 
ATOM      6  C   UNL     1      45.237   5.314  10.482  0.00  0.00    +0.000 A 
ATOM      7  N   UNL     1      45.633   5.053   9.216  0.00  0.00    +0.000 NA
BRANCH   2   8
ATOM      8  C   UNL     1      45.770   3.525   7.289  0.00  0.00    +0.000 C 
BRANCH   8   9
ATOM      9  N   UNL     1      47.208   3.697   6.996  0.00  0.00    +0.000 NA
ATOM     10  H   UNL     1      47.262   4.090   6.051  0.00  0.00    +0.000 HD
BRANCH   9  11
ATOM     11  C   UNL     1      47.920   2.406   6.933  0.00  0.00    +0.000 C 
BRANCH  11  12
ATOM     12  C   UNL     1      46.989   1.184   6.812  0.00  0.00    +0.000 C 
BRANCH  12  13
ATOM     13  N   UNL     1      47.289   0.186   7.846  0.00  0.00    +0.000 NA
ATOM     14  H   UNL     1      47.619  -0.666   7.392  0.00  0.00    +0.000 HD
ATOM     15  H   UNL     1      46.423  -0.066   8.322  0.00  0.00    +0.000 HD
ENDBRANCH  12  13
ENDBRANCH  11  12
ENDBRANCH   9  11
ENDBRANCH   8   9
ENDBRANCH   2   8
ENDBRANCH   1   5
BRANCH   1  16
ATOM     16  N   UNL     1      45.261   5.383  13.433  0.00  0.00    +0.000 N 
ATOM     17  C   UNL     1      46.297   4.633  13.931  0.00  0.00    +0.000 C 
ATOM     18  O   UNL     1      46.375   3.426  13.733  0.00  0.00    +0.000 OA
ATOM     19  H   UNL     1      45.091   6.312  13.809  0.00  0.00    +0.000 HD
BRANCH  17  20
ATOM     20  C   UNL     1      47.348   5.361  14.655  0.00  0.00    +0.000 A 
ATOM     21  C   UNL     1      48.023   6.395  14.021  0.00  0.00    +0.000 A 
ATOM     22  S   UNL     1      49.169   7.175  15.014  0.00  0.00    +0.000 S 
ATOM     23  C   UNL     1      48.847   6.120  16.309  0.00  0.00    +0.000 A 
ATOM     24  N   UNL     1      49.523   6.226  17.483  0.00  0.00    +0.000 NA
ATOM     25  C   UNL     1      49.207   5.335  18.363  0.00  0.00    +0.000 A 
ATOM     26  N   UNL     1      48.270   4.353  18.178  0.00  0.00    +0.000 N 
ATOM     27  C   UNL     1      47.540   4.226  17.022  0.00  0.00    +0.000 A 
ATOM     28  O   UNL     1      46.669   3.366  16.905  0.00  0.00    +0.000 OA
ATOM     29  C   UNL     1      47.865   5.195  15.992  0.00  0.00    +0.000 A 
ATOM     30  H   UNL     1      48.067   3.689  18.911  0.00  0.00    +0.000 HD
ENDBRANCH  17  20
ENDBRANCH   1  16
TORSDOF 8
ENDMDL
MODEL 2
REMARK VINA RESULT:    -7.341      1.610      2.149
REMARK INTER + INTRA:         -11.169
REMARK INTER:                 -10.337
REMARK INTRA:                  -0.832
REMARK UNBOUND:                -0.610
REMARK  Name = 
REMARK  8 active torsions:
REMARK  status: ('A' for Active; 'I' for Inactive)
REMARK    1  A    between atoms: N_1  and  C_2
REMARK    2  A    between atoms: C_2  and  C_3
REMARK    3  A    between atoms: C_3  and  N_4
REMARK    4  A    between atoms: N_4  and  C_5
REMARK    5  A    between atoms: C_5  and  C_6
REMARK    6  A    between atoms: C_9  and  C_10
REMARK    7  A    between atoms: C_10  and  N_11
REMARK    8  A    between atoms: C_12  and  C_14
REMARK                            x       y       z     vdW  Elec       q    Type
REMARK                         _______ _______ _______ _____ _____    ______ ____
ROOT
ATOM      1  C   UNL     1      45.205   6.981  12.055  0.00  0.00    +0.000 C 
ENDROOT
BRANCH   1   5
ATOM      2  C   UNL     1      44.845   3.467   9.682  0.00  0.00    +0.000 A 
ATOM      3  C   UNL     1      45.534   4.556   9.153  0.00  0.00    +0.000 A 
ATOM      4  C   UNL     1      45.663   5.708   9.924  0.00  0.00    +0.000 A 
ATOM      5  C   UNL     1      45.091   5.759  11.197  0.00  0.00    +0.000 A 
ATOM      6  C   UNL     1      44.439   4.619  11.648  0.00  0.00    +0.000 A 
ATOM      7  N   UNL     1      44.304   3.483  10.927  0.00  0.00    +0.000 NA
BRANCH   2   8
ATOM      8  C   UNL     1      44.758   2.175   8.890  0.00  0.00    +0.000 C 
BRANCH   8   9
ATOM      9  N   UNL     1      46.068   1.593   8.532  0.00  0.00    +0.000 NA
ATOM     10  H   UNL     1      46.763   2.076   9.111  0.00  0.00    +0.000 HD
BRANCH   9  11
ATOM     11  C   UNL     1      46.442   1.886   7.134  0.00  0.00    +0.000 C 
BRANCH  11  12
ATOM     12  C   UNL     1      47.940   2.189   6.937  0.00  0.00    +0.000 C 
BRANCH  12  13
ATOM     13  N   UNL     1      48.370   1.864   5.571  0.00  0.00    +0.000 NA
ATOM     14  H   UNL     1      47.556   1.897   4.956  0.00  0.00    +0.000 HD
ATOM     15  H   UNL     1      48.700   0.900   5.550  0.00  0.00    +0.000 HD
ENDBRANCH  12  13
ENDBRANCH  11  12
ENDBRANCH   9  11
ENDBRANCH   8   9
ENDBRANCH   2   8
ENDBRANCH   1   5
BRANCH   1  16
ATOM     16  N   UNL     1      45.969   6.726  13.249  0.00  0.00    +0.000 N 
ATOM     17  C   UNL     1      47.341   6.768  13.223  0.00  0.00    +0.000 C 
ATOM     18  O   UNL     1      47.959   7.069  12.208  0.00  0.00    +0.000 OA
ATOM     19  H   UNL     1      45.499   6.245  14.012  0.00  0.00    +0.000 HD
BRANCH  17  20
ATOM     20  C   UNL     1      48.032   6.502  14.492  0.00  0.00    +0.000 A 
ATOM     21  C   UNL     1      48.999   7.391  14.942  0.00  0.00    +0.000 A 
ATOM     22  S   UNL     1      49.663   6.972  16.456  0.00  0.00    +0.000 S 
ATOM     23  C   UNL     1      48.724   5.555  16.537  0.00  0.00    +0.000 A 
ATOM     24  N   UNL     1      48.831   4.704  17.591  0.00  0.00    +0.000 NA
ATOM     25  C   UNL     1      48.092   3.649  17.502  0.00  0.00    +0.000 A 
ATOM     26  N   UNL     1      47.249   3.372  16.459  0.00  0.00    +0.000 N 
ATOM     27  C   UNL     1      47.083   4.217  15.389  0.00  0.00    +0.000 A 
ATOM     28  O   UNL     1      46.280   3.965  14.492  0.00  0.00    +0.000 OA
ATOM     29  C   UNL     1      47.903   5.414  15.431  0.00  0.00    +0.000 A 
ATOM     30  H   UNL     1      46.693   2.530  16.455  0.00  0.00    +0.000 HD
ENDBRANCH  17  20
ENDBRANCH   1  16
TORSDOF 8
ENDMDL
MODEL 3
REMARK VINA RESULT:    -7.209      2.339      3.440
REMARK INTER + INTRA:         -10.980
REMARK INTER:                 -10.095
REMARK INTRA:                  -0.884
REMARK UNBOUND:                -0.610
REMARK  Name = 
REMARK  8 active torsions:
REMARK  status: ('A' for Active; 'I' for Inactive)
REMARK    1  A    between atoms: N_1  and  C_2
REMARK    2  A    between atoms: C_2  and  C_3
REMARK    3  A    between atoms: C_3  and  N_4
REMARK    4  A    between atoms: N_4  and  C_5
REMARK    5  A    between atoms: C_5  and  C_6
REMARK    6  A    between atoms: C_9  and  C_10
REMARK    7  A    between atoms: C_10  and  N_11
REMARK    8  A    between atoms: C_12  and  C_14
REMARK                            x       y       z     vdW  Elec       q    Type
REMARK                         _______ _______ _______ _____ _____    ______ ____
ROOT
ATOM      1  C   UNL     1      44.719   5.545  13.064  0.00  0.00    +0.000 C 
ENDROOT
BRANCH   1   5
ATOM      2  C   UNL     1      45.134   3.365   9.433  0.00  0.00    +0.000 A 
ATOM      3  C   UNL     1      45.362   4.740   9.411  0.00  0.00    +0.000 A 
ATOM      4  C   UNL     1      45.235   5.460  10.595  0.00  0.00    +0.000 A 
ATOM      5  C   UNL     1      44.868   4.804  11.771  0.00  0.00    +0.000 A 
ATOM      6  C   UNL     1      44.680   3.430  11.702  0.00  0.00    +0.000 A 
ATOM      7  N   UNL     1      44.803   2.700  10.569  0.00  0.00    +0.000 NA
BRANCH   2   8
ATOM      8  C   UNL     1      45.340   2.548   8.171  0.00  0.00    +0.000 C 
BRANCH   8   9
ATOM      9  N   UNL     1      45.940   1.217   8.401  0.00  0.00    +0.000 NA
ATOM     10  H   UNL     1      46.371   1.255   9.330  0.00  0.00    +0.000 HD
BRANCH   9  11
ATOM     11  C   UNL     1      47.043   0.936   7.461  0.00  0.00    +0.000 C 
BRANCH  11  12
ATOM     12  C   UNL     1      47.687   2.198   6.857  0.00  0.00    +0.000 C 
BRANCH  12  13
ATOM     13  N   UNL     1      48.527   1.861   5.700  0.00  0.00    +0.000 NA
ATOM     14  H   UNL     1      49.127   1.074   5.950  0.00  0.00    +0.000 HD
ATOM     15  H   UNL     1      49.152   2.643   5.508  0.00  0.00    +0.000 HD
ENDBRANCH  12  13
ENDBRANCH  11  12
ENDBRANCH   9  11
ENDBRANCH   8   9
ENDBRANCH   2   8
ENDBRANCH   1   5
BRANCH   1  16
ATOM     16  N   UNL     1      45.934   6.225  13.434  0.00  0.00    +0.000 N 
ATOM     17  C   UNL     1      46.968   5.538  14.021  0.00  0.00    +0.000 C 
ATOM     18  O   UNL     1      46.916   4.327  14.206  0.00  0.00    +0.000 OA
ATOM     19  H   UNL     1      45.898   7.237  13.515  0.00  0.00    +0.000 HD
BRANCH  17  20
ATOM     20  C   UNL     1      48.169   6.314  14.354  0.00  0.00    +0.000 A 
ATOM     21  C   UNL     1      48.653   6.301  15.655  0.00  0.00    +0.000 A 
ATOM     22  S   UNL     1      50.085   7.203  15.863  0.00  0.00    +0.000 S 
ATOM     23  C   UNL     1      50.078   7.693  14.234  0.00  0.00    +0.000 A 
ATOM     24  N   UNL     1      51.040   8.521  13.748  0.00  0.00    +0.000 NA
ATOM     25  C   UNL     1      50.889   8.845  12.508  0.00  0.00    +0.000 A 
ATOM     26  N   UNL     1      49.867   8.408  11.706  0.00  0.00    +0.000 N 
ATOM     27  C   UNL     1      48.891   7.546  12.143  0.00  0.00    +0.000 A 
ATOM     28  O   UNL     1      48.017   7.131  11.385  0.00  0.00    +0.000 OA
ATOM     29  C   UNL     1      49.006   7.160  13.537  0.00  0.00    +0.000 A 
ATOM     30  H   UNL     1      49.811   8.696  10.740  0.00  0.00    +0.000 HD
ENDBRANCH  17  20
ENDBRANCH   1  16
TORSDOF 8
ENDMDL
MODEL 4
REMARK VINA RESULT:    -7.080      3.799      8.263
REMARK INTER + INTRA:         -10.793
REMARK INTER:                  -9.805
REMARK INTRA:                  -0.989
REMARK UNBOUND:                -0.610
REMARK  Name = 
REMARK  8 active torsions:
REMARK  status: ('A' for Active; 'I' for Inactive)
REMARK    1  A    between atoms: N_1  and  C_2
REMARK    2  A    between atoms: C_2  and  C_3
REMARK    3  A    between atoms: C_3  and  N_4
REMARK    4  A    between atoms: N_4  and  C_5
REMARK    5  A    between atoms: C_5  and  C_6
REMARK    6  A    between atoms: C_9  and  C_10
REMARK    7  A    between atoms: C_10  and  N_11
REMARK    8  A    between atoms: C_12  and  C_14
REMARK                            x       y       z     vdW  Elec       q    Type
REMARK                         _______ _______ _______ _____ _____    ______ ____
ROOT
ATOM      1  C   UNL     1      47.131   3.400  16.839  0.00  0.00    +0.000 C 
ENDROOT
BRANCH   1   5
ATOM      2  C   UNL     1      51.291   3.537  17.728  0.00  0.00    +0.000 A 
ATOM      3  C   UNL     1      50.554   4.716  17.820  0.00  0.00    +0.000 A 
ATOM      4  C   UNL     1      49.192   4.681  17.537  0.00  0.00    +0.000 A 
ATOM      5  C   UNL     1      48.593   3.479  17.154  0.00  0.00    +0.000 A 
ATOM      6  C   UNL     1      49.403   2.351  17.109  0.00  0.00    +0.000 A 
ATOM      7  N   UNL     1      50.727   2.351  17.385  0.00  0.00    +0.000 NA
BRANCH   2   8
ATOM      8  C   UNL     1      52.761   3.538  18.105  0.00  0.00    +0.000 C 
BRANCH   8   9
ATOM      9  N   UNL     1      53.163   2.418  18.981  0.00  0.00    +0.000 NA
ATOM     10  H   UNL     1      53.635   2.840  19.786  0.00  0.00    +0.000 HD
BRANCH   9  11
ATOM     11  C   UNL     1      54.168   1.547  18.341  0.00  0.00    +0.000 C 
BRANCH  11  12
ATOM     12  C   UNL     1      53.610   0.190  17.868  0.00  0.00    +0.000 C 
BRANCH  12  13
ATOM     13  N   UNL     1      52.225   0.001  18.320  0.00  0.00    +0.000 NA
ATOM     14  H   UNL     1      51.980   0.767  18.948  0.00  0.00    +0.000 HD
ATOM     15  H   UNL     1      52.175  -0.850  18.879  0.00  0.00    +0.000 HD
ENDBRANCH  12  13
ENDBRANCH  11  12
ENDBRANCH   9  11
ENDBRANCH   8   9
ENDBRANCH   2   8
ENDBRANCH   1   5
BRANCH   1  16
ATOM     16  N   UNL     1      46.741   4.388  15.866  0.00  0.00    +0.000 N 
ATOM     17  C   UNL     1      46.864   4.131  14.522  0.00  0.00    +0.000 C 
ATOM     18  O   UNL     1      47.258   3.048  14.105  0.00  0.00    +0.000 OA
ATOM     19  H   UNL     1      46.651   5.349  16.184  0.00  0.00    +0.000 HD
BRANCH  17  20
ATOM     20  C   UNL     1      46.431   5.195  13.607  0.00  0.00    +0.000 A 
ATOM     21  C   UNL     1      47.290   6.250  13.331  0.00  0.00    +0.000 A 
ATOM     22  S   UNL     1      46.663   7.368  12.206  0.00  0.00    +0.000 S 
ATOM     23  C   UNL     1      45.196   6.513  12.092  0.00  0.00    +0.000 A 
ATOM     24  N   UNL     1      44.187   6.958  11.297  0.00  0.00    +0.000 NA
ATOM     25  C   UNL     1      43.118   6.236  11.338  0.00  0.00    +0.000 A 
ATOM     26  N   UNL     1      42.969   5.103  12.094  0.00  0.00    +0.000 N 
ATOM     27  C   UNL     1      43.971   4.597  12.886  0.00  0.00    +0.000 A 
ATOM     28  O   UNL     1      43.825   3.550  13.513  0.00  0.00    +0.000 OA
ATOM     29  C   UNL     1      45.193   5.380  12.888  0.00  0.00    +0.000 A 
ATOM     30  H   UNL     1      42.106   4.580  12.075  0.00  0.00    +0.000 HD
ENDBRANCH  17  20
ENDBRANCH   1  16
TORSDOF 8
ENDMDL
MODEL 5
REMARK VINA RESULT:    -6.784      1.916      3.109
REMARK INTER + INTRA:         -10.369
REMARK INTER:                  -9.445
REMARK INTRA:                  -0.924
REMARK UNBOUND:                -0.610
REMARK  Name = 
REMARK  8 active torsions:
REMARK  status: ('A' for Active; 'I' for Inactive)
REMARK    1  A    between atoms: N_1  and  C_2
REMARK    2  A    between atoms: C_2  and  C_3
REMARK    3  A    between atoms: C_3  and  N_4
REMARK    4  A    between atoms: N_4  and  C_5
REMARK    5  A    between atoms: C_5  and  C_6
REMARK    6  A    between atoms: C_9  and  C_10
REMARK    7  A    between atoms: C_10  and  N_11
REMARK    8  A    between atoms: C_12  and  C_14
REMARK                            x       y       z     vdW  Elec       q    Type
REMARK                         _______ _______ _______ _____ _____    ______ ____
ROOT
ATOM      1  C   UNL     1      46.861   8.012  13.254  0.00  0.00    +0.000 C 
ENDROOT
BRANCH   1   5
ATOM      2  C   UNL     1      44.665   5.195  10.942  0.00  0.00    +0.000 A 
ATOM      3  C   UNL     1      45.828   5.735  10.399  0.00  0.00    +0.000 A 
ATOM      4  C   UNL     1      46.557   6.653  11.150  0.00  0.00    +0.000 A 
ATOM      5  C   UNL     1      46.107   7.027  12.417  0.00  0.00    +0.000 A 
ATOM      6  C   UNL     1      44.947   6.421  12.885  0.00  0.00    +0.000 A 
ATOM      7  N   UNL     1      44.221   5.521  12.183  0.00  0.00    +0.000 NA
BRANCH   2   8
ATOM      8  C   UNL     1      43.896   4.137  10.172  0.00  0.00    +0.000 C 
BRANCH   8   9
ATOM      9  N   UNL     1      44.477   2.780  10.261  0.00  0.00    +0.000 NA
ATOM     10  H   UNL     1      45.166   2.814  11.018  0.00  0.00    +0.000 HD
BRANCH   9  11
ATOM     11  C   UNL     1      45.234   2.421   9.047  0.00  0.00    +0.000 C 
BRANCH  11  12
ATOM     12  C   UNL     1      44.975   3.355   7.849  0.00  0.00    +0.000 C 
BRANCH  12  13
ATOM     13  N   UNL     1      46.226   3.958   7.369  0.00  0.00    +0.000 NA
ATOM     14  H   UNL     1      46.979   3.698   8.006  0.00  0.00    +0.000 HD
ATOM     15  H   UNL     1      46.145   4.972   7.426  0.00  0.00    +0.000 HD
ENDBRANCH  12  13
ENDBRANCH  11  12
ENDBRANCH   9  11
ENDBRANCH   8   9
ENDBRANCH   2   8
ENDBRANCH   1   5
BRANCH   1  16
ATOM     16  N   UNL     1      47.346   7.418  14.474  0.00  0.00    +0.000 N 
ATOM     17  C   UNL     1      48.564   6.784  14.505  0.00  0.00    +0.000 C 
ATOM     18  O   UNL     1      49.298   6.744  13.524  0.00  0.00    +0.000 OA
ATOM     19  H   UNL     1      46.667   7.229  15.205  0.00  0.00    +0.000 HD
BRANCH  17  20
ATOM     20  C   UNL     1      48.978   6.216  15.796  0.00  0.00    +0.000 A 
ATOM     21  C   UNL     1      50.026   6.799  16.494  0.00  0.00    +0.000 A 
ATOM     22  S   UNL     1      50.343   6.060  17.997  0.00  0.00    +0.000 S 
ATOM     23  C   UNL     1      49.128   4.896  17.743  0.00  0.00    +0.000 A 
ATOM     24  N   UNL     1      48.889   3.922  18.661  0.00  0.00    +0.000 NA
ATOM     25  C   UNL     1      47.968   3.083  18.320  0.00  0.00    +0.000 A 
ATOM     26  N   UNL     1      47.259   3.135  17.149  0.00  0.00    +0.000 N 
ATOM     27  C   UNL     1      47.443   4.117  16.207  0.00  0.00    +0.000 A 
ATOM     28  O   UNL     1      46.756   4.167  15.190  0.00  0.00    +0.000 OA
ATOM     29  C   UNL     1      48.478   5.081  16.534  0.00  0.00    +0.000 A 
ATOM     30  H   UNL     1      46.547   2.448  16.947  0.00  0.00    +0.000 HD
ENDBRANCH  17  20
ENDBRANCH   1  16
TORSDOF 8
ENDMDL
MODEL 6
REMARK VINA RESULT:    -6.719      1.891      2.455
REMARK INTER + INTRA:         -10.275
REMARK INTER:                  -9.659
REMARK INTRA:                  -0.616
REMARK UNBOUND:                -0.610
REMARK  Name = 
REMARK  8 active torsions:
REMARK  status: ('A' for Active; 'I' for Inactive)
REMARK    1  A    between atoms: N_1  and  C_2
REMARK    2  A    between atoms: C_2  and  C_3
REMARK    3  A    between atoms: C_3  and  N_4
REMARK    4  A    between atoms: N_4  and  C_5
REMARK    5  A    between atoms: C_5  and  C_6
REMARK    6  A    between atoms: C_9  and  C_10
REMARK    7  A    between atoms: C_10  and  N_11
REMARK    8  A    between atoms: C_12  and  C_14
REMARK                            x       y       z     vdW  Elec       q    Type
REMARK                         _______ _______ _______ _____ _____    ______ ____
ROOT
ATOM      1  C   UNL     1      45.113   5.867  13.004  0.00  0.00    +0.000 C 
ENDROOT
BRANCH   1   5
ATOM      2  C   UNL     1      45.175   3.525   9.451  0.00  0.00    +0.000 A 
ATOM      3  C   UNL     1      45.599   4.850   9.380  0.00  0.00    +0.000 A 
ATOM      4  C   UNL     1      45.589   5.622  10.537  0.00  0.00    +0.000 A 
ATOM      5  C   UNL     1      45.142   5.067  11.738  0.00  0.00    +0.000 A 
ATOM      6  C   UNL     1      44.756   3.733  11.718  0.00  0.00    +0.000 A 
ATOM      7  N   UNL     1      44.762   2.955  10.612  0.00  0.00    +0.000 NA
BRANCH   2   8
ATOM      8  C   UNL     1      45.249   2.644   8.218  0.00  0.00    +0.000 C 
BRANCH   8   9
ATOM      9  N   UNL     1      45.856   1.317   8.456  0.00  0.00    +0.000 NA
ATOM     10  H   UNL     1      46.261   1.353   9.397  0.00  0.00    +0.000 HD
BRANCH   9  11
ATOM     11  C   UNL     1      46.985   1.052   7.544  0.00  0.00    +0.000 C 
BRANCH  11  12
ATOM     12  C   UNL     1      47.330   2.232   6.616  0.00  0.00    +0.000 C 
BRANCH  12  13
ATOM     13  N   UNL     1      48.469   1.907   5.748  0.00  0.00    +0.000 NA
ATOM     14  H   UNL     1      48.114   1.629   4.833  0.00  0.00    +0.000 HD
ATOM     15  H   UNL     1      48.948   1.090   6.126  0.00  0.00    +0.000 HD
ENDBRANCH  12  13
ENDBRANCH  11  12
ENDBRANCH   9  11
ENDBRANCH   8   9
ENDBRANCH   2   8
ENDBRANCH   1   5
BRANCH   1  16
ATOM     16  N   UNL     1      46.336   6.602  13.199  0.00  0.00    +0.000 N 
ATOM     17  C   UNL     1      47.458   5.975  13.682  0.00  0.00    +0.000 C 
ATOM     18  O   UNL     1      47.477   4.772  13.915  0.00  0.00    +0.000 OA
ATOM     19  H   UNL     1      46.271   7.615  13.248  0.00  0.00    +0.000 HD
BRANCH  17  20
ATOM     20  C   UNL     1      48.660   6.806  13.839  0.00  0.00    +0.000 A 
ATOM     21  C   UNL     1      49.196   7.448  12.732  0.00  0.00    +0.000 A 
ATOM     22  S   UNL     1      50.551   8.418  13.091  0.00  0.00    +0.000 S 
ATOM     23  C   UNL     1      50.507   7.968  14.731  0.00  0.00    +0.000 A 
ATOM     24  N   UNL     1      51.432   8.435  15.611  0.00  0.00    +0.000 NA
ATOM     25  C   UNL     1      51.304   7.980  16.812  0.00  0.00    +0.000 A 
ATOM     26  N   UNL     1      50.330   7.106  17.216  0.00  0.00    +0.000 N 
ATOM     27  C   UNL     1      49.356   6.632  16.372  0.00  0.00    +0.000 A 
ATOM     28  O   UNL     1      48.464   5.889  16.776  0.00  0.00    +0.000 OA
ATOM     29  C   UNL     1      49.461   7.102  15.003  0.00  0.00    +0.000 A 
ATOM     30  H   UNL     1      50.284   6.793  18.174  0.00  0.00    +0.000 HD
ENDBRANCH  17  20
ENDBRANCH   1  16
TORSDOF 8
ENDMDL
MODEL 7
REMARK VINA RESULT:    -6.678      3.026      7.773
REMARK INTER + INTRA:         -10.216
REMARK INTER:                  -9.047
REMARK INTRA:                  -1.169
REMARK UNBOUND:                -0.610
REMARK  Name = 
REMARK  8 active torsions:
REMARK  status: ('A' for Active; 'I' for Inactive)
REMARK    1  A    between atoms: N_1  and  C_2
REMARK    2  A    between atoms: C_2  and  C_3
REMARK    3  A    between atoms: C_3  and  N_4
REMARK    4  A    between atoms: N_4  and  C_5
REMARK    5  A    between atoms: C_5  and  C_6
REMARK    6  A    between atoms: C_9  and  C_10
REMARK    7  A    between atoms: C_10  and  N_11
REMARK    8  A    between atoms: C_12  and  C_14
REMARK                            x       y       z     vdW  Elec       q    Type
REMARK                         _______ _______ _______ _____ _____    ______ ____
ROOT
ATOM      1  C   UNL     1      47.972   7.096  13.612  0.00  0.00    +0.000 C 
ENDROOT
BRANCH   1   5
ATOM      2  C   UNL     1      48.984   5.377  17.371  0.00  0.00    +0.000 A 
ATOM      3  C   UNL     1      49.602   6.569  16.999  0.00  0.00    +0.000 A 
ATOM      4  C   UNL     1      49.273   7.143  15.775  0.00  0.00    +0.000 A 
ATOM      5  C   UNL     1      48.350   6.512  14.938  0.00  0.00    +0.000 A 
ATOM      6  C   UNL     1      47.770   5.337  15.401  0.00  0.00    +0.000 A 
ATOM      7  N   UNL     1      48.063   4.759  16.588  0.00  0.00    +0.000 NA
BRANCH   2   8
ATOM      8  C   UNL     1      49.271   4.774  18.734  0.00  0.00    +0.000 C 
BRANCH   8   9
ATOM      9  N   UNL     1      49.649   3.346  18.698  0.00  0.00    +0.000 NA
ATOM     10  H   UNL     1      49.982   3.114  19.639  0.00  0.00    +0.000 HD
BRANCH   9  11
ATOM     11  C   UNL     1      50.791   3.097  17.798  0.00  0.00    +0.000 C 
BRANCH  11  12
ATOM     12  C   UNL     1      50.659   1.812  16.958  0.00  0.00    +0.000 C 
BRANCH  12  13
ATOM     13  N   UNL     1      49.494   1.880  16.066  0.00  0.00    +0.000 NA
ATOM     14  H   UNL     1      49.103   0.943  15.968  0.00  0.00    +0.000 HD
ATOM     15  H   UNL     1      49.808   2.155  15.136  0.00  0.00    +0.000 HD
ENDBRANCH  12  13
ENDBRANCH  11  12
ENDBRANCH   9  11
ENDBRANCH   8   9
ENDBRANCH   2   8
ENDBRANCH   1   5
BRANCH   1  16
ATOM     16  N   UNL     1      47.273   6.144  12.788  0.00  0.00    +0.000 N 
ATOM     17  C   UNL     1      46.387   6.568  11.828  0.00  0.00    +0.000 C 
ATOM     18  O   UNL     1      46.197   7.758  11.605  0.00  0.00    +0.000 OA
ATOM     19  H   UNL     1      47.231   5.183  13.116  0.00  0.00    +0.000 HD
BRANCH  17  20
ATOM     20  C   UNL     1      45.730   5.523  11.031  0.00  0.00    +0.000 A 
ATOM     21  C   UNL     1      45.809   5.569   9.647  0.00  0.00    +0.000 A 
ATOM     22  S   UNL     1      45.046   4.255   8.873  0.00  0.00    +0.000 S 
ATOM     23  C   UNL     1      44.531   3.608  10.359  0.00  0.00    +0.000 A 
ATOM     24  N   UNL     1      43.787   2.471  10.408  0.00  0.00    +0.000 NA
ATOM     25  C   UNL     1      43.432   2.117  11.598  0.00  0.00    +0.000 A 
ATOM     26  N   UNL     1      43.760   2.791  12.744  0.00  0.00    +0.000 N 
ATOM     27  C   UNL     1      44.535   3.924  12.748  0.00  0.00    +0.000 A 
ATOM     28  O   UNL     1      44.856   4.478  13.797  0.00  0.00    +0.000 OA
ATOM     29  C   UNL     1      44.952   4.376  11.433  0.00  0.00    +0.000 A 
ATOM     30  H   UNL     1      43.453   2.455  13.645  0.00  0.00    +0.000 HD
ENDBRANCH  17  20
ENDBRANCH   1  16
TORSDOF 8
ENDMDL
MODEL 8
REMARK VINA RESULT:    -6.488      2.213      3.534
REMARK INTER + INTRA:          -9.943
REMARK INTER:                  -9.282
REMARK INTRA:                  -0.660
REMARK UNBOUND:                -0.610
REMARK  Name = 
REMARK  8 active torsions:
REMARK  status: ('A' for Active; 'I' for Inactive)
REMARK    1  A    between atoms: N_1  and  C_2
REMARK    2  A    between atoms: C_2  and  C_3
REMARK    3  A    between atoms: C_3  and  N_4
REMARK    4  A    between atoms: N_4  and  C_5
REMARK    5  A    between atoms: C_5  and  C_6
REMARK    6  A    between atoms: C_9  and  C_10
REMARK    7  A    between atoms: C_10  and  N_11
REMARK    8  A    between atoms: C_12  and  C_14
REMARK                            x       y       z     vdW  Elec       q    Type
REMARK                         _______ _______ _______ _____ _____    ______ ____
ROOT
ATOM      1  C   UNL     1      47.891   6.711  13.444  0.00  0.00    +0.000 C 
ENDROOT
BRANCH   1   5
ATOM      2  C   UNL     1      44.918   4.106  11.867  0.00  0.00    +0.000 A 
ATOM      3  C   UNL     1      45.058   5.372  11.303  0.00  0.00    +0.000 A 
ATOM      4  C   UNL     1      46.031   6.229  11.807  0.00  0.00    +0.000 A 
ATOM      5  C   UNL     1      46.835   5.817  12.872  0.00  0.00    +0.000 A 
ATOM      6  C   UNL     1      46.637   4.531  13.358  0.00  0.00    +0.000 A 
ATOM      7  N   UNL     1      45.706   3.672  12.884  0.00  0.00    +0.000 NA
BRANCH   2   8
ATOM      8  C   UNL     1      43.915   3.128  11.283  0.00  0.00    +0.000 C 
BRANCH   8   9
ATOM      9  N   UNL     1      43.787   3.196   9.812  0.00  0.00    +0.000 NA
ATOM     10  H   UNL     1      42.996   2.593   9.566  0.00  0.00    +0.000 HD
BRANCH   9  11
ATOM     11  C   UNL     1      44.958   2.618   9.126  0.00  0.00    +0.000 C 
BRANCH  11  12
ATOM     12  C   UNL     1      45.307   3.309   7.793  0.00  0.00    +0.000 C 
BRANCH  12  13
ATOM     13  N   UNL     1      46.010   4.578   8.023  0.00  0.00    +0.000 NA
ATOM     14  H   UNL     1      46.536   4.506   8.895  0.00  0.00    +0.000 HD
ATOM     15  H   UNL     1      45.321   5.314   8.170  0.00  0.00    +0.000 HD
ENDBRANCH  12  13
ENDBRANCH  11  12
ENDBRANCH   9  11
ENDBRANCH   8   9
ENDBRANCH   2   8
ENDBRANCH   1   5
BRANCH   1  16
ATOM     16  N   UNL     1      47.809   6.783  14.880  0.00  0.00    +0.000 N 
ATOM     17  C   UNL     1      48.946   6.725  15.648  0.00  0.00    +0.000 C 
ATOM     18  O   UNL     1      50.063   6.662  15.146  0.00  0.00    +0.000 OA
ATOM     19  H   UNL     1      46.908   6.590  15.309  0.00  0.00    +0.000 HD
BRANCH  17  20
ATOM     20  C   UNL     1      48.763   6.816  17.103  0.00  0.00    +0.000 A 
ATOM     21  C   UNL     1      48.503   8.049  17.683  0.00  0.00    +0.000 A 
ATOM     22  S   UNL     1      48.258   7.975  19.369  0.00  0.00    +0.000 S 
ATOM     23  C   UNL     1      48.550   6.299  19.393  0.00  0.00    +0.000 A 
ATOM     24  N   UNL     1      48.521   5.600  20.559  0.00  0.00    +0.000 NA
ATOM     25  C   UNL     1      48.802   4.346  20.436  0.00  0.00    +0.000 A 
ATOM     26  N   UNL     1      49.100   3.725  19.251  0.00  0.00    +0.000 N 
ATOM     27  C   UNL     1      49.109   4.382  18.046  0.00  0.00    +0.000 A 
ATOM     28  O   UNL     1      49.329   3.787  16.993  0.00  0.00    +0.000 OA
ATOM     29  C   UNL     1      48.814   5.801  18.128  0.00  0.00    +0.000 A 
ATOM     30  H   UNL     1      49.305   2.737  19.225  0.00  0.00    +0.000 HD
ENDBRANCH  17  20
ENDBRANCH   1  16
TORSDOF 8
ENDMDL
MODEL 9
REMARK VINA RESULT:    -6.459      4.083      5.398
REMARK INTER + INTRA:          -9.901
REMARK INTER:                  -9.285
REMARK INTRA:                  -0.616
REMARK UNBOUND:                -0.610
REMARK  Name = 
REMARK  8 active torsions:
REMARK  status: ('A' for Active; 'I' for Inactive)
REMARK    1  A    between atoms: N_1  and  C_2
REMARK    2  A    between atoms: C_2  and  C_3
REMARK    3  A    between atoms: C_3  and  N_4
REMARK    4  A    between atoms: N_4  and  C_5
REMARK    5  A    between atoms: C_5  and  C_6
REMARK    6  A    between atoms: C_9  and  C_10
REMARK    7  A    between atoms: C_10  and  N_11
REMARK    8  A    between atoms: C_12  and  C_14
REMARK                            x       y       z     vdW  Elec       q    Type
REMARK                         _______ _______ _______ _____ _____    ______ ____
ROOT
ATOM      1  C   UNL     1      46.521   3.994  14.250  0.00  0.00    +0.000 C 
ENDROOT
BRANCH   1   5
ATOM      2  C   UNL     1      45.184   7.475  12.199  0.00  0.00    +0.000 A 
ATOM      3  C   UNL     1      44.283   6.429  12.387  0.00  0.00    +0.000 A 
ATOM      4  C   UNL     1      44.709   5.289  13.062  0.00  0.00    +0.000 A 
ATOM      5  C   UNL     1      46.024   5.204  13.522  0.00  0.00    +0.000 A 
ATOM      6  C   UNL     1      46.846   6.304  13.305  0.00  0.00    +0.000 A 
ATOM      7  N   UNL     1      46.460   7.428  12.660  0.00  0.00    +0.000 NA
BRANCH   2   8
ATOM      8  C   UNL     1      44.720   8.757  11.532  0.00  0.00    +0.000 C 
BRANCH   8   9
ATOM      9  N   UNL     1      43.378   8.670  10.919  0.00  0.00    +0.000 NA
ATOM     10  H   UNL     1      43.466   8.025  10.128  0.00  0.00    +0.000 HD
BRANCH   9  11
ATOM     11  C   UNL     1      42.949   9.957  10.338  0.00  0.00    +0.000 C 
BRANCH  11  12
ATOM     12  C   UNL     1      41.492  10.336  10.662  0.00  0.00    +0.000 C 
BRANCH  12  13
ATOM     13  N   UNL     1      40.814   9.257  11.393  0.00  0.00    +0.000 NA
ATOM     14  H   UNL     1      40.583   8.513  10.735  0.00  0.00    +0.000 HD
ATOM     15  H   UNL     1      39.925   9.608  11.747  0.00  0.00    +0.000 HD
ENDBRANCH  12  13
ENDBRANCH  11  12
ENDBRANCH   9  11
ENDBRANCH   8   9
ENDBRANCH   2   8
ENDBRANCH   1   5
BRANCH   1  16
ATOM     16  N   UNL     1      47.607   4.314  15.140  0.00  0.00    +0.000 N 
ATOM     17  C   UNL     1      47.524   4.019  16.478  0.00  0.00    +0.000 C 
ATOM     18  O   UNL     1      46.556   3.435  16.952  0.00  0.00    +0.000 OA
ATOM     19  H   UNL     1      48.287   4.999  14.822  0.00  0.00    +0.000 HD
BRANCH  17  20
ATOM     20  C   UNL     1      48.685   4.374  17.304  0.00  0.00    +0.000 A 
ATOM     21  C   UNL     1      48.678   5.566  18.016  0.00  0.00    +0.000 A 
ATOM     22  S   UNL     1      50.072   5.802  18.970  0.00  0.00    +0.000 S 
ATOM     23  C   UNL     1      50.762   4.348  18.420  0.00  0.00    +0.000 A 
ATOM     24  N   UNL     1      51.994   3.955  18.839  0.00  0.00    +0.000 NA
ATOM     25  C   UNL     1      52.411   2.853  18.311  0.00  0.00    +0.000 A 
ATOM     26  N   UNL     1      51.704   2.103  17.408  0.00  0.00    +0.000 N 
ATOM     27  C   UNL     1      50.444   2.442  16.981  0.00  0.00    +0.000 A 
ATOM     28  O   UNL     1      49.814   1.722  16.210  0.00  0.00    +0.000 OA
ATOM     29  C   UNL     1      49.931   3.682  17.534  0.00  0.00    +0.000 A 
ATOM     30  H   UNL     1      52.088   1.246  17.037  0.00  0.00    +0.000 HD
ENDBRANCH  17  20
ENDBRANCH   1  16
TORSDOF 8
ENDMDL
