MODEL 1
REMARK VINA RESULT:    -8.310      0.000      0.000
REMARK INTER + INTRA:         -13.472
REMARK INTER:                 -12.196
REMARK INTRA:                  -1.276
REMARK UNBOUND:                -1.276
REMARK  Name = 
REMARK  9 active torsions:
REMARK  status: ('A' for Active; 'I' for Inactive)
REMARK    1  A    between atoms: C_1  and  O_2
REMARK    2  A    between atoms: O_2  and  C_3
REMARK    3  A    between atoms: C_10  and  C_11
REMARK    4  A    between atoms: N_13  and  C_14
REMARK    5  A    between atoms: C_14  and  C_15
REMARK    6  A    between atoms: C_18  and  C_19
REMARK    7  A    between atoms: C_19  and  N_20
REMARK    8  A    between atoms: N_20  and  C_21
REMARK    9  A    between atoms: C_21  and  C_22
REMARK                            x       y       z     vdW  Elec       q    Type
REMARK                         _______ _______ _______ _____ _____    ______ ____
ROOT
ATOM      1  C   UNL     1      46.995   6.498  12.816  0.00  0.00    +0.000 A 
ATOM      2  C   UNL     1      46.499   5.392  13.517  0.00  0.00    +0.000 A 
ATOM      3  C   UNL     1      45.577   4.520  12.923  0.00  0.00    +0.000 A 
ATOM      4  C   UNL     1      45.115   4.738  11.617  0.00  0.00    +0.000 A 
ATOM      5  C   UNL     1      45.583   5.867  10.929  0.00  0.00    +0.000 A 
ATOM      6  C   UNL     1      46.516   6.733  11.518  0.00  0.00    +0.000 A 
ENDROOT
BRANCH   1   7
ATOM      7  C   UNL     1      48.050   7.383  13.435  0.00  0.00    +0.000 C 
BRANCH   7  10
ATOM      8  C   UNL     1      49.074   7.031  15.641  0.00  0.00    +0.000 C 
ATOM      9  O   UNL     1      50.137   6.708  15.108  0.00  0.00    +0.000 OA
ATOM     10  N   UNL     1      47.984   7.369  14.881  0.00  0.00    +0.000 N 
ATOM     11  H   UNL     1      47.120   7.655  15.325  0.00  0.00    +0.000 HD
BRANCH   8  19
ATOM     12  C   UNL     1      48.907   4.596  18.085  0.00  0.00    +0.000 A 
ATOM     13  N   UNL     1      48.800   3.870  19.220  0.00  0.00    +0.000 NA
ATOM     14  C   UNL     1      48.686   4.525  20.378  0.00  0.00    +0.000 A 
ATOM     15  N   UNL     1      48.663   5.843  20.550  0.00  0.00    +0.000 NA
ATOM     16  C   UNL     1      48.755   6.526  19.396  0.00  0.00    +0.000 A 
ATOM     17  S   UNL     1      48.741   8.221  19.430  0.00  0.00    +0.000 S 
ATOM     18  C   UNL     1      48.879   8.301  17.739  0.00  0.00    +0.000 A 
ATOM     19  C   UNL     1      48.946   7.060  17.110  0.00  0.00    +0.000 A 
ATOM     20  C   UNL     1      48.872   5.998  18.111  0.00  0.00    +0.000 A 
BRANCH  12  22
ATOM     21  C   UNL     1      47.783   3.435  16.410  0.00  0.00    +0.000 C 
ATOM     22  O   UNL     1      49.037   3.914  16.893  0.00  0.00    +0.000 OA
ENDBRANCH  12  22
ENDBRANCH   8  19
ENDBRANCH   7  10
ENDBRANCH   1   7
BRANCH   4  23
ATOM     23  C   UNL     1      44.170   3.749  10.958  0.00  0.00    +0.000 C 
BRANCH  23  24
ATOM     24  N   UNL     1      44.841   2.491  10.646  0.00  0.00    +0.000 NA
ATOM     25  H   UNL     1      44.577   1.786  11.337  0.00  0.00    +0.000 HD
BRANCH  24  26
ATOM     26  C   UNL     1      44.467   1.967   9.324  0.00  0.00    +0.000 C 
BRANCH  26  27
ATOM     27  C   UNL     1      45.632   2.043   8.354  0.00  0.00    +0.000 A 
ATOM     28  N   UNL     1      46.338   0.894   8.137  0.00  0.00    +0.000 NA
ATOM     29  C   UNL     1      47.390   0.965   7.290  0.00  0.00    +0.000 A 
ATOM     30  C   UNL     1      47.777   2.120   6.627  0.00  0.00    +0.000 A 
ATOM     31  C   UNL     1      47.036   3.279   6.846  0.00  0.00    +0.000 A 
ATOM     32  C   UNL     1      45.950   3.236   7.715  0.00  0.00    +0.000 A 
ATOM     33  F   UNL     1      45.236   4.351   7.918  0.00  0.00    +0.000 F 
ENDBRANCH  26  27
ENDBRANCH  24  26
ENDBRANCH  23  24
ENDBRANCH   4  23
TORSDOF 8
ENDMDL
MODEL 2
REMARK VINA RESULT:    -7.682      1.740      2.127
REMARK INTER + INTRA:         -12.552
REMARK INTER:                 -11.192
REMARK INTRA:                  -1.360
REMARK UNBOUND:                -1.276
REMARK  Name = 
REMARK  9 active torsions:
REMARK  status: ('A' for Active; 'I' for Inactive)
REMARK    1  A    between atoms: C_1  and  O_2
REMARK    2  A    between atoms: O_2  and  C_3
REMARK    3  A    between atoms: C_10  and  C_11
REMARK    4  A    between atoms: N_13  and  C_14
REMARK    5  A    between atoms: C_14  and  C_15
REMARK    6  A    between atoms: C_18  and  C_19
REMARK    7  A    between atoms: C_19  and  N_20
REMARK    8  A    between atoms: N_20  and  C_21
REMARK    9  A    between atoms: C_21  and  C_22
REMARK                            x       y       z     vdW  Elec       q    Type
REMARK                         _______ _______ _______ _____ _____    ______ ____
ROOT
ATOM      1  C   UNL     1      46.737   6.606  12.926  0.00  0.00    +0.000 A 
ATOM      2  C   UNL     1      45.886   6.949  11.868  0.00  0.00    +0.000 A 
ATOM      3  C   UNL     1      45.024   6.001  11.304  0.00  0.00    +0.000 A 
ATOM      4  C   UNL     1      44.999   4.679  11.771  0.00  0.00    +0.000 A 
ATOM      5  C   UNL     1      45.880   4.326  12.804  0.00  0.00    +0.000 A 
ATOM      6  C   UNL     1      46.734   5.278  13.379  0.00  0.00    +0.000 A 
ENDROOT
BRANCH   1   7
ATOM      7  C   UNL     1      47.602   7.656  13.581  0.00  0.00    +0.000 C 
BRANCH   7  10
ATOM      8  C   UNL     1      49.488   7.805  15.151  0.00  0.00    +0.000 C 
ATOM      9  O   UNL     1      49.247   8.998  15.343  0.00  0.00    +0.000 OA
ATOM     10  N   UNL     1      48.726   7.068  14.280  0.00  0.00    +0.000 N 
ATOM     11  H   UNL     1      48.915   6.083  14.143  0.00  0.00    +0.000 HD
BRANCH   8  19
ATOM     12  C   UNL     1      49.729   5.026  17.189  0.00  0.00    +0.000 A 
ATOM     13  N   UNL     1      50.103   4.021  18.010  0.00  0.00    +0.000 NA
ATOM     14  C   UNL     1      51.394   3.922  18.337  0.00  0.00    +0.000 A 
ATOM     15  N   UNL     1      52.381   4.718  17.940  0.00  0.00    +0.000 NA
ATOM     16  C   UNL     1      51.963   5.714  17.139  0.00  0.00    +0.000 A 
ATOM     17  S   UNL     1      53.094   6.826  16.538  0.00  0.00    +0.000 S 
ATOM     18  C   UNL     1      51.882   7.674  15.702  0.00  0.00    +0.000 A 
ATOM     19  C   UNL     1      50.604   7.139  15.848  0.00  0.00    +0.000 A 
ATOM     20  C   UNL     1      50.661   5.961  16.711  0.00  0.00    +0.000 A 
BRANCH  12  22
ATOM     21  C   UNL     1      47.820   3.837  16.593  0.00  0.00    +0.000 C 
ATOM     22  O   UNL     1      48.397   5.117  16.845  0.00  0.00    +0.000 OA
ENDBRANCH  12  22
ENDBRANCH   8  19
ENDBRANCH   7  10
ENDBRANCH   1   7
BRANCH   4  23
ATOM     23  C   UNL     1      44.012   3.678  11.199  0.00  0.00    +0.000 C 
BRANCH  23  24
ATOM     24  N   UNL     1      44.683   2.473  10.721  0.00  0.00    +0.000 NA
ATOM     25  H   UNL     1      44.416   1.681  11.309  0.00  0.00    +0.000 HD
BRANCH  24  26
ATOM     26  C   UNL     1      44.313   2.135   9.338  0.00  0.00    +0.000 C 
BRANCH  26  27
ATOM     27  C   UNL     1      45.518   2.196   8.417  0.00  0.00    +0.000 A 
ATOM     28  N   UNL     1      46.185   1.027   8.185  0.00  0.00    +0.000 NA
ATOM     29  C   UNL     1      47.272   1.083   7.382  0.00  0.00    +0.000 A 
ATOM     30  C   UNL     1      47.731   2.244   6.778  0.00  0.00    +0.000 A 
ATOM     31  C   UNL     1      47.030   3.424   7.010  0.00  0.00    +0.000 A 
ATOM     32  C   UNL     1      45.910   3.397   7.835  0.00  0.00    +0.000 A 
ATOM     33  F   UNL     1      45.234   4.532   8.052  0.00  0.00    +0.000 F 
ENDBRANCH  26  27
ENDBRANCH  24  26
ENDBRANCH  23  24
ENDBRANCH   4  23
TORSDOF 8
ENDMDL
MODEL 3
REMARK VINA RESULT:    -7.445      2.356      2.901
REMARK INTER + INTRA:         -12.203
REMARK INTER:                 -10.882
REMARK INTRA:                  -1.320
REMARK UNBOUND:                -1.276
REMARK  Name = 
REMARK  9 active torsions:
REMARK  status: ('A' for Active; 'I' for Inactive)
REMARK    1  A    between atoms: C_1  and  O_2
REMARK    2  A    between atoms: O_2  and  C_3
REMARK    3  A    between atoms: C_10  and  C_11
REMARK    4  A    between atoms: N_13  and  C_14
REMARK    5  A    between atoms: C_14  and  C_15
REMARK    6  A    between atoms: C_18  and  C_19
REMARK    7  A    between atoms: C_19  and  N_20
REMARK    8  A    between atoms: N_20  and  C_21
REMARK    9  A    between atoms: C_21  and  C_22
REMARK                            x       y       z     vdW  Elec       q    Type
REMARK                         _______ _______ _______ _____ _____    ______ ____
ROOT
ATOM      1  C   UNL     1      44.944   6.607  12.430  0.00  0.00    +0.000 A 
ATOM      2  C   UNL     1      45.079   5.491  13.265  0.00  0.00    +0.000 A 
ATOM      3  C   UNL     1      44.685   4.219  12.832  0.00  0.00    +0.000 A 
ATOM      4  C   UNL     1      44.129   4.030  11.559  0.00  0.00    +0.000 A 
ATOM      5  C   UNL     1      43.958   5.154  10.738  0.00  0.00    +0.000 A 
ATOM      6  C   UNL     1      44.365   6.426  11.165  0.00  0.00    +0.000 A 
ENDROOT
BRANCH   1   7
ATOM      7  C   UNL     1      45.449   7.959  12.875  0.00  0.00    +0.000 C 
BRANCH   7  10
ATOM      8  C   UNL     1      47.900   7.832  13.016  0.00  0.00    +0.000 C 
ATOM      9  O   UNL     1      47.983   7.884  11.789  0.00  0.00    +0.000 OA
ATOM     10  N   UNL     1      46.676   7.852  13.636  0.00  0.00    +0.000 N 
ATOM     11  H   UNL     1      46.614   7.830  14.646  0.00  0.00    +0.000 HD
BRANCH   8  19
ATOM     12  C   UNL     1      48.839   5.847  15.684  0.00  0.00    +0.000 A 
ATOM     13  N   UNL     1      49.443   5.241  16.728  0.00  0.00    +0.000 NA
ATOM     14  C   UNL     1      50.672   5.640  17.063  0.00  0.00    +0.000 A 
ATOM     15  N   UNL     1      51.390   6.592  16.474  0.00  0.00    +0.000 NA
ATOM     16  C   UNL     1      50.745   7.179  15.452  0.00  0.00    +0.000 A 
ATOM     17  S   UNL     1      51.516   8.418  14.586  0.00  0.00    +0.000 S 
ATOM     18  C   UNL     1      50.167   8.608  13.571  0.00  0.00    +0.000 A 
ATOM     19  C   UNL     1      49.111   7.744  13.852  0.00  0.00    +0.000 A 
ATOM     20  C   UNL     1      49.466   6.888  14.982  0.00  0.00    +0.000 A 
BRANCH  12  22
ATOM     21  C   UNL     1      47.304   4.101  15.801  0.00  0.00    +0.000 C 
ATOM     22  O   UNL     1      47.574   5.423  15.334  0.00  0.00    +0.000 OA
ENDBRANCH  12  22
ENDBRANCH   8  19
ENDBRANCH   7  10
ENDBRANCH   1   7
BRANCH   4  23
ATOM     23  C   UNL     1      43.769   2.636  11.075  0.00  0.00    +0.000 C 
BRANCH  23  24
ATOM     24  N   UNL     1      43.816   2.544   9.619  0.00  0.00    +0.000 NA
ATOM     25  H   UNL     1      44.184   3.418   9.236  0.00  0.00    +0.000 HD
BRANCH  24  26
ATOM     26  C   UNL     1      44.694   1.460   9.152  0.00  0.00    +0.000 C 
BRANCH  26  27
ATOM     27  C   UNL     1      45.800   1.994   8.261  0.00  0.00    +0.000 A 
ATOM     28  N   UNL     1      45.837   3.343   8.054  0.00  0.00    +0.000 NA
ATOM     29  C   UNL     1      46.809   3.818   7.242  0.00  0.00    +0.000 A 
ATOM     30  C   UNL     1      47.766   3.023   6.629  0.00  0.00    +0.000 A 
ATOM     31  C   UNL     1      47.725   1.651   6.864  0.00  0.00    +0.000 A 
ATOM     32  C   UNL     1      46.733   1.134   7.693  0.00  0.00    +0.000 A 
ATOM     33  F   UNL     1      46.701  -0.185   7.922  0.00  0.00    +0.000 F 
ENDBRANCH  26  27
ENDBRANCH  24  26
ENDBRANCH  23  24
ENDBRANCH   4  23
TORSDOF 8
ENDMDL
MODEL 4
REMARK VINA RESULT:    -7.251      1.855      3.264
REMARK INTER + INTRA:         -11.918
REMARK INTER:                 -10.589
REMARK INTRA:                  -1.329
REMARK UNBOUND:                -1.276
REMARK  Name = 
REMARK  9 active torsions:
REMARK  status: ('A' for Active; 'I' for Inactive)
REMARK    1  A    between atoms: C_1  and  O_2
REMARK    2  A    between atoms: O_2  and  C_3
REMARK    3  A    between atoms: C_10  and  C_11
REMARK    4  A    between atoms: N_13  and  C_14
REMARK    5  A    between atoms: C_14  and  C_15
REMARK    6  A    between atoms: C_18  and  C_19
REMARK    7  A    between atoms: C_19  and  N_20
REMARK    8  A    between atoms: N_20  and  C_21
REMARK    9  A    between atoms: C_21  and  C_22
REMARK                            x       y       z     vdW  Elec       q    Type
REMARK                         _______ _______ _______ _____ _____    ______ ____
ROOT
ATOM      1  C   UNL     1      46.408   4.273  13.626  0.00  0.00    +0.000 A 
ATOM      2  C   UNL     1      46.159   5.566  13.150  0.00  0.00    +0.000 A 
ATOM      3  C   UNL     1      45.308   5.777  12.057  0.00  0.00    +0.000 A 
ATOM      4  C   UNL     1      44.696   4.700  11.400  0.00  0.00    +0.000 A 
ATOM      5  C   UNL     1      44.977   3.402  11.853  0.00  0.00    +0.000 A 
ATOM      6  C   UNL     1      45.818   3.191  12.956  0.00  0.00    +0.000 A 
ENDROOT
BRANCH   1   7
ATOM      7  C   UNL     1      47.260   4.063  14.855  0.00  0.00    +0.000 C 
BRANCH   7  10
ATOM      8  C   UNL     1      48.556   5.445  16.420  0.00  0.00    +0.000 C 
ATOM      9  O   UNL     1      49.334   4.510  16.618  0.00  0.00    +0.000 OA
ATOM     10  N   UNL     1      47.492   5.301  15.567  0.00  0.00    +0.000 N 
ATOM     11  H   UNL     1      46.869   6.080  15.392  0.00  0.00    +0.000 HD
BRANCH   8  19
ATOM     12  C   UNL     1      48.711   8.721  15.334  0.00  0.00    +0.000 A 
ATOM     13  N   UNL     1      48.831  10.058  15.190  0.00  0.00    +0.000 NA
ATOM     14  C   UNL     1      49.025  10.795  16.286  0.00  0.00    +0.000 A 
ATOM     15  N   UNL     1      49.118  10.355  17.537  0.00  0.00    +0.000 NA
ATOM     16  C   UNL     1      49.009   9.019  17.634  0.00  0.00    +0.000 A 
ATOM     17  S   UNL     1      49.105   8.286  19.160  0.00  0.00    +0.000 S 
ATOM     18  C   UNL     1      48.899   6.742  18.481  0.00  0.00    +0.000 A 
ATOM     19  C   UNL     1      48.748   6.741  17.097  0.00  0.00    +0.000 A 
ATOM     20  C   UNL     1      48.814   8.111  16.595  0.00  0.00    +0.000 A 
BRANCH  12  22
ATOM     21  C   UNL     1      49.722   7.604  13.560  0.00  0.00    +0.000 C 
ATOM     22  O   UNL     1      48.499   7.965  14.200  0.00  0.00    +0.000 OA
ENDBRANCH  12  22
ENDBRANCH   8  19
ENDBRANCH   7  10
ENDBRANCH   1   7
BRANCH   4  23
ATOM     23  C   UNL     1      43.722   4.945  10.262  0.00  0.00    +0.000 C 
BRANCH  23  24
ATOM     24  N   UNL     1      43.996   4.075   9.123  0.00  0.00    +0.000 NA
ATOM     25  H   UNL     1      43.251   4.178   8.431  0.00  0.00    +0.000 HD
BRANCH  24  26
ATOM     26  C   UNL     1      45.263   4.407   8.454  0.00  0.00    +0.000 C 
BRANCH  26  27
ATOM     27  C   UNL     1      45.936   3.164   7.903  0.00  0.00    +0.000 A 
ATOM     28  N   UNL     1      45.753   1.998   8.591  0.00  0.00    +0.000 NA
ATOM     29  C   UNL     1      46.370   0.894   8.113  0.00  0.00    +0.000 A 
ATOM     30  C   UNL     1      47.156   0.876   6.971  0.00  0.00    +0.000 A 
ATOM     31  C   UNL     1      47.319   2.069   6.271  0.00  0.00    +0.000 A 
ATOM     32  C   UNL     1      46.699   3.222   6.741  0.00  0.00    +0.000 A 
ATOM     33  F   UNL     1      46.852   4.366   6.062  0.00  0.00    +0.000 F 
ENDBRANCH  26  27
ENDBRANCH  24  26
ENDBRANCH  23  24
ENDBRANCH   4  23
TORSDOF 8
ENDMDL
MODEL 5
REMARK VINA RESULT:    -6.819      3.507      5.708
REMARK INTER + INTRA:         -11.284
REMARK INTER:                  -9.796
REMARK INTRA:                  -1.488
REMARK UNBOUND:                -1.276
REMARK  Name = 
REMARK  9 active torsions:
REMARK  status: ('A' for Active; 'I' for Inactive)
REMARK    1  A    between atoms: C_1  and  O_2
REMARK    2  A    between atoms: O_2  and  C_3
REMARK    3  A    between atoms: C_10  and  C_11
REMARK    4  A    between atoms: N_13  and  C_14
REMARK    5  A    between atoms: C_14  and  C_15
REMARK    6  A    between atoms: C_18  and  C_19
REMARK    7  A    between atoms: C_19  and  N_20
REMARK    8  A    between atoms: N_20  and  C_21
REMARK    9  A    between atoms: C_21  and  C_22
REMARK                            x       y       z     vdW  Elec       q    Type
REMARK                         _______ _______ _______ _____ _____    ______ ____
ROOT
ATOM      1  C   UNL     1      47.905   4.045  16.618  0.00  0.00    +0.000 A 
ATOM      2  C   UNL     1      47.143   3.702  15.495  0.00  0.00    +0.000 A 
ATOM      3  C   UNL     1      47.006   4.592  14.422  0.00  0.00    +0.000 A 
ATOM      4  C   UNL     1      47.615   5.855  14.449  0.00  0.00    +0.000 A 
ATOM      5  C   UNL     1      48.347   6.212  15.591  0.00  0.00    +0.000 A 
ATOM      6  C   UNL     1      48.496   5.317  16.660  0.00  0.00    +0.000 A 
ENDROOT
BRANCH   1   7
ATOM      7  C   UNL     1      48.115   3.047  17.732  0.00  0.00    +0.000 C 
BRANCH   7  10
ATOM      8  C   UNL     1      50.358   2.179  17.226  0.00  0.00    +0.000 C 
ATOM      9  O   UNL     1      49.932   1.649  16.199  0.00  0.00    +0.000 OA
ATOM     10  N   UNL     1      49.517   2.882  18.051  0.00  0.00    +0.000 N 
ATOM     11  H   UNL     1      49.877   3.334  18.883  0.00  0.00    +0.000 HD
BRANCH   8  19
ATOM     12  C   UNL     1      52.701   4.407  18.442  0.00  0.00    +0.000 A 
ATOM     13  N   UNL     1      53.800   5.052  18.890  0.00  0.00    +0.000 NA
ATOM     14  C   UNL     1      54.929   4.352  19.030  0.00  0.00    +0.000 A 
ATOM     15  N   UNL     1      55.103   3.060  18.772  0.00  0.00    +0.000 NA
ATOM     16  C   UNL     1      53.990   2.460  18.315  0.00  0.00    +0.000 A 
ATOM     17  S   UNL     1      54.033   0.808  17.935  0.00  0.00    +0.000 S 
ATOM     18  C   UNL     1      52.398   0.826  17.472  0.00  0.00    +0.000 A 
ATOM     19  C   UNL     1      51.781   2.069  17.598  0.00  0.00    +0.000 A 
ATOM     20  C   UNL     1      52.742   3.045  18.105  0.00  0.00    +0.000 A 
BRANCH  12  22
ATOM     21  C   UNL     1      51.197   5.825  19.512  0.00  0.00    +0.000 C 
ATOM     22  O   UNL     1      51.535   5.132  18.311  0.00  0.00    +0.000 OA
ENDBRANCH  12  22
ENDBRANCH   8  19
ENDBRANCH   7  10
ENDBRANCH   1   7
BRANCH   4  23
ATOM     23  C   UNL     1      47.518   6.783  13.251  0.00  0.00    +0.000 C 
BRANCH  23  24
ATOM     24  N   UNL     1      46.329   7.627  13.320  0.00  0.00    +0.000 NA
ATOM     25  H   UNL     1      46.613   8.606  13.387  0.00  0.00    +0.000 HD
BRANCH  24  26
ATOM     26  C   UNL     1      45.479   7.498  12.127  0.00  0.00    +0.000 C 
BRANCH  26  27
ATOM     27  C   UNL     1      44.791   6.146  12.086  0.00  0.00    +0.000 A 
ATOM     28  N   UNL     1      43.907   5.865  13.089  0.00  0.00    +0.000 NA
ATOM     29  C   UNL     1      43.310   4.652  13.066  0.00  0.00    +0.000 A 
ATOM     30  C   UNL     1      43.531   3.697  12.085  0.00  0.00    +0.000 A 
ATOM     31  C   UNL     1      44.421   4.005  11.059  0.00  0.00    +0.000 A 
ATOM     32  C   UNL     1      45.053   5.245  11.060  0.00  0.00    +0.000 A 
ATOM     33  F   UNL     1      45.904   5.541  10.069  0.00  0.00    +0.000 F 
ENDBRANCH  26  27
ENDBRANCH  24  26
ENDBRANCH  23  24
ENDBRANCH   4  23
TORSDOF 8
ENDMDL
MODEL 6
REMARK VINA RESULT:    -6.741      1.748      2.254
REMARK INTER + INTRA:         -11.170
REMARK INTER:                  -9.886
REMARK INTRA:                  -1.284
REMARK UNBOUND:                -1.276
REMARK  Name = 
REMARK  9 active torsions:
REMARK  status: ('A' for Active; 'I' for Inactive)
REMARK    1  A    between atoms: C_1  and  O_2
REMARK    2  A    between atoms: O_2  and  C_3
REMARK    3  A    between atoms: C_10  and  C_11
REMARK    4  A    between atoms: N_13  and  C_14
REMARK    5  A    between atoms: C_14  and  C_15
REMARK    6  A    between atoms: C_18  and  C_19
REMARK    7  A    between atoms: C_19  and  N_20
REMARK    8  A    between atoms: N_20  and  C_21
REMARK    9  A    between atoms: C_21  and  C_22
REMARK                            x       y       z     vdW  Elec       q    Type
REMARK                         _______ _______ _______ _____ _____    ______ ____
ROOT
ATOM      1  C   UNL     1      48.267   7.454  13.499  0.00  0.00    +0.000 A 
ATOM      2  C   UNL     1      47.986   6.158  13.048  0.00  0.00    +0.000 A 
ATOM      3  C   UNL     1      46.728   5.838  12.523  0.00  0.00    +0.000 A 
ATOM      4  C   UNL     1      45.710   6.799  12.449  0.00  0.00    +0.000 A 
ATOM      5  C   UNL     1      45.979   8.086  12.937  0.00  0.00    +0.000 A 
ATOM      6  C   UNL     1      47.243   8.412  13.451  0.00  0.00    +0.000 A 
ENDROOT
BRANCH   1   7
ATOM      7  C   UNL     1      49.651   7.810  13.986  0.00  0.00    +0.000 C 
BRANCH   7  10
ATOM      8  C   UNL     1      49.797   8.108  16.421  0.00  0.00    +0.000 C 
ATOM      9  O   UNL     1      49.507   9.300  16.303  0.00  0.00    +0.000 OA
ATOM     10  N   UNL     1      49.902   7.301  15.317  0.00  0.00    +0.000 N 
ATOM     11  H   UNL     1      50.119   6.317  15.422  0.00  0.00    +0.000 HD
BRANCH   8  19
ATOM     12  C   UNL     1      48.546   5.361  18.100  0.00  0.00    +0.000 A 
ATOM     13  N   UNL     1      48.220   4.386  18.977  0.00  0.00    +0.000 NA
ATOM     14  C   UNL     1      48.836   4.373  20.161  0.00  0.00    +0.000 A 
ATOM     15  N   UNL     1      49.756   5.231  20.592  0.00  0.00    +0.000 NA
ATOM     16  C   UNL     1      50.038   6.193  19.696  0.00  0.00    +0.000 A 
ATOM     17  S   UNL     1      51.192   7.374  20.082  0.00  0.00    +0.000 S 
ATOM     18  C   UNL     1      50.979   8.137  18.578  0.00  0.00    +0.000 A 
ATOM     19  C   UNL     1      50.043   7.520  17.751  0.00  0.00    +0.000 A 
ATOM     20  C   UNL     1      49.483   6.353  18.428  0.00  0.00    +0.000 A 
BRANCH  12  22
ATOM     21  C   UNL     1      47.705   4.042  16.377  0.00  0.00    +0.000 C 
ATOM     22  O   UNL     1      47.916   5.363  16.873  0.00  0.00    +0.000 OA
ENDBRANCH  12  22
ENDBRANCH   8  19
ENDBRANCH   7  10
ENDBRANCH   1   7
BRANCH   4  23
ATOM     23  C   UNL     1      44.373   6.459  11.815  0.00  0.00    +0.000 C 
BRANCH  23  24
ATOM     24  N   UNL     1      44.530   6.031  10.428  0.00  0.00    +0.000 NA
ATOM     25  H   UNL     1      45.525   5.940  10.212  0.00  0.00    +0.000 HD
BRANCH  24  26
ATOM     26  C   UNL     1      43.904   4.726  10.168  0.00  0.00    +0.000 C 
BRANCH  26  27
ATOM     27  C   UNL     1      44.784   3.861   9.284  0.00  0.00    +0.000 A 
ATOM     28  N   UNL     1      45.578   4.503   8.377  0.00  0.00    +0.000 NA
ATOM     29  C   UNL     1      46.346   3.734   7.573  0.00  0.00    +0.000 A 
ATOM     30  C   UNL     1      46.383   2.348   7.627  0.00  0.00    +0.000 A 
ATOM     31  C   UNL     1      45.580   1.710   8.570  0.00  0.00    +0.000 A 
ATOM     32  C   UNL     1      44.777   2.477   9.408  0.00  0.00    +0.000 A 
ATOM     33  F   UNL     1      44.011   1.860  10.317  0.00  0.00    +0.000 F 
ENDBRANCH  26  27
ENDBRANCH  24  26
ENDBRANCH  23  24
ENDBRANCH   4  23
TORSDOF 8
ENDMDL
MODEL 7
REMARK VINA RESULT:    -6.497      4.134      8.976
REMARK INTER + INTRA:         -10.812
REMARK INTER:                  -9.155
REMARK INTRA:                  -1.657
REMARK UNBOUND:                -1.276
REMARK  Name = 
REMARK  9 active torsions:
REMARK  status: ('A' for Active; 'I' for Inactive)
REMARK    1  A    between atoms: C_1  and  O_2
REMARK    2  A    between atoms: O_2  and  C_3
REMARK    3  A    between atoms: C_10  and  C_11
REMARK    4  A    between atoms: N_13  and  C_14
REMARK    5  A    between atoms: C_14  and  C_15
REMARK    6  A    between atoms: C_18  and  C_19
REMARK    7  A    between atoms: C_19  and  N_20
REMARK    8  A    between atoms: N_20  and  C_21
REMARK    9  A    between atoms: C_21  and  C_22
REMARK                            x       y       z     vdW  Elec       q    Type
REMARK                         _______ _______ _______ _____ _____    ______ ____
ROOT
ATOM      1  C   UNL     1      48.581   3.390  17.469  0.00  0.00    +0.000 A 
ATOM      2  C   UNL     1      48.952   4.374  18.394  0.00  0.00    +0.000 A 
ATOM      3  C   UNL     1      50.285   4.505  18.805  0.00  0.00    +0.000 A 
ATOM      4  C   UNL     1      51.280   3.648  18.315  0.00  0.00    +0.000 A 
ATOM      5  C   UNL     1      50.901   2.638  17.418  0.00  0.00    +0.000 A 
ATOM      6  C   UNL     1      49.569   2.514  16.995  0.00  0.00    +0.000 A 
ENDROOT
BRANCH   1   7
ATOM      7  C   UNL     1      47.158   3.311  16.969  0.00  0.00    +0.000 C 
BRANCH   7  10
ATOM      8  C   UNL     1      46.950   4.209  14.691  0.00  0.00    +0.000 C 
ATOM      9  O   UNL     1      47.328   3.134  14.222  0.00  0.00    +0.000 OA
ATOM     10  N   UNL     1      46.850   4.384  16.048  0.00  0.00    +0.000 N 
ATOM     11  H   UNL     1      46.519   5.262  16.427  0.00  0.00    +0.000 HD
BRANCH   8  19
ATOM     12  C   UNL     1      44.203   4.963  12.738  0.00  0.00    +0.000 A 
ATOM     13  N   UNL     1      43.289   5.487  11.892  0.00  0.00    +0.000 NA
ATOM     14  C   UNL     1      43.563   6.661  11.318  0.00  0.00    +0.000 A 
ATOM     15  N   UNL     1      44.660   7.394  11.483  0.00  0.00    +0.000 NA
ATOM     16  C   UNL     1      45.549   6.828  12.319  0.00  0.00    +0.000 A 
ATOM     17  S   UNL     1      47.008   7.628  12.645  0.00  0.00    +0.000 S 
ATOM     18  C   UNL     1      47.514   6.378  13.678  0.00  0.00    +0.000 A 
ATOM     19  C   UNL     1      46.599   5.336  13.807  0.00  0.00    +0.000 A 
ATOM     20  C   UNL     1      45.421   5.614  12.990  0.00  0.00    +0.000 A 
BRANCH  12  22
ATOM     21  C   UNL     1      43.605   2.742  12.382  0.00  0.00    +0.000 C 
ATOM     22  O   UNL     1      43.909   3.757  13.338  0.00  0.00    +0.000 OA
ENDBRANCH  12  22
ENDBRANCH   8  19
ENDBRANCH   7  10
ENDBRANCH   1   7
BRANCH   4  23
ATOM     23  C   UNL     1      52.732   3.844  18.714  0.00  0.00    +0.000 C 
BRANCH  23  24
ATOM     24  N   UNL     1      53.160   5.226  18.520  0.00  0.00    +0.000 NA
ATOM     25  H   UNL     1      54.096   5.348  18.913  0.00  0.00    +0.000 HD
BRANCH  24  26
ATOM     26  C   UNL     1      53.231   5.599  17.099  0.00  0.00    +0.000 C 
BRANCH  26  27
ATOM     27  C   UNL     1      52.678   6.994  16.870  0.00  0.00    +0.000 A 
ATOM     28  N   UNL     1      53.500   8.045  17.161  0.00  0.00    +0.000 NA
ATOM     29  C   UNL     1      53.002   9.289  16.977  0.00  0.00    +0.000 A 
ATOM     30  C   UNL     1      51.725   9.552  16.504  0.00  0.00    +0.000 A 
ATOM     31  C   UNL     1      50.906   8.469  16.195  0.00  0.00    +0.000 A 
ATOM     32  C   UNL     1      51.391   7.178  16.377  0.00  0.00    +0.000 A 
ATOM     33  F   UNL     1      50.603   6.138  16.073  0.00  0.00    +0.000 F 
ENDBRANCH  26  27
ENDBRANCH  24  26
ENDBRANCH  23  24
ENDBRANCH   4  23
TORSDOF 8
ENDMDL
MODEL 8
REMARK VINA RESULT:    -6.339      4.189      9.660
REMARK INTER + INTRA:         -10.579
REMARK INTER:                  -8.943
REMARK INTRA:                  -1.636
REMARK UNBOUND:                -1.276
REMARK  Name = 
REMARK  9 active torsions:
REMARK  status: ('A' for Active; 'I' for Inactive)
REMARK    1  A    between atoms: C_1  and  O_2
REMARK    2  A    between atoms: O_2  and  C_3
REMARK    3  A    between atoms: C_10  and  C_11
REMARK    4  A    between atoms: N_13  and  C_14
REMARK    5  A    between atoms: C_14  and  C_15
REMARK    6  A    between atoms: C_18  and  C_19
REMARK    7  A    between atoms: C_19  and  N_20
REMARK    8  A    between atoms: N_20  and  C_21
REMARK    9  A    between atoms: C_21  and  C_22
REMARK                            x       y       z     vdW  Elec       q    Type
REMARK                         _______ _______ _______ _____ _____    ______ ____
ROOT
ATOM      1  C   UNL     1      48.538   4.153  17.563  0.00  0.00    +0.000 A 
ATOM      2  C   UNL     1      48.287   3.793  18.893  0.00  0.00    +0.000 A 
ATOM      3  C   UNL     1      48.995   4.390  19.944  0.00  0.00    +0.000 A 
ATOM      4  C   UNL     1      49.984   5.351  19.694  0.00  0.00    +0.000 A 
ATOM      5  C   UNL     1      50.263   5.683  18.360  0.00  0.00    +0.000 A 
ATOM      6  C   UNL     1      49.545   5.096  17.307  0.00  0.00    +0.000 A 
ENDROOT
BRANCH   1   7
ATOM      7  C   UNL     1      47.712   3.565  16.444  0.00  0.00    +0.000 C 
BRANCH   7  10
ATOM      8  C   UNL     1      46.892   4.348  14.263  0.00  0.00    +0.000 C 
ATOM      9  O   UNL     1      47.136   3.248  13.765  0.00  0.00    +0.000 OA
ATOM     10  N   UNL     1      47.160   4.592  15.586  0.00  0.00    +0.000 N 
ATOM     11  H   UNL     1      46.937   5.491  15.995  0.00  0.00    +0.000 HD
BRANCH   8  19
ATOM     12  C   UNL     1      43.912   4.732  12.559  0.00  0.00    +0.000 A 
ATOM     13  N   UNL     1      42.864   5.134  11.806  0.00  0.00    +0.000 NA
ATOM     14  C   UNL     1      42.915   6.349  11.255  0.00  0.00    +0.000 A 
ATOM     15  N   UNL     1      43.903   7.232  11.360  0.00  0.00    +0.000 NA
ATOM     16  C   UNL     1      44.931   6.786  12.103  0.00  0.00    +0.000 A 
ATOM     17  S   UNL     1      46.279   7.786  12.342  0.00  0.00    +0.000 S 
ATOM     18  C   UNL     1      47.047   6.601  13.287  0.00  0.00    +0.000 A 
ATOM     19  C   UNL     1      46.308   5.431  13.450  0.00  0.00    +0.000 A 
ATOM     20  C   UNL     1      45.038   5.550  12.738  0.00  0.00    +0.000 A 
BRANCH  12  22
ATOM     21  C   UNL     1      43.507   2.470  12.190  0.00  0.00    +0.000 C 
ATOM     22  O   UNL     1      43.848   3.481  13.137  0.00  0.00    +0.000 OA
ENDBRANCH  12  22
ENDBRANCH   8  19
ENDBRANCH   7  10
ENDBRANCH   1   7
BRANCH   4  23
ATOM     23  C   UNL     1      50.696   6.041  20.844  0.00  0.00    +0.000 C 
BRANCH  23  24
ATOM     24  N   UNL     1      50.795   7.482  20.628  0.00  0.00    +0.000 NA
ATOM     25  H   UNL     1      50.981   7.663  19.640  0.00  0.00    +0.000 HD
BRANCH  24  26
ATOM     26  C   UNL     1      49.553   8.189  20.977  0.00  0.00    +0.000 C 
BRANCH  26  27
ATOM     27  C   UNL     1      49.048   9.018  19.810  0.00  0.00    +0.000 A 
ATOM     28  N   UNL     1      49.651  10.225  19.596  0.00  0.00    +0.000 NA
ATOM     29  C   UNL     1      49.188  10.975  18.570  0.00  0.00    +0.000 A 
ATOM     30  C   UNL     1      48.157  10.585  17.728  0.00  0.00    +0.000 A 
ATOM     31  C   UNL     1      47.564   9.345  17.949  0.00  0.00    +0.000 A 
ATOM     32  C   UNL     1      48.019   8.553  18.999  0.00  0.00    +0.000 A 
ATOM     33  F   UNL     1      47.451   7.358  19.205  0.00  0.00    +0.000 F 
ENDBRANCH  26  27
ENDBRANCH  24  26
ENDBRANCH  23  24
ENDBRANCH   4  23
TORSDOF 8
ENDMDL
MODEL 9
REMARK VINA RESULT:    -6.215      4.565      8.884
REMARK INTER + INTRA:         -10.398
REMARK INTER:                  -8.573
REMARK INTRA:                  -1.826
REMARK UNBOUND:                -1.276
REMARK  Name = 
REMARK  9 active torsions:
REMARK  status: ('A' for Active; 'I' for Inactive)
REMARK    1  A    between atoms: C_1  and  O_2
REMARK    2  A    between atoms: O_2  and  C_3
REMARK    3  A    between atoms: C_10  and  C_11
REMARK    4  A    between atoms: N_13  and  C_14
REMARK    5  A    between atoms: C_14  and  C_15
REMARK    6  A    between atoms: C_18  and  C_19
REMARK    7  A    between atoms: C_19  and  N_20
REMARK    8  A    between atoms: N_20  and  C_21
REMARK    9  A    between atoms: C_21  and  C_22
REMARK                            x       y       z     vdW  Elec       q    Type
REMARK                         _______ _______ _______ _____ _____    ______ ____
ROOT
ATOM      1  C   UNL     1      48.799   3.336  17.284  0.00  0.00    +0.000 A 
ATOM      2  C   UNL     1      49.572   4.276  17.978  0.00  0.00    +0.000 A 
ATOM      3  C   UNL     1      50.933   4.050  18.217  0.00  0.00    +0.000 A 
ATOM      4  C   UNL     1      51.557   2.871  17.782  0.00  0.00    +0.000 A 
ATOM      5  C   UNL     1      50.774   1.913  17.122  0.00  0.00    +0.000 A 
ATOM      6  C   UNL     1      49.413   2.144  16.870  0.00  0.00    +0.000 A 
ENDROOT
BRANCH   1   7
ATOM      7  C   UNL     1      47.353   3.626  16.959  0.00  0.00    +0.000 C 
BRANCH   7  10
ATOM      8  C   UNL     1      47.176   4.296  14.602  0.00  0.00    +0.000 C 
ATOM      9  O   UNL     1      47.263   3.119  14.250  0.00  0.00    +0.000 OA
ATOM     10  N   UNL     1      47.225   4.635  15.930  0.00  0.00    +0.000 N 
ATOM     11  H   UNL     1      47.132   5.603  16.214  0.00  0.00    +0.000 HD
BRANCH   8  19
ATOM     12  C   UNL     1      48.922   7.195  13.905  0.00  0.00    +0.000 A 
ATOM     13  N   UNL     1      49.393   8.371  13.438  0.00  0.00    +0.000 NA
ATOM     14  C   UNL     1      48.760   8.938  12.407  0.00  0.00    +0.000 A 
ATOM     15  N   UNL     1      47.692   8.468  11.771  0.00  0.00    +0.000 NA
ATOM     16  C   UNL     1      47.247   7.305  12.278  0.00  0.00    +0.000 A 
ATOM     17  S   UNL     1      45.889   6.562  11.586  0.00  0.00    +0.000 S 
ATOM     18  C   UNL     1      45.971   5.277  12.695  0.00  0.00    +0.000 A 
ATOM     19  C   UNL     1      47.022   5.372  13.605  0.00  0.00    +0.000 A 
ATOM     20  C   UNL     1      47.784   6.591  13.348  0.00  0.00    +0.000 A 
BRANCH  12  22
ATOM     21  C   UNL     1      49.531   7.409  16.142  0.00  0.00    +0.000 C 
ATOM     22  O   UNL     1      49.587   6.608  14.962  0.00  0.00    +0.000 OA
ENDBRANCH  12  22
ENDBRANCH   8  19
ENDBRANCH   7  10
ENDBRANCH   1   7
BRANCH   4  23
ATOM     23  C   UNL     1      53.048   2.668  17.986  0.00  0.00    +0.000 C 
BRANCH  23  24
ATOM     24  N   UNL     1      53.706   3.903  18.402  0.00  0.00    +0.000 NA
ATOM     25  H   UNL     1      54.306   3.710  19.208  0.00  0.00    +0.000 HD
BRANCH  24  26
ATOM     26  C   UNL     1      54.560   4.468  17.347  0.00  0.00    +0.000 C 
BRANCH  26  27
ATOM     27  C   UNL     1      54.085   5.850  16.937  0.00  0.00    +0.000 A 
ATOM     28  N   UNL     1      53.438   6.592  17.883  0.00  0.00    +0.000 NA
ATOM     29  C   UNL     1      52.994   7.815  17.513  0.00  0.00    +0.000 A 
ATOM     30  C   UNL     1      53.170   8.355  16.248  0.00  0.00    +0.000 A 
ATOM     31  C   UNL     1      53.847   7.592  15.300  0.00  0.00    +0.000 A 
ATOM     32  C   UNL     1      54.312   6.329  15.652  0.00  0.00    +0.000 A 
ATOM     33  F   UNL     1      54.968   5.600  14.740  0.00  0.00    +0.000 F 
ENDBRANCH  26  27
ENDBRANCH  24  26
ENDBRANCH  23  24
ENDBRANCH   4  23
TORSDOF 8
ENDMDL
