MODEL 1
REMARK VINA RESULT:    -8.850      0.000      0.000
REMARK INTER + INTRA:         -12.339
REMARK INTER:                 -11.437
REMARK INTRA:                  -0.902
REMARK UNBOUND:                -0.902
REMARK  Name = 
REMARK  5 active torsions:
REMARK  status: ('A' for Active; 'I' for Inactive)
REMARK    1  A    between atoms: C_2  and  C_4
REMARK    2  A    between atoms: C_7  and  O_8
REMARK    3  A    between atoms: O_8  and  C_9
REMARK    4  A    between atoms: C_9  and  C_10
REMARK    5  A    between atoms: C_14  and  C_15
REMARK                            x       y       z     vdW  Elec       q    Type
REMARK                         _______ _______ _______ _____ _____    ______ ____
ROOT
ATOM      1  C   UNL     1      43.826   4.618  11.428  0.00  0.00    +0.000 C 
ENDROOT
BRANCH   1   2
ATOM      2  C   UNL     1      45.072   5.309  11.930  0.00  0.00    +0.000 A 
ATOM      3  C   UNL     1      45.519   6.497  11.341  0.00  0.00    +0.000 A 
ATOM      4  C   UNL     1      46.609   7.180  11.879  0.00  0.00    +0.000 A 
ATOM      5  C   UNL     1      47.256   6.687  13.016  0.00  0.00    +0.000 A 
ATOM      6  C   UNL     1      46.844   5.490  13.629  0.00  0.00    +0.000 A 
ATOM      7  C   UNL     1      45.762   4.802  13.046  0.00  0.00    +0.000 A 
BRANCH   6   8
ATOM      8  C   UNL     1      47.471   5.022  14.882  0.00  0.00    +0.000 A 
ATOM      9  C   UNL     1      47.113   3.825  15.508  0.00  0.00    +0.000 A 
ATOM     10  C   UNL     1      47.672   3.500  16.746  0.00  0.00    +0.000 A 
ATOM     11  C   UNL     1      48.580   4.372  17.328  0.00  0.00    +0.000 A 
ATOM     12 CL   UNL     1      49.268   4.026  18.860  0.00  0.00    +0.000 Cl
ATOM     13  C   UNL     1      48.907   5.528  16.641  0.00  0.00    +0.000 A 
ATOM     14  N   UNL     1      48.380   5.867  15.437  0.00  0.00    +0.000 NA
ENDBRANCH   6   8
ENDBRANCH   1   2
BRANCH   1  15
ATOM     15  O   UNL     1      43.745   4.692  10.008  0.00  0.00    +0.000 OA
BRANCH  15  19
ATOM     16  C   UNL     1      46.303   2.240   7.782  0.00  0.00    +0.000 A 
ATOM     17  C   UNL     1      45.436   1.640   8.701  0.00  0.00    +0.000 A 
ATOM     18  C   UNL     1      44.559   2.427   9.459  0.00  0.00    +0.000 A 
ATOM     19  C   UNL     1      44.540   3.817   9.309  0.00  0.00    +0.000 A 
ATOM     20  C   UNL     1      45.400   4.410   8.382  0.00  0.00    +0.000 A 
ATOM     21  C   UNL     1      46.281   3.630   7.625  0.00  0.00    +0.000 A 
BRANCH  16  23
ATOM     22  N   UNL     1      48.411   2.096   6.561  0.00  0.00    +0.000 N 
ATOM     23  C   UNL     1      47.291   1.450   7.003  0.00  0.00    +0.000 C 
ATOM     24  O   UNL     1      47.125   0.255   6.780  0.00  0.00    +0.000 OA
ATOM     25  H   UNL     1      49.109   1.519   6.109  0.00  0.00    +0.000 HD
ATOM     26  H   UNL     1      48.709   2.985   6.935  0.00  0.00    +0.000 HD
ENDBRANCH  16  23
ENDBRANCH  15  19
ENDBRANCH   1  15
TORSDOF 5
ENDMDL
MODEL 2
REMARK VINA RESULT:    -8.492      2.860      4.056
REMARK INTER + INTRA:         -11.876
REMARK INTER:                 -11.015
REMARK INTRA:                  -0.861
REMARK UNBOUND:                -0.902
REMARK  Name = 
REMARK  5 active torsions:
REMARK  status: ('A' for Active; 'I' for Inactive)
REMARK    1  A    between atoms: C_2  and  C_4
REMARK    2  A    between atoms: C_7  and  O_8
REMARK    3  A    between atoms: O_8  and  C_9
REMARK    4  A    between atoms: C_9  and  C_10
REMARK    5  A    between atoms: C_14  and  C_15
REMARK                            x       y       z     vdW  Elec       q    Type
REMARK                         _______ _______ _______ _____ _____    ______ ____
ROOT
ATOM      1  C   UNL     1      43.461   4.838  10.941  0.00  0.00    +0.000 C 
ENDROOT
BRANCH   1   2
ATOM      2  C   UNL     1      44.649   5.117  11.830  0.00  0.00    +0.000 A 
ATOM      3  C   UNL     1      45.075   4.176  12.774  0.00  0.00    +0.000 A 
ATOM      4  C   UNL     1      46.234   4.401  13.516  0.00  0.00    +0.000 A 
ATOM      5  C   UNL     1      46.983   5.563  13.315  0.00  0.00    +0.000 A 
ATOM      6  C   UNL     1      46.582   6.539  12.384  0.00  0.00    +0.000 A 
ATOM      7  C   UNL     1      45.389   6.303  11.672  0.00  0.00    +0.000 A 
BRANCH   6   8
ATOM      8  C   UNL     1      47.424   7.720  12.108  0.00  0.00    +0.000 A 
ATOM      9  C   UNL     1      48.727   7.624  11.612  0.00  0.00    +0.000 A 
ATOM     10  C   UNL     1      49.502   8.778  11.479  0.00  0.00    +0.000 A 
ATOM     11  C   UNL     1      48.957  10.003  11.835  0.00  0.00    +0.000 A 
ATOM     12 CL   UNL     1      49.883  11.441  11.715  0.00  0.00    +0.000 Cl
ATOM     13  C   UNL     1      47.653  10.028  12.297  0.00  0.00    +0.000 A 
ATOM     14  N   UNL     1      46.879   8.922  12.435  0.00  0.00    +0.000 NA
ENDBRANCH   6   8
ENDBRANCH   1   2
BRANCH   1  15
ATOM     15  O   UNL     1      43.543   3.529  10.385  0.00  0.00    +0.000 OA
BRANCH  15  19
ATOM     16  C   UNL     1      46.464   2.671   7.514  0.00  0.00    +0.000 A 
ATOM     17  C   UNL     1      46.017   3.990   7.638  0.00  0.00    +0.000 A 
ATOM     18  C   UNL     1      45.046   4.319   8.593  0.00  0.00    +0.000 A 
ATOM     19  C   UNL     1      44.511   3.336   9.431  0.00  0.00    +0.000 A 
ATOM     20  C   UNL     1      44.969   2.022   9.311  0.00  0.00    +0.000 A 
ATOM     21  C   UNL     1      45.935   1.686   8.357  0.00  0.00    +0.000 A 
BRANCH  16  23
ATOM     22  N   UNL     1      47.432   2.953   5.292  0.00  0.00    +0.000 N 
ATOM     23  C   UNL     1      47.446   2.268   6.475  0.00  0.00    +0.000 C 
ATOM     24  O   UNL     1      48.258   1.370   6.673  0.00  0.00    +0.000 OA
ATOM     25  H   UNL     1      48.166   2.720   4.635  0.00  0.00    +0.000 HD
ATOM     26  H   UNL     1      46.975   3.847   5.187  0.00  0.00    +0.000 HD
ENDBRANCH  16  23
ENDBRANCH  15  19
ENDBRANCH   1  15
TORSDOF 5
ENDMDL
MODEL 3
REMARK VINA RESULT:    -7.985      2.344      3.067
REMARK INTER + INTRA:         -11.221
REMARK INTER:                 -10.442
REMARK INTRA:                  -0.779
REMARK UNBOUND:                -0.902
REMARK  Name = 
REMARK  5 active torsions:
REMARK  status: ('A' for Active; 'I' for Inactive)
REMARK    1  A    between atoms: C_2  and  C_4
REMARK    2  A    between atoms: C_7  and  O_8
REMARK    3  A    between atoms: O_8  and  C_9
REMARK    4  A    between atoms: C_9  and  C_10
REMARK    5  A    between atoms: C_14  and  C_15
REMARK                            x       y       z     vdW  Elec       q    Type
REMARK                         _______ _______ _______ _____ _____    ______ ____
ROOT
ATOM      1  C   UNL     1      44.024   3.798  11.709  0.00  0.00    +0.000 C 
ENDROOT
BRANCH   1   2
ATOM      2  C   UNL     1      44.457   5.245  11.662  0.00  0.00    +0.000 A 
ATOM      3  C   UNL     1      43.549   6.253  11.318  0.00  0.00    +0.000 A 
ATOM      4  C   UNL     1      43.932   7.592  11.380  0.00  0.00    +0.000 A 
ATOM      5  C   UNL     1      45.222   7.936  11.794  0.00  0.00    +0.000 A 
ATOM      6  C   UNL     1      46.166   6.951  12.136  0.00  0.00    +0.000 A 
ATOM      7  C   UNL     1      45.764   5.605  12.033  0.00  0.00    +0.000 A 
BRANCH   6   8
ATOM      8  C   UNL     1      47.496   7.322  12.662  0.00  0.00    +0.000 A 
ATOM      9  C   UNL     1      48.450   8.001  11.899  0.00  0.00    +0.000 A 
ATOM     10  C   UNL     1      49.724   8.222  12.426  0.00  0.00    +0.000 A 
ATOM     11  C   UNL     1      50.016   7.768  13.704  0.00  0.00    +0.000 A 
ATOM     12 CL   UNL     1      51.576   7.993  14.378  0.00  0.00    +0.000 Cl
ATOM     13  C   UNL     1      49.016   7.125  14.412  0.00  0.00    +0.000 A 
ATOM     14  N   UNL     1      47.770   6.898  13.924  0.00  0.00    +0.000 NA
ENDBRANCH   6   8
ENDBRANCH   1   2
BRANCH   1  15
ATOM     15  O   UNL     1      43.570   3.366  10.429  0.00  0.00    +0.000 OA
BRANCH  15  19
ATOM     16  C   UNL     1      46.482   2.656   7.510  0.00  0.00    +0.000 A 
ATOM     17  C   UNL     1      45.999   3.959   7.667  0.00  0.00    +0.000 A 
ATOM     18  C   UNL     1      45.029   4.238   8.640  0.00  0.00    +0.000 A 
ATOM     19  C   UNL     1      44.532   3.222   9.461  0.00  0.00    +0.000 A 
ATOM     20  C   UNL     1      45.027   1.924   9.308  0.00  0.00    +0.000 A 
ATOM     21  C   UNL     1      45.992   1.638   8.336  0.00  0.00    +0.000 A 
BRANCH  16  23
ATOM     22  N   UNL     1      47.421   3.019   5.287  0.00  0.00    +0.000 N 
ATOM     23  C   UNL     1      47.464   2.305   6.452  0.00  0.00    +0.000 C 
ATOM     24  O   UNL     1      48.300   1.423   6.619  0.00  0.00    +0.000 OA
ATOM     25  H   UNL     1      48.154   2.822   4.617  0.00  0.00    +0.000 HD
ATOM     26  H   UNL     1      46.941   3.903   5.209  0.00  0.00    +0.000 HD
ENDBRANCH  16  23
ENDBRANCH  15  19
ENDBRANCH   1  15
TORSDOF 5
ENDMDL
MODEL 4
REMARK VINA RESULT:    -7.272      3.907      8.000
REMARK INTER + INTRA:         -10.300
REMARK INTER:                  -9.538
REMARK INTRA:                  -0.762
REMARK UNBOUND:                -0.902
REMARK  Name = 
REMARK  5 active torsions:
REMARK  status: ('A' for Active; 'I' for Inactive)
REMARK    1  A    between atoms: C_2  and  C_4
REMARK    2  A    between atoms: C_7  and  O_8
REMARK    3  A    between atoms: O_8  and  C_9
REMARK    4  A    between atoms: C_9  and  C_10
REMARK    5  A    between atoms: C_14  and  C_15
REMARK                            x       y       z     vdW  Elec       q    Type
REMARK                         _______ _______ _______ _____ _____    ______ ____
ROOT
ATOM      1  C   UNL     1      45.973   7.112  13.023  0.00  0.00    +0.000 C 
ENDROOT
BRANCH   1   2
ATOM      2  C   UNL     1      45.083   6.177  12.239  0.00  0.00    +0.000 A 
ATOM      3  C   UNL     1      43.701   6.150  12.459  0.00  0.00    +0.000 A 
ATOM      4  C   UNL     1      42.878   5.359  11.659  0.00  0.00    +0.000 A 
ATOM      5  C   UNL     1      43.427   4.596  10.625  0.00  0.00    +0.000 A 
ATOM      6  C   UNL     1      44.812   4.587  10.380  0.00  0.00    +0.000 A 
ATOM      7  C   UNL     1      45.625   5.368  11.225  0.00  0.00    +0.000 A 
BRANCH   6   8
ATOM      8  C   UNL     1      45.377   3.851   9.229  0.00  0.00    +0.000 A 
ATOM      9  C   UNL     1      45.351   2.458   9.134  0.00  0.00    +0.000 A 
ATOM     10  C   UNL     1      46.000   1.827   8.070  0.00  0.00    +0.000 A 
ATOM     11  C   UNL     1      46.652   2.600   7.122  0.00  0.00    +0.000 A 
ATOM     12 CL   UNL     1      47.486   1.866   5.816  0.00  0.00    +0.000 Cl
ATOM     13  C   UNL     1      46.617   3.976   7.265  0.00  0.00    +0.000 A 
ATOM     14  N   UNL     1      45.994   4.614   8.288  0.00  0.00    +0.000 NA
ENDBRANCH   6   8
ENDBRANCH   1   2
BRANCH   1  15
ATOM     15  O   UNL     1      47.290   6.580  13.134  0.00  0.00    +0.000 OA
BRANCH  15  19
ATOM     16  C   UNL     1      48.277   4.731  16.756  0.00  0.00    +0.000 A 
ATOM     17  C   UNL     1      47.407   4.069  15.884  0.00  0.00    +0.000 A 
ATOM     18  C   UNL     1      47.058   4.652  14.658  0.00  0.00    +0.000 A 
ATOM     19  C   UNL     1      47.573   5.899  14.292  0.00  0.00    +0.000 A 
ATOM     20  C   UNL     1      48.452   6.551  15.161  0.00  0.00    +0.000 A 
ATOM     21  C   UNL     1      48.799   5.976  16.389  0.00  0.00    +0.000 A 
BRANCH  16  23
ATOM     22  N   UNL     1      47.792   3.229  18.617  0.00  0.00    +0.000 N 
ATOM     23  C   UNL     1      48.624   4.178  18.090  0.00  0.00    +0.000 C 
ATOM     24  O   UNL     1      49.630   4.538  18.693  0.00  0.00    +0.000 OA
ATOM     25  H   UNL     1      48.095   2.805  19.485  0.00  0.00    +0.000 HD
ATOM     26  H   UNL     1      47.120   2.725  18.058  0.00  0.00    +0.000 HD
ENDBRANCH  16  23
ENDBRANCH  15  19
ENDBRANCH   1  15
TORSDOF 5
ENDMDL
MODEL 5
REMARK VINA RESULT:    -6.887      4.352      7.843
REMARK INTER + INTRA:          -9.802
REMARK INTER:                  -9.007
REMARK INTRA:                  -0.795
REMARK UNBOUND:                -0.902
REMARK  Name = 
REMARK  5 active torsions:
REMARK  status: ('A' for Active; 'I' for Inactive)
REMARK    1  A    between atoms: C_2  and  C_4
REMARK    2  A    between atoms: C_7  and  O_8
REMARK    3  A    between atoms: O_8  and  C_9
REMARK    4  A    between atoms: C_9  and  C_10
REMARK    5  A    between atoms: C_14  and  C_15
REMARK                            x       y       z     vdW  Elec       q    Type
REMARK                         _______ _______ _______ _____ _____    ______ ____
ROOT
ATOM      1  C   UNL     1      44.806   6.763  12.720  0.00  0.00    +0.000 C 
ENDROOT
BRANCH   1   2
ATOM      2  C   UNL     1      44.521   5.385  12.169  0.00  0.00    +0.000 A 
ATOM      3  C   UNL     1      43.548   4.566  12.753  0.00  0.00    +0.000 A 
ATOM      4  C   UNL     1      43.223   3.341  12.173  0.00  0.00    +0.000 A 
ATOM      5  C   UNL     1      43.858   2.928  11.000  0.00  0.00    +0.000 A 
ATOM      6  C   UNL     1      44.849   3.717  10.389  0.00  0.00    +0.000 A 
ATOM      7  C   UNL     1      45.185   4.935  11.014  0.00  0.00    +0.000 A 
BRANCH   6   8
ATOM      8  C   UNL     1      45.452   3.320   9.100  0.00  0.00    +0.000 A 
ATOM      9  C   UNL     1      45.718   1.990   8.766  0.00  0.00    +0.000 A 
ATOM     10  C   UNL     1      46.388   1.698   7.575  0.00  0.00    +0.000 A 
ATOM     11  C   UNL     1      46.771   2.739   6.742  0.00  0.00    +0.000 A 
ATOM     12 CL   UNL     1      47.620   2.428   5.286  0.00  0.00    +0.000 Cl
ATOM     13  C   UNL     1      46.454   4.031   7.124  0.00  0.00    +0.000 A 
ATOM     14  N   UNL     1      45.803   4.341   8.274  0.00  0.00    +0.000 NA
ENDBRANCH   6   8
ENDBRANCH   1   2
BRANCH   1  15
ATOM     15  O   UNL     1      45.650   7.496  11.837  0.00  0.00    +0.000 OA
BRANCH  15  19
ATOM     16  C   UNL     1      49.388   8.432  13.466  0.00  0.00    +0.000 A 
ATOM     17  C   UNL     1      49.343   7.697  12.277  0.00  0.00    +0.000 A 
ATOM     18  C   UNL     1      48.110   7.371  11.696  0.00  0.00    +0.000 A 
ATOM     19  C   UNL     1      46.913   7.772  12.296  0.00  0.00    +0.000 A 
ATOM     20  C   UNL     1      46.963   8.516  13.477  0.00  0.00    +0.000 A 
ATOM     21  C   UNL     1      48.191   8.841  14.065  0.00  0.00    +0.000 A 
BRANCH  16  23
ATOM     22  N   UNL     1      51.556   7.722  14.332  0.00  0.00    +0.000 N 
ATOM     23  C   UNL     1      50.670   8.746  14.148  0.00  0.00    +0.000 C 
ATOM     24  O   UNL     1      50.940   9.886  14.514  0.00  0.00    +0.000 OA
ATOM     25  H   UNL     1      52.456   7.977  14.719  0.00  0.00    +0.000 HD
ATOM     26  H   UNL     1      51.493   6.851  13.826  0.00  0.00    +0.000 HD
ENDBRANCH  16  23
ENDBRANCH  15  19
ENDBRANCH   1  15
TORSDOF 5
ENDMDL
MODEL 6
REMARK VINA RESULT:    -6.859      4.130      7.644
REMARK INTER + INTRA:          -9.766
REMARK INTER:                  -9.186
REMARK INTRA:                  -0.580
REMARK UNBOUND:                -0.902
REMARK  Name = 
REMARK  5 active torsions:
REMARK  status: ('A' for Active; 'I' for Inactive)
REMARK    1  A    between atoms: C_2  and  C_4
REMARK    2  A    between atoms: C_7  and  O_8
REMARK    3  A    between atoms: O_8  and  C_9
REMARK    4  A    between atoms: C_9  and  C_10
REMARK    5  A    between atoms: C_14  and  C_15
REMARK                            x       y       z     vdW  Elec       q    Type
REMARK                         _______ _______ _______ _____ _____    ______ ____
ROOT
ATOM      1  C   UNL     1      45.952   4.920  13.987  0.00  0.00    +0.000 C 
ENDROOT
BRANCH   1   2
ATOM      2  C   UNL     1      45.049   4.658  12.805  0.00  0.00    +0.000 A 
ATOM      3  C   UNL     1      43.704   5.044  12.831  0.00  0.00    +0.000 A 
ATOM      4  C   UNL     1      42.908   4.891  11.696  0.00  0.00    +0.000 A 
ATOM      5  C   UNL     1      43.451   4.360  10.523  0.00  0.00    +0.000 A 
ATOM      6  C   UNL     1      44.795   3.950  10.461  0.00  0.00    +0.000 A 
ATOM      7  C   UNL     1      45.569   4.084  11.631  0.00  0.00    +0.000 A 
BRANCH   6   8
ATOM      8  C   UNL     1      45.388   3.477   9.194  0.00  0.00    +0.000 A 
ATOM      9  C   UNL     1      45.592   2.124   8.911  0.00  0.00    +0.000 A 
ATOM     10  C   UNL     1      46.256   1.756   7.739  0.00  0.00    +0.000 A 
ATOM     11  C   UNL     1      46.696   2.746   6.872  0.00  0.00    +0.000 A 
ATOM     12 CL   UNL     1      47.541   2.340   5.437  0.00  0.00    +0.000 Cl
ATOM     13  C   UNL     1      46.439   4.065   7.203  0.00  0.00    +0.000 A 
ATOM     14  N   UNL     1      45.795   4.448   8.334  0.00  0.00    +0.000 NA
ENDBRANCH   6   8
ENDBRANCH   1   2
BRANCH   1  15
ATOM     15  O   UNL     1      47.286   5.173  13.556  0.00  0.00    +0.000 OA
BRANCH  15  19
ATOM     16  C   UNL     1      47.834   9.101  12.222  0.00  0.00    +0.000 A 
ATOM     17  C   UNL     1      48.847   8.167  11.982  0.00  0.00    +0.000 A 
ATOM     18  C   UNL     1      48.697   6.840  12.406  0.00  0.00    +0.000 A 
ATOM     19  C   UNL     1      47.538   6.434  13.074  0.00  0.00    +0.000 A 
ATOM     20  C   UNL     1      46.524   7.367  13.301  0.00  0.00    +0.000 A 
ATOM     21  C   UNL     1      46.670   8.695  12.884  0.00  0.00    +0.000 A 
BRANCH  16  23
ATOM     22  N   UNL     1      47.467  11.466  12.699  0.00  0.00    +0.000 N 
ATOM     23  C   UNL     1      47.977  10.530  11.843  0.00  0.00    +0.000 C 
ATOM     24  O   UNL     1      48.552  10.867  10.813  0.00  0.00    +0.000 OA
ATOM     25  H   UNL     1      47.653  12.433  12.464  0.00  0.00    +0.000 HD
ATOM     26  H   UNL     1      47.229  11.254  13.656  0.00  0.00    +0.000 HD
ENDBRANCH  16  23
ENDBRANCH  15  19
ENDBRANCH   1  15
TORSDOF 5
ENDMDL
MODEL 7
REMARK VINA RESULT:    -6.142      2.847      4.259
REMARK INTER + INTRA:          -8.839
REMARK INTER:                  -8.078
REMARK INTRA:                  -0.761
REMARK UNBOUND:                -0.902
REMARK  Name = 
REMARK  5 active torsions:
REMARK  status: ('A' for Active; 'I' for Inactive)
REMARK    1  A    between atoms: C_2  and  C_4
REMARK    2  A    between atoms: C_7  and  O_8
REMARK    3  A    between atoms: O_8  and  C_9
REMARK    4  A    between atoms: C_9  and  C_10
REMARK    5  A    between atoms: C_14  and  C_15
REMARK                            x       y       z     vdW  Elec       q    Type
REMARK                         _______ _______ _______ _____ _____    ______ ____
ROOT
ATOM      1  C   UNL     1      48.299   7.380  11.768  0.00  0.00    +0.000 C 
ENDROOT
BRANCH   1   2
ATOM      2  C   UNL     1      49.267   7.491  12.922  0.00  0.00    +0.000 A 
ATOM      3  C   UNL     1      50.399   8.309  12.833  0.00  0.00    +0.000 A 
ATOM      4  C   UNL     1      51.227   8.484  13.940  0.00  0.00    +0.000 A 
ATOM      5  C   UNL     1      50.927   7.851  15.149  0.00  0.00    +0.000 A 
ATOM      6  C   UNL     1      49.805   7.012  15.276  0.00  0.00    +0.000 A 
ATOM      7  C   UNL     1      49.003   6.825  14.132  0.00  0.00    +0.000 A 
BRANCH   6   8
ATOM      8  C   UNL     1      49.441   6.419  16.579  0.00  0.00    +0.000 A 
ATOM      9  C   UNL     1      48.777   7.135  17.579  0.00  0.00    +0.000 A 
ATOM     10  C   UNL     1      48.562   6.543  18.825  0.00  0.00    +0.000 A 
ATOM     11  C   UNL     1      49.006   5.247  19.043  0.00  0.00    +0.000 A 
ATOM     12 CL   UNL     1      48.788   4.492  20.567  0.00  0.00    +0.000 Cl
ATOM     13  C   UNL     1      49.634   4.588  18.001  0.00  0.00    +0.000 A 
ATOM     14  N   UNL     1      49.855   5.140  16.781  0.00  0.00    +0.000 NA
ENDBRANCH   6   8
ENDBRANCH   1   2
BRANCH   1  15
ATOM     15  O   UNL     1      46.953   7.429  12.231  0.00  0.00    +0.000 OA
BRANCH  15  19
ATOM     16  C   UNL     1      44.699   4.013  11.359  0.00  0.00    +0.000 A 
ATOM     17  C   UNL     1      45.056   4.256  12.690  0.00  0.00    +0.000 A 
ATOM     18  C   UNL     1      45.803   5.393  13.023  0.00  0.00    +0.000 A 
ATOM     19  C   UNL     1      46.203   6.296  12.033  0.00  0.00    +0.000 A 
ATOM     20  C   UNL     1      45.834   6.056  10.708  0.00  0.00    +0.000 A 
ATOM     21  C   UNL     1      45.092   4.919  10.368  0.00  0.00    +0.000 A 
BRANCH  16  23
ATOM     22  N   UNL     1      44.437   2.087   9.884  0.00  0.00    +0.000 N 
ATOM     23  C   UNL     1      43.960   2.789  10.955  0.00  0.00    +0.000 C 
ATOM     24  O   UNL     1      42.971   2.404  11.570  0.00  0.00    +0.000 OA
ATOM     25  H   UNL     1      43.970   1.212   9.682  0.00  0.00    +0.000 HD
ATOM     26  H   UNL     1      45.372   2.214   9.523  0.00  0.00    +0.000 HD
ENDBRANCH  16  23
ENDBRANCH  15  19
ENDBRANCH   1  15
TORSDOF 5
ENDMDL
MODEL 8
REMARK VINA RESULT:    -6.045      5.046      8.486
REMARK INTER + INTRA:          -8.714
REMARK INTER:                  -7.943
REMARK INTRA:                  -0.771
REMARK UNBOUND:                -0.902
REMARK  Name = 
REMARK  5 active torsions:
REMARK  status: ('A' for Active; 'I' for Inactive)
REMARK    1  A    between atoms: C_2  and  C_4
REMARK    2  A    between atoms: C_7  and  O_8
REMARK    3  A    between atoms: O_8  and  C_9
REMARK    4  A    between atoms: C_9  and  C_10
REMARK    5  A    between atoms: C_14  and  C_15
REMARK                            x       y       z     vdW  Elec       q    Type
REMARK                         _______ _______ _______ _____ _____    ______ ____
ROOT
ATOM      1  C   UNL     1      49.735   5.947  17.095  0.00  0.00    +0.000 C 
ENDROOT
BRANCH   1   2
ATOM      2  C   UNL     1      49.452   6.520  15.727  0.00  0.00    +0.000 A 
ATOM      3  C   UNL     1      50.340   7.423  15.131  0.00  0.00    +0.000 A 
ATOM      4  C   UNL     1      50.121   7.865  13.826  0.00  0.00    +0.000 A 
ATOM      5  C   UNL     1      49.019   7.400  13.103  0.00  0.00    +0.000 A 
ATOM      6  C   UNL     1      48.099   6.501  13.671  0.00  0.00    +0.000 A 
ATOM      7  C   UNL     1      48.324   6.097  15.002  0.00  0.00    +0.000 A 
BRANCH   6   8
ATOM      8  C   UNL     1      46.989   5.942  12.872  0.00  0.00    +0.000 A 
ATOM      9  C   UNL     1      46.260   4.819  13.269  0.00  0.00    +0.000 A 
ATOM     10  C   UNL     1      45.296   4.283  12.411  0.00  0.00    +0.000 A 
ATOM     11  C   UNL     1      45.076   4.884  11.181  0.00  0.00    +0.000 A 
ATOM     12 CL   UNL     1      43.924   4.242  10.086  0.00  0.00    +0.000 Cl
ATOM     13  C   UNL     1      45.817   6.009  10.863  0.00  0.00    +0.000 A 
ATOM     14  N   UNL     1      46.758   6.550  11.678  0.00  0.00    +0.000 NA
ENDBRANCH   6   8
ENDBRANCH   1   2
BRANCH   1  15
ATOM     15  O   UNL     1      49.384   4.567  17.147  0.00  0.00    +0.000 OA
BRANCH  15  19
ATOM     16  C   UNL     1      52.361   1.693  17.768  0.00  0.00    +0.000 A 
ATOM     17  C   UNL     1      52.675   3.038  17.989  0.00  0.00    +0.000 A 
ATOM     18  C   UNL     1      51.703   4.030  17.799  0.00  0.00    +0.000 A 
ATOM     19  C   UNL     1      50.411   3.689  17.387  0.00  0.00    +0.000 A 
ATOM     20  C   UNL     1      50.099   2.343  17.179  0.00  0.00    +0.000 A 
ATOM     21  C   UNL     1      51.067   1.349  17.362  0.00  0.00    +0.000 A 
BRANCH  16  23
ATOM     22  N   UNL     1      53.693  -0.094  16.775  0.00  0.00    +0.000 N 
ATOM     23  C   UNL     1      53.377   0.618  17.899  0.00  0.00    +0.000 C 
ATOM     24  O   UNL     1      53.934   0.387  18.967  0.00  0.00    +0.000 OA
ATOM     25  H   UNL     1      54.449  -0.760  16.868  0.00  0.00    +0.000 HD
ATOM     26  H   UNL     1      53.463   0.227  15.846  0.00  0.00    +0.000 HD
ENDBRANCH  16  23
ENDBRANCH  15  19
ENDBRANCH   1  15
TORSDOF 5
ENDMDL
