MODEL 1
REMARK VINA RESULT:    -8.710      0.000      0.000
REMARK INTER + INTRA:         -12.847
REMARK INTER:                 -11.765
REMARK INTRA:                  -1.082
REMARK UNBOUND:                -1.082
REMARK  Name = 
REMARK  6 active torsions:
REMARK  status: ('A' for Active; 'I' for Inactive)
REMARK    1  A    between atoms: C_2  and  C_3
REMARK    2  A    between atoms: N_7  and  C_8
REMARK    3  A    between atoms: C_8  and  C_9
REMARK    4  A    between atoms: C_9  and  C_12
REMARK    5  A    between atoms: C_16  and  O_17
REMARK    6  A    between atoms: O_17  and  C_18
REMARK                            x       y       z     vdW  Elec       q    Type
REMARK                         _______ _______ _______ _____ _____    ______ ____
ROOT
ATOM      1  C   UNL     1      43.707   4.678  12.401  0.00  0.00    +0.000 C 
ATOM      2  F   UNL     1      42.763   5.532  12.895  0.00  0.00    +0.000 F 
ATOM      3  F   UNL     1      43.531   3.510  13.089  0.00  0.00    +0.000 F 
ENDROOT
BRANCH   1   4
ATOM      4  C   UNL     1      45.115   5.224  12.551  0.00  0.00    +0.000 A 
ATOM      5  C   UNL     1      45.607   6.183  11.654  0.00  0.00    +0.000 A 
ATOM      6  C   UNL     1      46.874   6.739  11.841  0.00  0.00    +0.000 A 
ATOM      7  C   UNL     1      47.668   6.346  12.922  0.00  0.00    +0.000 A 
ATOM      8  C   UNL     1      47.195   5.387  13.813  0.00  0.00    +0.000 A 
ATOM      9  C   UNL     1      45.924   4.833  13.629  0.00  0.00    +0.000 A 
BRANCH   8  10
ATOM     10  O   UNL     1      47.859   4.950  14.931  0.00  0.00    +0.000 OA
BRANCH  10  11
ATOM     11  C   UNL     1      47.208   4.034  15.836  0.00  0.00    +0.000 C 
ATOM     12  C   UNL     1      47.179   4.420  17.337  0.00  0.00    +0.000 C 
ATOM     13  C   UNL     1      47.554   2.968  17.677  0.00  0.00    +0.000 C 
ATOM     14  C   UNL     1      48.094   2.827  16.246  0.00  0.00    +0.000 C 
ENDBRANCH  10  11
ENDBRANCH   8  10
ENDBRANCH   1   4
BRANCH   1  15
ATOM     15  C   UNL     1      43.413   4.421  10.902  0.00  0.00    +0.000 C 
BRANCH  15  20
ATOM     16  C   UNL     1      46.642   2.471   7.412  0.00  0.00    +0.000 A 
ATOM     17  C   UNL     1      46.285   3.781   7.700  0.00  0.00    +0.000 A 
ATOM     18  C   UNL     1      45.357   4.027   8.713  0.00  0.00    +0.000 A 
ATOM     19  C   UNL     1      44.799   2.964   9.419  0.00  0.00    +0.000 A 
ATOM     20  N   UNL     1      43.869   3.125  10.408  0.00  0.00    +0.000 N 
ATOM     21  N   UNL     1      45.146   1.690   9.148  0.00  0.00    +0.000 NA
ATOM     22  C   UNL     1      46.053   1.468   8.162  0.00  0.00    +0.000 A 
ATOM     23  H   UNL     1      43.559   2.270  10.858  0.00  0.00    +0.000 HD
BRANCH  16  25
ATOM     24  N   UNL     1      48.339   1.910   5.541  0.00  0.00    +0.000 NA
ATOM     25  C   UNL     1      47.580   2.167   6.381  0.00  0.00    +0.000 C 
ENDBRANCH  16  25
ENDBRANCH  15  20
ENDBRANCH   1  15
TORSDOF 6
ENDMDL
MODEL 2
REMARK VINA RESULT:    -7.830      2.293      4.208
REMARK INTER + INTRA:         -11.659
REMARK INTER:                 -10.922
REMARK INTRA:                  -0.737
REMARK UNBOUND:                -1.082
REMARK  Name = 
REMARK  6 active torsions:
REMARK  status: ('A' for Active; 'I' for Inactive)
REMARK    1  A    between atoms: C_2  and  C_3
REMARK    2  A    between atoms: N_7  and  C_8
REMARK    3  A    between atoms: C_8  and  C_9
REMARK    4  A    between atoms: C_9  and  C_12
REMARK    5  A    between atoms: C_16  and  O_17
REMARK    6  A    between atoms: O_17  and  C_18
REMARK                            x       y       z     vdW  Elec       q    Type
REMARK                         _______ _______ _______ _____ _____    ______ ____
ROOT
ATOM      1  C   UNL     1      43.912   4.182  12.503  0.00  0.00    +0.000 C 
ATOM      2  F   UNL     1      42.922   4.245  13.441  0.00  0.00    +0.000 F 
ATOM      3  F   UNL     1      44.370   2.895  12.549  0.00  0.00    +0.000 F 
ENDROOT
BRANCH   1   4
ATOM      4  C   UNL     1      45.016   5.191  12.761  0.00  0.00    +0.000 A 
ATOM      5  C   UNL     1      46.347   4.773  12.904  0.00  0.00    +0.000 A 
ATOM      6  C   UNL     1      47.369   5.710  13.063  0.00  0.00    +0.000 A 
ATOM      7  C   UNL     1      47.078   7.078  13.085  0.00  0.00    +0.000 A 
ATOM      8  C   UNL     1      45.760   7.506  12.956  0.00  0.00    +0.000 A 
ATOM      9  C   UNL     1      44.737   6.567  12.791  0.00  0.00    +0.000 A 
BRANCH   8  10
ATOM     10  O   UNL     1      45.354   8.815  12.921  0.00  0.00    +0.000 OA
BRANCH  10  11
ATOM     11  C   UNL     1      45.386   9.540  11.673  0.00  0.00    +0.000 C 
ATOM     12  C   UNL     1      45.163  11.073  11.737  0.00  0.00    +0.000 C 
ATOM     13  C   UNL     1      44.228  10.948  10.522  0.00  0.00    +0.000 C 
ATOM     14  C   UNL     1      44.059   9.461  10.871  0.00  0.00    +0.000 C 
ENDBRANCH  10  11
ENDBRANCH   8  10
ENDBRANCH   1   4
BRANCH   1  15
ATOM     15  C   UNL     1      43.295   4.442  11.107  0.00  0.00    +0.000 C 
BRANCH  15  20
ATOM     16  C   UNL     1      46.607   2.729   7.569  0.00  0.00    +0.000 A 
ATOM     17  C   UNL     1      45.822   2.054   8.494  0.00  0.00    +0.000 A 
ATOM     18  C   UNL     1      45.006   2.787   9.358  0.00  0.00    +0.000 A 
ATOM     19  C   UNL     1      44.989   4.177   9.288  0.00  0.00    +0.000 A 
ATOM     20  N   UNL     1      44.234   4.961  10.116  0.00  0.00    +0.000 N 
ATOM     21  N   UNL     1      45.745   4.838   8.389  0.00  0.00    +0.000 NA
ATOM     22  C   UNL     1      46.530   4.112   7.553  0.00  0.00    +0.000 A 
ATOM     23  H   UNL     1      44.296   5.959   9.945  0.00  0.00    +0.000 HD
BRANCH  16  25
ATOM     24  N   UNL     1      48.156   1.462   5.929  0.00  0.00    +0.000 NA
ATOM     25  C   UNL     1      47.463   2.027   6.670  0.00  0.00    +0.000 C 
ENDBRANCH  16  25
ENDBRANCH  15  20
ENDBRANCH   1  15
TORSDOF 6
ENDMDL
MODEL 3
REMARK VINA RESULT:    -7.817      1.687      3.437
REMARK INTER + INTRA:         -11.640
REMARK INTER:                 -10.689
REMARK INTRA:                  -0.951
REMARK UNBOUND:                -1.082
REMARK  Name = 
REMARK  6 active torsions:
REMARK  status: ('A' for Active; 'I' for Inactive)
REMARK    1  A    between atoms: C_2  and  C_3
REMARK    2  A    between atoms: N_7  and  C_8
REMARK    3  A    between atoms: C_8  and  C_9
REMARK    4  A    between atoms: C_9  and  C_12
REMARK    5  A    between atoms: C_16  and  O_17
REMARK    6  A    between atoms: O_17  and  C_18
REMARK                            x       y       z     vdW  Elec       q    Type
REMARK                         _______ _______ _______ _____ _____    ______ ____
ROOT
ATOM      1  C   UNL     1      43.504   4.824  12.444  0.00  0.00    +0.000 C 
ATOM      2  F   UNL     1      42.581   5.759  12.821  0.00  0.00    +0.000 F 
ATOM      3  F   UNL     1      43.129   3.673  13.078  0.00  0.00    +0.000 F 
ENDROOT
BRANCH   1   4
ATOM      4  C   UNL     1      44.921   5.237  12.797  0.00  0.00    +0.000 A 
ATOM      5  C   UNL     1      45.685   4.473  13.689  0.00  0.00    +0.000 A 
ATOM      6  C   UNL     1      47.014   4.812  13.951  0.00  0.00    +0.000 A 
ATOM      7  C   UNL     1      47.597   5.920  13.329  0.00  0.00    +0.000 A 
ATOM      8  C   UNL     1      46.846   6.694  12.449  0.00  0.00    +0.000 A 
ATOM      9  C   UNL     1      45.516   6.351  12.184  0.00  0.00    +0.000 A 
BRANCH   8  10
ATOM     10  O   UNL     1      47.314   7.775  11.748  0.00  0.00    +0.000 OA
BRANCH  10  11
ATOM     11  C   UNL     1      48.448   8.515  12.250  0.00  0.00    +0.000 C 
ATOM     12  C   UNL     1      48.658   9.949  11.701  0.00  0.00    +0.000 C 
ATOM     13  C   UNL     1      50.157   9.633  11.561  0.00  0.00    +0.000 C 
ATOM     14  C   UNL     1      49.789   8.141  11.563  0.00  0.00    +0.000 C 
ENDBRANCH  10  11
ENDBRANCH   8  10
ENDBRANCH   1   4
BRANCH   1  15
ATOM     15  C   UNL     1      43.398   4.607  10.914  0.00  0.00    +0.000 C 
BRANCH  15  20
ATOM     16  C   UNL     1      46.597   2.505   7.484  0.00  0.00    +0.000 A 
ATOM     17  C   UNL     1      46.261   3.828   7.735  0.00  0.00    +0.000 A 
ATOM     18  C   UNL     1      45.337   4.118   8.740  0.00  0.00    +0.000 A 
ATOM     19  C   UNL     1      44.761   3.085   9.475  0.00  0.00    +0.000 A 
ATOM     20  N   UNL     1      43.833   3.290  10.457  0.00  0.00    +0.000 N 
ATOM     21  N   UNL     1      45.087   1.798   9.240  0.00  0.00    +0.000 NA
ATOM     22  C   UNL     1      45.991   1.533   8.262  0.00  0.00    +0.000 A 
ATOM     23  H   UNL     1      43.509   2.453  10.931  0.00  0.00    +0.000 HD
BRANCH  16  25
ATOM     24  N   UNL     1      48.282   1.876   5.624  0.00  0.00    +0.000 NA
ATOM     25  C   UNL     1      47.530   2.156   6.463  0.00  0.00    +0.000 C 
ENDBRANCH  16  25
ENDBRANCH  15  20
ENDBRANCH   1  15
TORSDOF 6
ENDMDL
MODEL 4
REMARK VINA RESULT:    -7.392      1.896      2.313
REMARK INTER + INTRA:         -11.067
REMARK INTER:                 -10.225
REMARK INTRA:                  -0.842
REMARK UNBOUND:                -1.082
REMARK  Name = 
REMARK  6 active torsions:
REMARK  status: ('A' for Active; 'I' for Inactive)
REMARK    1  A    between atoms: C_2  and  C_3
REMARK    2  A    between atoms: N_7  and  C_8
REMARK    3  A    between atoms: C_8  and  C_9
REMARK    4  A    between atoms: C_9  and  C_12
REMARK    5  A    between atoms: C_16  and  O_17
REMARK    6  A    between atoms: O_17  and  C_18
REMARK                            x       y       z     vdW  Elec       q    Type
REMARK                         _______ _______ _______ _____ _____    ______ ____
ROOT
ATOM      1  C   UNL     1      43.736   4.903  12.303  0.00  0.00    +0.000 C 
ATOM      2  F   UNL     1      42.573   5.307  12.895  0.00  0.00    +0.000 F 
ATOM      3  F   UNL     1      44.090   3.754  12.954  0.00  0.00    +0.000 F 
ENDROOT
BRANCH   1   4
ATOM      4  C   UNL     1      44.820   5.962  12.380  0.00  0.00    +0.000 A 
ATOM      5  C   UNL     1      44.665   7.190  11.721  0.00  0.00    +0.000 A 
ATOM      6  C   UNL     1      45.630   8.190  11.857  0.00  0.00    +0.000 A 
ATOM      7  C   UNL     1      46.762   7.979  12.649  0.00  0.00    +0.000 A 
ATOM      8  C   UNL     1      46.933   6.761  13.300  0.00  0.00    +0.000 A 
ATOM      9  C   UNL     1      45.965   5.760  13.167  0.00  0.00    +0.000 A 
BRANCH   8  10
ATOM     10  O   UNL     1      47.975   6.448  14.134  0.00  0.00    +0.000 OA
BRANCH  10  11
ATOM     11  C   UNL     1      48.885   7.485  14.559  0.00  0.00    +0.000 C 
ATOM     12  C   UNL     1      50.184   7.670  13.735  0.00  0.00    +0.000 C 
ATOM     13  C   UNL     1      50.959   7.793  15.058  0.00  0.00    +0.000 C 
ATOM     14  C   UNL     1      49.794   7.068  15.747  0.00  0.00    +0.000 C 
ENDBRANCH  10  11
ENDBRANCH   8  10
ENDBRANCH   1   4
BRANCH   1  15
ATOM     15  C   UNL     1      43.451   4.566  10.819  0.00  0.00    +0.000 C 
BRANCH  15  20
ATOM     16  C   UNL     1      46.639   2.451   7.387  0.00  0.00    +0.000 A 
ATOM     17  C   UNL     1      46.267   3.771   7.601  0.00  0.00    +0.000 A 
ATOM     18  C   UNL     1      45.356   4.065   8.617  0.00  0.00    +0.000 A 
ATOM     19  C   UNL     1      44.830   3.040   9.399  0.00  0.00    +0.000 A 
ATOM     20  N   UNL     1      43.917   3.249  10.396  0.00  0.00    +0.000 N 
ATOM     21  N   UNL     1      45.192   1.757   9.199  0.00  0.00    +0.000 NA
ATOM     22  C   UNL     1      46.081   1.488   8.210  0.00  0.00    +0.000 A 
ATOM     23  H   UNL     1      43.631   2.419  10.904  0.00  0.00    +0.000 HD
BRANCH  16  25
ATOM     24  N   UNL     1      48.306   1.819   5.512  0.00  0.00    +0.000 NA
ATOM     25  C   UNL     1      47.560   2.098   6.356  0.00  0.00    +0.000 C 
ENDBRANCH  16  25
ENDBRANCH  15  20
ENDBRANCH   1  15
TORSDOF 6
ENDMDL
MODEL 5
REMARK VINA RESULT:    -7.153      3.519      7.915
REMARK INTER + INTRA:         -10.743
REMARK INTER:                  -9.945
REMARK INTRA:                  -0.798
REMARK UNBOUND:                -1.082
REMARK  Name = 
REMARK  6 active torsions:
REMARK  status: ('A' for Active; 'I' for Inactive)
REMARK    1  A    between atoms: C_2  and  C_3
REMARK    2  A    between atoms: N_7  and  C_8
REMARK    3  A    between atoms: C_8  and  C_9
REMARK    4  A    between atoms: C_9  and  C_12
REMARK    5  A    between atoms: C_16  and  O_17
REMARK    6  A    between atoms: O_17  and  C_18
REMARK                            x       y       z     vdW  Elec       q    Type
REMARK                         _______ _______ _______ _____ _____    ______ ____
ROOT
ATOM      1  C   UNL     1      46.100   6.712  12.256  0.00  0.00    +0.000 C 
ATOM      2  F   UNL     1      45.257   7.116  13.250  0.00  0.00    +0.000 F 
ATOM      3  F   UNL     1      46.531   7.864  11.659  0.00  0.00    +0.000 F 
ENDROOT
BRANCH   1   4
ATOM      4  C   UNL     1      45.425   5.775  11.271  0.00  0.00    +0.000 A 
ATOM      5  C   UNL     1      44.175   5.212  11.564  0.00  0.00    +0.000 A 
ATOM      6  C   UNL     1      43.522   4.413  10.623  0.00  0.00    +0.000 A 
ATOM      7  C   UNL     1      44.108   4.163   9.378  0.00  0.00    +0.000 A 
ATOM      8  C   UNL     1      45.354   4.708   9.079  0.00  0.00    +0.000 A 
ATOM      9  C   UNL     1      46.005   5.511  10.020  0.00  0.00    +0.000 A 
BRANCH   8  10
ATOM     10  O   UNL     1      46.011   4.570   7.883  0.00  0.00    +0.000 OA
BRANCH  10  11
ATOM     11  C   UNL     1      45.916   3.327   7.155  0.00  0.00    +0.000 C 
ATOM     12  C   UNL     1      46.722   2.121   7.702  0.00  0.00    +0.000 C 
ATOM     13  C   UNL     1      47.160   1.810   6.261  0.00  0.00    +0.000 C 
ATOM     14  C   UNL     1      46.831   3.268   5.902  0.00  0.00    +0.000 C 
ENDBRANCH  10  11
ENDBRANCH   8  10
ENDBRANCH   1   4
BRANCH   1  15
ATOM     15  C   UNL     1      47.317   5.996  12.892  0.00  0.00    +0.000 C 
BRANCH  15  20
ATOM     16  C   UNL     1      48.113   4.639  17.785  0.00  0.00    +0.000 A 
ATOM     17  C   UNL     1      48.597   5.705  17.038  0.00  0.00    +0.000 A 
ATOM     18  C   UNL     1      48.218   5.826  15.700  0.00  0.00    +0.000 A 
ATOM     19  C   UNL     1      47.368   4.883  15.129  0.00  0.00    +0.000 A 
ATOM     20  N   UNL     1      46.972   4.923  13.821  0.00  0.00    +0.000 N 
ATOM     21  N   UNL     1      46.891   3.849  15.851  0.00  0.00    +0.000 NA
ATOM     22  C   UNL     1      47.265   3.747  17.152  0.00  0.00    +0.000 A 
ATOM     23  H   UNL     1      46.334   4.188  13.537  0.00  0.00    +0.000 HD
BRANCH  16  25
ATOM     24  N   UNL     1      48.777   4.316  20.265  0.00  0.00    +0.000 NA
ATOM     25  C   UNL     1      48.477   4.467  19.154  0.00  0.00    +0.000 C 
ENDBRANCH  16  25
ENDBRANCH  15  20
ENDBRANCH   1  15
TORSDOF 6
ENDMDL
MODEL 6
REMARK VINA RESULT:    -6.603      3.805      7.541
REMARK INTER + INTRA:         -10.001
REMARK INTER:                  -9.136
REMARK INTRA:                  -0.865
REMARK UNBOUND:                -1.082
REMARK  Name = 
REMARK  6 active torsions:
REMARK  status: ('A' for Active; 'I' for Inactive)
REMARK    1  A    between atoms: C_2  and  C_3
REMARK    2  A    between atoms: N_7  and  C_8
REMARK    3  A    between atoms: C_8  and  C_9
REMARK    4  A    between atoms: C_9  and  C_12
REMARK    5  A    between atoms: C_16  and  O_17
REMARK    6  A    between atoms: O_17  and  C_18
REMARK                            x       y       z     vdW  Elec       q    Type
REMARK                         _______ _______ _______ _____ _____    ______ ____
ROOT
ATOM      1  C   UNL     1      44.750   6.284  11.432  0.00  0.00    +0.000 C 
ATOM      2  F   UNL     1      43.586   6.995  11.355  0.00  0.00    +0.000 F 
ATOM      3  F   UNL     1      45.673   7.031  10.754  0.00  0.00    +0.000 F 
ENDROOT
BRANCH   1   4
ATOM      4  C   UNL     1      44.611   4.886  10.857  0.00  0.00    +0.000 A 
ATOM      5  C   UNL     1      44.063   3.850  11.626  0.00  0.00    +0.000 A 
ATOM      6  C   UNL     1      43.866   2.585  11.069  0.00  0.00    +0.000 A 
ATOM      7  C   UNL     1      44.215   2.336   9.738  0.00  0.00    +0.000 A 
ATOM      8  C   UNL     1      44.770   3.353   8.967  0.00  0.00    +0.000 A 
ATOM      9  C   UNL     1      44.963   4.621   9.524  0.00  0.00    +0.000 A 
BRANCH   8  10
ATOM     10  O   UNL     1      45.114   3.245   7.644  0.00  0.00    +0.000 OA
BRANCH  10  11
ATOM     11  C   UNL     1      46.507   3.204   7.269  0.00  0.00    +0.000 C 
ATOM     12  C   UNL     1      46.833   3.179   5.753  0.00  0.00    +0.000 C 
ATOM     13  C   UNL     1      47.878   2.086   6.036  0.00  0.00    +0.000 C 
ATOM     14  C   UNL     1      47.131   1.784   7.344  0.00  0.00    +0.000 C 
ENDBRANCH  10  11
ENDBRANCH   8  10
ENDBRANCH   1   4
BRANCH   1  15
ATOM     15  C   UNL     1      45.180   6.188  12.916  0.00  0.00    +0.000 C 
BRANCH  15  20
ATOM     16  C   UNL     1      49.464   8.785  14.066  0.00  0.00    +0.000 A 
ATOM     17  C   UNL     1      48.162   9.214  13.845  0.00  0.00    +0.000 A 
ATOM     18  C   UNL     1      47.179   8.274  13.533  0.00  0.00    +0.000 A 
ATOM     19  C   UNL     1      47.509   6.924  13.443  0.00  0.00    +0.000 A 
ATOM     20  N   UNL     1      46.606   5.950  13.120  0.00  0.00    +0.000 N 
ATOM     21  N   UNL     1      48.770   6.501  13.662  0.00  0.00    +0.000 NA
ATOM     22  C   UNL     1      49.715   7.427  13.969  0.00  0.00    +0.000 A 
ATOM     23  H   UNL     1      46.972   5.004  13.110  0.00  0.00    +0.000 HD
BRANCH  16  25
ATOM     24  N   UNL     1      51.349  10.465  14.630  0.00  0.00    +0.000 NA
ATOM     25  C   UNL     1      50.506   9.707  14.381  0.00  0.00    +0.000 C 
ENDBRANCH  16  25
ENDBRANCH  15  20
ENDBRANCH   1  15
TORSDOF 6
ENDMDL
MODEL 7
REMARK VINA RESULT:    -6.466      4.209      7.448
REMARK INTER + INTRA:          -9.816
REMARK INTER:                  -9.058
REMARK INTRA:                  -0.758
REMARK UNBOUND:                -1.082
REMARK  Name = 
REMARK  6 active torsions:
REMARK  status: ('A' for Active; 'I' for Inactive)
REMARK    1  A    between atoms: C_2  and  C_3
REMARK    2  A    between atoms: N_7  and  C_8
REMARK    3  A    between atoms: C_8  and  C_9
REMARK    4  A    between atoms: C_9  and  C_12
REMARK    5  A    between atoms: C_16  and  O_17
REMARK    6  A    between atoms: O_17  and  C_18
REMARK                            x       y       z     vdW  Elec       q    Type
REMARK                         _______ _______ _______ _____ _____    ______ ____
ROOT
ATOM      1  C   UNL     1      45.340   6.393  11.920  0.00  0.00    +0.000 C 
ATOM      2  F   UNL     1      44.717   6.265  13.128  0.00  0.00    +0.000 F 
ATOM      3  F   UNL     1      44.851   7.552  11.384  0.00  0.00    +0.000 F 
ENDROOT
BRANCH   1   4
ATOM      4  C   UNL     1      45.099   5.198  11.016  0.00  0.00    +0.000 A 
ATOM      5  C   UNL     1      44.316   4.120  11.453  0.00  0.00    +0.000 A 
ATOM      6  C   UNL     1      44.033   3.058  10.591  0.00  0.00    +0.000 A 
ATOM      7  C   UNL     1      44.529   3.056   9.284  0.00  0.00    +0.000 A 
ATOM      8  C   UNL     1      45.316   4.115   8.842  0.00  0.00    +0.000 A 
ATOM      9  C   UNL     1      45.596   5.180   9.703  0.00  0.00    +0.000 A 
BRANCH   8  10
ATOM     10  O   UNL     1      45.825   4.248   7.575  0.00  0.00    +0.000 OA
BRANCH  10  11
ATOM     11  C   UNL     1      46.168   3.069   6.816  0.00  0.00    +0.000 C 
ATOM     12  C   UNL     1      47.501   2.361   7.170  0.00  0.00    +0.000 C 
ATOM     13  C   UNL     1      47.786   2.230   5.664  0.00  0.00    +0.000 C 
ATOM     14  C   UNL     1      46.795   3.381   5.430  0.00  0.00    +0.000 C 
ENDBRANCH  10  11
ENDBRANCH   8  10
ENDBRANCH   1   4
BRANCH   1  15
ATOM     15  C   UNL     1      46.861   6.558  12.157  0.00  0.00    +0.000 C 
BRANCH  15  20
ATOM     16  C   UNL     1      51.120   9.239  11.115  0.00  0.00    +0.000 A 
ATOM     17  C   UNL     1      50.879   7.873  11.134  0.00  0.00    +0.000 A 
ATOM     18  C   UNL     1      49.605   7.411  11.469  0.00  0.00    +0.000 A 
ATOM     19  C   UNL     1      48.595   8.318  11.783  0.00  0.00    +0.000 A 
ATOM     20  N   UNL     1      47.332   7.940  12.142  0.00  0.00    +0.000 N 
ATOM     21  N   UNL     1      48.823   9.646  11.760  0.00  0.00    +0.000 NA
ATOM     22  C   UNL     1      50.066  10.080  11.429  0.00  0.00    +0.000 A 
ATOM     23  H   UNL     1      46.685   8.701  12.323  0.00  0.00    +0.000 HD
BRANCH  16  25
ATOM     24  N   UNL     1      53.459  10.178  10.526  0.00  0.00    +0.000 NA
ATOM     25  C   UNL     1      52.407   9.761  10.787  0.00  0.00    +0.000 C 
ENDBRANCH  16  25
ENDBRANCH  15  20
ENDBRANCH   1  15
TORSDOF 6
ENDMDL
MODEL 8
REMARK VINA RESULT:    -6.332      4.042      8.054
REMARK INTER + INTRA:          -9.635
REMARK INTER:                  -8.885
REMARK INTRA:                  -0.751
REMARK UNBOUND:                -1.082
REMARK  Name = 
REMARK  6 active torsions:
REMARK  status: ('A' for Active; 'I' for Inactive)
REMARK    1  A    between atoms: C_2  and  C_3
REMARK    2  A    between atoms: N_7  and  C_8
REMARK    3  A    between atoms: C_8  and  C_9
REMARK    4  A    between atoms: C_9  and  C_12
REMARK    5  A    between atoms: C_16  and  O_17
REMARK    6  A    between atoms: O_17  and  C_18
REMARK                            x       y       z     vdW  Elec       q    Type
REMARK                         _______ _______ _______ _____ _____    ______ ____
ROOT
ATOM      1  C   UNL     1      45.312   6.427  11.721  0.00  0.00    +0.000 C 
ATOM      2  F   UNL     1      44.659   6.593  12.909  0.00  0.00    +0.000 F 
ATOM      3  F   UNL     1      44.935   7.492  10.951  0.00  0.00    +0.000 F 
ENDROOT
BRANCH   1   4
ATOM      4  C   UNL     1      44.982   5.100  11.062  0.00  0.00    +0.000 A 
ATOM      5  C   UNL     1      44.324   4.091  11.780  0.00  0.00    +0.000 A 
ATOM      6  C   UNL     1      43.954   2.902  11.149  0.00  0.00    +0.000 A 
ATOM      7  C   UNL     1      44.237   2.702   9.794  0.00  0.00    +0.000 A 
ATOM      8  C   UNL     1      44.900   3.691   9.073  0.00  0.00    +0.000 A 
ATOM      9  C   UNL     1      45.266   4.884   9.705  0.00  0.00    +0.000 A 
BRANCH   8  10
ATOM     10  O   UNL     1      45.196   3.631   7.736  0.00  0.00    +0.000 OA
BRANCH  10  11
ATOM     11  C   UNL     1      46.551   3.362   7.316  0.00  0.00    +0.000 C 
ATOM     12  C   UNL     1      46.797   3.164   5.798  0.00  0.00    +0.000 C 
ATOM     13  C   UNL     1      47.694   1.962   6.140  0.00  0.00    +0.000 C 
ATOM     14  C   UNL     1      46.977   1.880   7.496  0.00  0.00    +0.000 C 
ENDBRANCH  10  11
ENDBRANCH   8  10
ENDBRANCH   1   4
BRANCH   1  15
ATOM     15  C   UNL     1      46.837   6.510  11.973  0.00  0.00    +0.000 C 
BRANCH  15  20
ATOM     16  C   UNL     1      49.273   7.679  16.345  0.00  0.00    +0.000 A 
ATOM     17  C   UNL     1      48.890   6.458  15.806  0.00  0.00    +0.000 A 
ATOM     18  C   UNL     1      48.219   6.434  14.583  0.00  0.00    +0.000 A 
ATOM     19  C   UNL     1      47.938   7.626  13.919  0.00  0.00    +0.000 A 
ATOM     20  N   UNL     1      47.264   7.683  12.731  0.00  0.00    +0.000 N 
ATOM     21  N   UNL     1      48.312   8.814  14.435  0.00  0.00    +0.000 NA
ATOM     22  C   UNL     1      48.967   8.821  15.623  0.00  0.00    +0.000 A 
ATOM     23  H   UNL     1      47.144   8.612  12.343  0.00  0.00    +0.000 HD
BRANCH  16  25
ATOM     24  N   UNL     1      50.515   7.812  18.611  0.00  0.00    +0.000 NA
ATOM     25  C   UNL     1      49.955   7.758  17.595  0.00  0.00    +0.000 C 
ENDBRANCH  16  25
ENDBRANCH  15  20
ENDBRANCH   1  15
TORSDOF 6
ENDMDL
MODEL 9
REMARK VINA RESULT:    -6.104      2.862      4.204
REMARK INTER + INTRA:          -9.326
REMARK INTER:                  -8.394
REMARK INTRA:                  -0.932
REMARK UNBOUND:                -1.082
REMARK  Name = 
REMARK  6 active torsions:
REMARK  status: ('A' for Active; 'I' for Inactive)
REMARK    1  A    between atoms: C_2  and  C_3
REMARK    2  A    between atoms: N_7  and  C_8
REMARK    3  A    between atoms: C_8  and  C_9
REMARK    4  A    between atoms: C_9  and  C_12
REMARK    5  A    between atoms: C_16  and  O_17
REMARK    6  A    between atoms: O_17  and  C_18
REMARK                            x       y       z     vdW  Elec       q    Type
REMARK                         _______ _______ _______ _____ _____    ______ ____
ROOT
ATOM      1  C   UNL     1      47.584   8.222  12.816  0.00  0.00    +0.000 C 
ATOM      2  F   UNL     1      48.164   7.343  11.947  0.00  0.00    +0.000 F 
ATOM      3  F   UNL     1      47.856   9.462  12.311  0.00  0.00    +0.000 F 
ENDROOT
BRANCH   1   4
ATOM      4  C   UNL     1      48.098   8.056  14.234  0.00  0.00    +0.000 A 
ATOM      5  C   UNL     1      48.020   9.115  15.150  0.00  0.00    +0.000 A 
ATOM      6  C   UNL     1      48.424   8.934  16.474  0.00  0.00    +0.000 A 
ATOM      7  C   UNL     1      48.913   7.696  16.903  0.00  0.00    +0.000 A 
ATOM      8  C   UNL     1      49.005   6.640  16.001  0.00  0.00    +0.000 A 
ATOM      9  C   UNL     1      48.597   6.820  14.676  0.00  0.00    +0.000 A 
BRANCH   8  10
ATOM     10  O   UNL     1      49.428   5.372  16.308  0.00  0.00    +0.000 OA
BRANCH  10  11
ATOM     11  C   UNL     1      48.723   4.607  17.309  0.00  0.00    +0.000 C 
ATOM     12  C   UNL     1      48.974   3.078  17.340  0.00  0.00    +0.000 C 
ATOM     13  C   UNL     1      47.459   2.872  17.510  0.00  0.00    +0.000 C 
ATOM     14  C   UNL     1      47.256   4.277  16.923  0.00  0.00    +0.000 C 
ENDBRANCH  10  11
ENDBRANCH   8  10
ENDBRANCH   1   4
BRANCH   1  15
ATOM     15  C   UNL     1      46.050   8.003  12.798  0.00  0.00    +0.000 C 
BRANCH  15  20
ATOM     16  C   UNL     1      44.943   3.562  10.460  0.00  0.00    +0.000 A 
ATOM     17  C   UNL     1      45.277   4.809   9.950  0.00  0.00    +0.000 A 
ATOM     18  C   UNL     1      45.521   5.863  10.832  0.00  0.00    +0.000 A 
ATOM     19  C   UNL     1      45.425   5.657  12.206  0.00  0.00    +0.000 A 
ATOM     20  N   UNL     1      45.627   6.645  13.129  0.00  0.00    +0.000 N 
ATOM     21  N   UNL     1      45.106   4.447  12.707  0.00  0.00    +0.000 NA
ATOM     22  C   UNL     1      44.876   3.431  11.836  0.00  0.00    +0.000 A 
ATOM     23  H   UNL     1      45.549   6.357  14.098  0.00  0.00    +0.000 HD
BRANCH  16  25
ATOM     24  N   UNL     1      44.452   1.561   8.894  0.00  0.00    +0.000 NA
ATOM     25  C   UNL     1      44.676   2.456   9.600  0.00  0.00    +0.000 C 
ENDBRANCH  16  25
ENDBRANCH  15  20
ENDBRANCH   1  15
TORSDOF 6
ENDMDL
