MODEL 1
REMARK VINA RESULT:    -8.580      0.000      0.000
REMARK INTER + INTRA:         -12.168
REMARK INTER:                 -11.088
REMARK INTRA:                  -1.079
REMARK UNBOUND:                -1.079
REMARK  Name = 
REMARK  5 active torsions:
REMARK  status: ('A' for Active; 'I' for Inactive)
REMARK    1  A    between atoms: C_2  and  C_4
REMARK    2  A    between atoms: C_7  and  N_8
REMARK    3  A    between atoms: N_8  and  C_9
REMARK    4  A    between atoms: C_9  and  C_10
REMARK    5  A    between atoms: C_14  and  C_15
REMARK                            x       y       z     vdW  Elec       q    Type
REMARK                         _______ _______ _______ _____ _____    ______ ____
ROOT
ATOM      1  N   UNL     1      43.772   4.810   9.960  0.00  0.00    +0.000 N 
ATOM      2  H   UNL     1      42.947   5.130   9.460  0.00  0.00    +0.000 HD
ENDROOT
BRANCH   1   6
ATOM      3  C   UNL     1      46.355   2.286   7.778  0.00  0.00    +0.000 A 
ATOM      4  C   UNL     1      45.432   1.726   8.662  0.00  0.00    +0.000 A 
ATOM      5  C   UNL     1      44.560   2.553   9.379  0.00  0.00    +0.000 A 
ATOM      6  C   UNL     1      44.568   3.943   9.211  0.00  0.00    +0.000 A 
ATOM      7  C   UNL     1      45.518   4.490   8.336  0.00  0.00    +0.000 A 
ATOM      8  C   UNL     1      46.411   3.673   7.630  0.00  0.00    +0.000 A 
BRANCH   3  10
ATOM      9  N   UNL     1      48.444   2.036   6.552  0.00  0.00    +0.000 N 
ATOM     10  C   UNL     1      47.310   1.435   7.021  0.00  0.00    +0.000 C 
ATOM     11  O   UNL     1      47.107   0.240   6.851  0.00  0.00    +0.000 OA
ATOM     12  H   UNL     1      49.131   1.424   6.128  0.00  0.00    +0.000 HD
ATOM     13  H   UNL     1      48.750   2.940   6.875  0.00  0.00    +0.000 HD
ENDBRANCH   3  10
ENDBRANCH   1   6
BRANCH   1  14
ATOM     14  C   UNL     1      43.544   4.555  11.375  0.00  0.00    +0.000 C 
BRANCH  14  15
ATOM     15  C   UNL     1      44.804   4.796  12.168  0.00  0.00    +0.000 A 
ATOM     16  C   UNL     1      45.488   3.735  12.767  0.00  0.00    +0.000 A 
ATOM     17  C   UNL     1      46.679   3.966  13.456  0.00  0.00    +0.000 A 
ATOM     18  C   UNL     1      47.222   5.250  13.519  0.00  0.00    +0.000 A 
ATOM     19  C   UNL     1      46.579   6.321  12.889  0.00  0.00    +0.000 A 
ATOM     20  C   UNL     1      45.351   6.082  12.245  0.00  0.00    +0.000 A 
BRANCH  19  21
ATOM     21  C   UNL     1      47.201   7.694  12.736  0.00  0.00    +0.000 C 
ATOM     22  C   UNL     1      46.121   8.684  12.270  0.00  0.00    +0.000 C 
ATOM     23  C   UNL     1      46.699  10.088  12.209  0.00  0.00    +0.000 C 
ATOM     24  O   UNL     1      47.836  10.129  11.347  0.00  0.00    +0.000 OA
ATOM     25  C   UNL     1      48.885   9.264  11.782  0.00  0.00    +0.000 C 
ATOM     26  C   UNL     1      48.415   7.811  11.806  0.00  0.00    +0.000 C 
ENDBRANCH  19  21
ENDBRANCH  14  15
ENDBRANCH   1  14
TORSDOF 5
ENDMDL
MODEL 2
REMARK VINA RESULT:    -8.550      0.702      1.247
REMARK INTER + INTRA:         -12.128
REMARK INTER:                 -11.090
REMARK INTRA:                  -1.038
REMARK UNBOUND:                -1.079
REMARK  Name = 
REMARK  5 active torsions:
REMARK  status: ('A' for Active; 'I' for Inactive)
REMARK    1  A    between atoms: C_2  and  C_4
REMARK    2  A    between atoms: C_7  and  N_8
REMARK    3  A    between atoms: N_8  and  C_9
REMARK    4  A    between atoms: C_9  and  C_10
REMARK    5  A    between atoms: C_14  and  C_15
REMARK                            x       y       z     vdW  Elec       q    Type
REMARK                         _______ _______ _______ _____ _____    ______ ____
ROOT
ATOM      1  N   UNL     1      43.755   4.929   9.846  0.00  0.00    +0.000 N 
ATOM      2  H   UNL     1      42.910   5.192   9.346  0.00  0.00    +0.000 HD
ENDROOT
BRANCH   1   6
ATOM      3  C   UNL     1      46.345   2.300   7.801  0.00  0.00    +0.000 A 
ATOM      4  C   UNL     1      45.420   1.784   8.710  0.00  0.00    +0.000 A 
ATOM      5  C   UNL     1      44.546   2.645   9.382  0.00  0.00    +0.000 A 
ATOM      6  C   UNL     1      44.553   4.026   9.145  0.00  0.00    +0.000 A 
ATOM      7  C   UNL     1      45.505   4.528   8.245  0.00  0.00    +0.000 A 
ATOM      8  C   UNL     1      46.400   3.677   7.583  0.00  0.00    +0.000 A 
BRANCH   3  10
ATOM      9  N   UNL     1      48.407   2.000   6.541  0.00  0.00    +0.000 N 
ATOM     10  C   UNL     1      47.302   1.412   7.090  0.00  0.00    +0.000 C 
ATOM     11  O   UNL     1      47.127   0.203   7.025  0.00  0.00    +0.000 OA
ATOM     12  H   UNL     1      49.098   1.371   6.149  0.00  0.00    +0.000 HD
ATOM     13  H   UNL     1      48.697   2.935   6.780  0.00  0.00    +0.000 HD
ENDBRANCH   3  10
ENDBRANCH   1   6
BRANCH   1  14
ATOM     14  C   UNL     1      43.568   4.777  11.283  0.00  0.00    +0.000 C 
BRANCH  14  15
ATOM     15  C   UNL     1      44.856   5.051  12.017  0.00  0.00    +0.000 A 
ATOM     16  C   UNL     1      45.365   4.133  12.940  0.00  0.00    +0.000 A 
ATOM     17  C   UNL     1      46.583   4.376  13.576  0.00  0.00    +0.000 A 
ATOM     18  C   UNL     1      47.325   5.518  13.269  0.00  0.00    +0.000 A 
ATOM     19  C   UNL     1      46.858   6.429  12.316  0.00  0.00    +0.000 A 
ATOM     20  C   UNL     1      45.603   6.198  11.723  0.00  0.00    +0.000 A 
BRANCH  19  21
ATOM     21  C   UNL     1      47.691   7.575  11.779  0.00  0.00    +0.000 C 
ATOM     22  C   UNL     1      49.167   7.328  12.127  0.00  0.00    +0.000 C 
ATOM     23  C   UNL     1      50.034   8.413  11.510  0.00  0.00    +0.000 C 
ATOM     24  O   UNL     1      49.614   9.704  11.949  0.00  0.00    +0.000 OA
ATOM     25  C   UNL     1      48.263   9.994  11.590  0.00  0.00    +0.000 C 
ATOM     26  C   UNL     1      47.305   8.990  12.229  0.00  0.00    +0.000 C 
ENDBRANCH  19  21
ENDBRANCH  14  15
ENDBRANCH   1  14
TORSDOF 5
ENDMDL
MODEL 3
REMARK VINA RESULT:    -8.490      2.260      3.522
REMARK INTER + INTRA:         -12.051
REMARK INTER:                 -11.167
REMARK INTRA:                  -0.884
REMARK UNBOUND:                -1.079
REMARK  Name = 
REMARK  5 active torsions:
REMARK  status: ('A' for Active; 'I' for Inactive)
REMARK    1  A    between atoms: C_2  and  C_4
REMARK    2  A    between atoms: C_7  and  N_8
REMARK    3  A    between atoms: N_8  and  C_9
REMARK    4  A    between atoms: C_9  and  C_10
REMARK    5  A    between atoms: C_14  and  C_15
REMARK                            x       y       z     vdW  Elec       q    Type
REMARK                         _______ _______ _______ _____ _____    ______ ____
ROOT
ATOM      1  N   UNL     1      43.767   4.837   9.919  0.00  0.00    +0.000 N 
ATOM      2  H   UNL     1      42.847   4.977   9.508  0.00  0.00    +0.000 HD
ENDROOT
BRANCH   1   6
ATOM      3  C   UNL     1      46.358   2.267   7.801  0.00  0.00    +0.000 A 
ATOM      4  C   UNL     1      45.470   1.731   8.735  0.00  0.00    +0.000 A 
ATOM      5  C   UNL     1      44.596   2.572   9.431  0.00  0.00    +0.000 A 
ATOM      6  C   UNL     1      44.565   3.952   9.195  0.00  0.00    +0.000 A 
ATOM      7  C   UNL     1      45.481   4.476   8.270  0.00  0.00    +0.000 A 
ATOM      8  C   UNL     1      46.376   3.646   7.584  0.00  0.00    +0.000 A 
BRANCH   3  10
ATOM      9  N   UNL     1      48.442   1.997   6.571  0.00  0.00    +0.000 N 
ATOM     10  C   UNL     1      47.315   1.402   7.064  0.00  0.00    +0.000 C 
ATOM     11  O   UNL     1      47.121   0.201   6.930  0.00  0.00    +0.000 OA
ATOM     12  H   UNL     1      49.131   1.378   6.160  0.00  0.00    +0.000 HD
ATOM     13  H   UNL     1      48.743   2.913   6.866  0.00  0.00    +0.000 HD
ENDBRANCH   3  10
ENDBRANCH   1   6
BRANCH   1  14
ATOM     14  C   UNL     1      43.763   4.794  11.374  0.00  0.00    +0.000 C 
BRANCH  14  15
ATOM     15  C   UNL     1      45.064   5.322  11.924  0.00  0.00    +0.000 A 
ATOM     16  C   UNL     1      45.696   6.423  11.339  0.00  0.00    +0.000 A 
ATOM     17  C   UNL     1      46.874   6.931  11.886  0.00  0.00    +0.000 A 
ATOM     18  C   UNL     1      47.412   6.373  13.047  0.00  0.00    +0.000 A 
ATOM     19  C   UNL     1      46.774   5.299  13.676  0.00  0.00    +0.000 A 
ATOM     20  C   UNL     1      45.618   4.762  13.082  0.00  0.00    +0.000 A 
BRANCH  19  21
ATOM     21  C   UNL     1      47.175   4.773  15.039  0.00  0.00    +0.000 C 
ATOM     22  C   UNL     1      48.303   5.652  15.604  0.00  0.00    +0.000 C 
ATOM     23  C   UNL     1      48.650   5.205  17.014  0.00  0.00    +0.000 C 
ATOM     24  O   UNL     1      49.020   3.826  17.030  0.00  0.00    +0.000 OA
ATOM     25  C   UNL     1      47.973   2.972  16.567  0.00  0.00    +0.000 C 
ATOM     26  C   UNL     1      47.603   3.303  15.122  0.00  0.00    +0.000 C 
ENDBRANCH  19  21
ENDBRANCH  14  15
ENDBRANCH   1  14
TORSDOF 5
ENDMDL
MODEL 4
REMARK VINA RESULT:    -7.113      2.385      6.547
REMARK INTER + INTRA:         -10.271
REMARK INTER:                  -9.281
REMARK INTRA:                  -0.990
REMARK UNBOUND:                -1.079
REMARK  Name = 
REMARK  5 active torsions:
REMARK  status: ('A' for Active; 'I' for Inactive)
REMARK    1  A    between atoms: C_2  and  C_4
REMARK    2  A    between atoms: C_7  and  N_8
REMARK    3  A    between atoms: N_8  and  C_9
REMARK    4  A    between atoms: C_9  and  C_10
REMARK    5  A    between atoms: C_14  and  C_15
REMARK                            x       y       z     vdW  Elec       q    Type
REMARK                         _______ _______ _______ _____ _____    ______ ____
ROOT
ATOM      1  N   UNL     1      44.385   6.639  12.662  0.00  0.00    +0.000 N 
ATOM      2  H   UNL     1      43.919   7.311  13.265  0.00  0.00    +0.000 HD
ENDROOT
BRANCH   1   6
ATOM      3  C   UNL     1      48.539   7.375  12.584  0.00  0.00    +0.000 A 
ATOM      4  C   UNL     1      48.067   6.148  13.053  0.00  0.00    +0.000 A 
ATOM      5  C   UNL     1      46.693   5.888  13.069  0.00  0.00    +0.000 A 
ATOM      6  C   UNL     1      45.766   6.824  12.594  0.00  0.00    +0.000 A 
ATOM      7  C   UNL     1      46.257   8.060  12.148  0.00  0.00    +0.000 A 
ATOM      8  C   UNL     1      47.630   8.340  12.148  0.00  0.00    +0.000 A 
BRANCH   3  10
ATOM      9  N   UNL     1      50.635   7.689  13.784  0.00  0.00    +0.000 N 
ATOM     10  C   UNL     1      49.992   7.690  12.578  0.00  0.00    +0.000 C 
ATOM     11  O   UNL     1      50.596   7.909  11.536  0.00  0.00    +0.000 OA
ATOM     12  H   UNL     1      51.641   7.805  13.753  0.00  0.00    +0.000 HD
ATOM     13  H   UNL     1      50.229   7.285  14.613  0.00  0.00    +0.000 HD
ENDBRANCH   3  10
ENDBRANCH   1   6
BRANCH   1  14
ATOM     14  C   UNL     1      43.633   6.302  11.461  0.00  0.00    +0.000 C 
BRANCH  14  15
ATOM     15  C   UNL     1      43.831   4.852  11.101  0.00  0.00    +0.000 A 
ATOM     16  C   UNL     1      43.187   3.840  11.818  0.00  0.00    +0.000 A 
ATOM     17  C   UNL     1      43.340   2.505  11.443  0.00  0.00    +0.000 A 
ATOM     18  C   UNL     1      44.105   2.168  10.325  0.00  0.00    +0.000 A 
ATOM     19  C   UNL     1      44.723   3.166   9.565  0.00  0.00    +0.000 A 
ATOM     20  C   UNL     1      44.604   4.502   9.987  0.00  0.00    +0.000 A 
BRANCH  19  21
ATOM     21  C   UNL     1      45.393   2.905   8.231  0.00  0.00    +0.000 C 
ATOM     22  C   UNL     1      46.220   1.613   8.331  0.00  0.00    +0.000 C 
ATOM     23  C   UNL     1      46.818   1.276   6.975  0.00  0.00    +0.000 C 
ATOM     24  O   UNL     1      47.614   2.357   6.492  0.00  0.00    +0.000 OA
ATOM     25  C   UNL     1      46.865   3.561   6.330  0.00  0.00    +0.000 C 
ATOM     26  C   UNL     1      46.280   4.020   7.664  0.00  0.00    +0.000 C 
ENDBRANCH  19  21
ENDBRANCH  14  15
ENDBRANCH   1  14
TORSDOF 5
ENDMDL
MODEL 5
REMARK VINA RESULT:    -6.783      3.311      7.310
REMARK INTER + INTRA:          -9.844
REMARK INTER:                  -9.092
REMARK INTRA:                  -0.752
REMARK UNBOUND:                -1.079
REMARK  Name = 
REMARK  5 active torsions:
REMARK  status: ('A' for Active; 'I' for Inactive)
REMARK    1  A    between atoms: C_2  and  C_4
REMARK    2  A    between atoms: C_7  and  N_8
REMARK    3  A    between atoms: N_8  and  C_9
REMARK    4  A    between atoms: C_9  and  C_10
REMARK    5  A    between atoms: C_14  and  C_15
REMARK                            x       y       z     vdW  Elec       q    Type
REMARK                         _______ _______ _______ _____ _____    ______ ____
ROOT
ATOM      1  N   UNL     1      47.483   6.653  12.287  0.00  0.00    +0.000 N 
ATOM      2  H   UNL     1      47.921   6.053  11.592  0.00  0.00    +0.000 HD
ENDROOT
BRANCH   1   6
ATOM      3  C   UNL     1      47.853   4.953  16.131  0.00  0.00    +0.000 A 
ATOM      4  C   UNL     1      48.471   6.175  15.857  0.00  0.00    +0.000 A 
ATOM      5  C   UNL     1      48.341   6.754  14.591  0.00  0.00    +0.000 A 
ATOM      6  C   UNL     1      47.576   6.151  13.585  0.00  0.00    +0.000 A 
ATOM      7  C   UNL     1      46.983   4.913  13.870  0.00  0.00    +0.000 A 
ATOM      8  C   UNL     1      47.124   4.312  15.128  0.00  0.00    +0.000 A 
BRANCH   3  10
ATOM      9  N   UNL     1      47.144   4.713  18.448  0.00  0.00    +0.000 N 
ATOM     10  C   UNL     1      47.993   4.301  17.459  0.00  0.00    +0.000 C 
ATOM     11  O   UNL     1      48.810   3.410  17.653  0.00  0.00    +0.000 OA
ATOM     12  H   UNL     1      47.182   4.191  19.315  0.00  0.00    +0.000 HD
ATOM     13  H   UNL     1      46.318   5.259  18.260  0.00  0.00    +0.000 HD
ENDBRANCH   3  10
ENDBRANCH   1   6
BRANCH   1  14
ATOM     14  C   UNL     1      46.251   7.281  11.833  0.00  0.00    +0.000 C 
BRANCH  14  15
ATOM     15  C   UNL     1      45.283   6.244  11.322  0.00  0.00    +0.000 A 
ATOM     16  C   UNL     1      43.947   6.245  11.732  0.00  0.00    +0.000 A 
ATOM     17  C   UNL     1      43.051   5.310  11.215  0.00  0.00    +0.000 A 
ATOM     18  C   UNL     1      43.468   4.389  10.252  0.00  0.00    +0.000 A 
ATOM     19  C   UNL     1      44.790   4.397   9.793  0.00  0.00    +0.000 A 
ATOM     20  C   UNL     1      45.694   5.309  10.364  0.00  0.00    +0.000 A 
BRANCH  19  21
ATOM     21  C   UNL     1      45.267   3.575   8.612  0.00  0.00    +0.000 C 
ATOM     22  C   UNL     1      45.709   2.190   9.112  0.00  0.00    +0.000 C 
ATOM     23  C   UNL     1      46.095   1.314   7.931  0.00  0.00    +0.000 C 
ATOM     24  O   UNL     1      47.124   1.932   7.159  0.00  0.00    +0.000 OA
ATOM     25  C   UNL     1      46.728   3.197   6.629  0.00  0.00    +0.000 C 
ATOM     26  C   UNL     1      46.387   4.173   7.752  0.00  0.00    +0.000 C 
ENDBRANCH  19  21
ENDBRANCH  14  15
ENDBRANCH   1  14
TORSDOF 5
ENDMDL
MODEL 6
REMARK VINA RESULT:    -6.218      4.000      7.456
REMARK INTER + INTRA:          -9.114
REMARK INTER:                  -8.673
REMARK INTRA:                  -0.442
REMARK UNBOUND:                -1.079
REMARK  Name = 
REMARK  5 active torsions:
REMARK  status: ('A' for Active; 'I' for Inactive)
REMARK    1  A    between atoms: C_2  and  C_4
REMARK    2  A    between atoms: C_7  and  N_8
REMARK    3  A    between atoms: N_8  and  C_9
REMARK    4  A    between atoms: C_9  and  C_10
REMARK    5  A    between atoms: C_14  and  C_15
REMARK                            x       y       z     vdW  Elec       q    Type
REMARK                         _______ _______ _______ _____ _____    ______ ____
ROOT
ATOM      1  N   UNL     1      48.828   7.449  14.256  0.00  0.00    +0.000 N 
ATOM      2  H   UNL     1      49.649   7.996  14.503  0.00  0.00    +0.000 HD
ENDROOT
BRANCH   1   6
ATOM      3  C   UNL     1      47.919   4.356  16.978  0.00  0.00    +0.000 A 
ATOM      4  C   UNL     1      48.863   5.323  17.327  0.00  0.00    +0.000 A 
ATOM      5  C   UNL     1      49.161   6.361  16.439  0.00  0.00    +0.000 A 
ATOM      6  C   UNL     1      48.509   6.478  15.204  0.00  0.00    +0.000 A 
ATOM      7  C   UNL     1      47.581   5.484  14.861  0.00  0.00    +0.000 A 
ATOM      8  C   UNL     1      47.291   4.427  15.734  0.00  0.00    +0.000 A 
BRANCH   3  10
ATOM      9  N   UNL     1      48.363   3.103  19.018  0.00  0.00    +0.000 N 
ATOM     10  C   UNL     1      47.600   3.228  17.891  0.00  0.00    +0.000 C 
ATOM     11  O   UNL     1      46.673   2.461  17.663  0.00  0.00    +0.000 OA
ATOM     12  H   UNL     1      48.070   2.393  19.679  0.00  0.00    +0.000 HD
ATOM     13  H   UNL     1      48.962   3.841  19.350  0.00  0.00    +0.000 HD
ENDBRANCH   3  10
ENDBRANCH   1   6
BRANCH   1  14
ATOM     14  C   UNL     1      48.726   7.146  12.835  0.00  0.00    +0.000 C 
BRANCH  14  15
ATOM     15  C   UNL     1      47.300   7.289  12.365  0.00  0.00    +0.000 A 
ATOM     16  C   UNL     1      46.621   8.504  12.493  0.00  0.00    +0.000 A 
ATOM     17  C   UNL     1      45.320   8.637  12.009  0.00  0.00    +0.000 A 
ATOM     18  C   UNL     1      44.696   7.573  11.355  0.00  0.00    +0.000 A 
ATOM     19  C   UNL     1      45.372   6.361  11.175  0.00  0.00    +0.000 A 
ATOM     20  C   UNL     1      46.663   6.225  11.716  0.00  0.00    +0.000 A 
BRANCH  19  21
ATOM     21  C   UNL     1      44.850   5.237  10.304  0.00  0.00    +0.000 C 
ATOM     22  C   UNL     1      44.717   3.964  11.155  0.00  0.00    +0.000 C 
ATOM     23  C   UNL     1      44.098   2.850  10.327  0.00  0.00    +0.000 C 
ATOM     24  O   UNL     1      44.872   2.603   9.154  0.00  0.00    +0.000 OA
ATOM     25  C   UNL     1      44.968   3.749   8.308  0.00  0.00    +0.000 C 
ATOM     26  C   UNL     1      45.648   4.906   9.037  0.00  0.00    +0.000 C 
ENDBRANCH  19  21
ENDBRANCH  14  15
ENDBRANCH   1  14
TORSDOF 5
ENDMDL
MODEL 7
REMARK VINA RESULT:    -6.151      2.371      6.938
REMARK INTER + INTRA:          -9.028
REMARK INTER:                  -8.188
REMARK INTRA:                  -0.840
REMARK UNBOUND:                -1.079
REMARK  Name = 
REMARK  5 active torsions:
REMARK  status: ('A' for Active; 'I' for Inactive)
REMARK    1  A    between atoms: C_2  and  C_4
REMARK    2  A    between atoms: C_7  and  N_8
REMARK    3  A    between atoms: N_8  and  C_9
REMARK    4  A    between atoms: C_9  and  C_10
REMARK    5  A    between atoms: C_14  and  C_15
REMARK                            x       y       z     vdW  Elec       q    Type
REMARK                         _______ _______ _______ _____ _____    ______ ____
ROOT
ATOM      1  N   UNL     1      47.324   5.484  13.150  0.00  0.00    +0.000 N 
ATOM      2  H   UNL     1      48.111   4.975  13.544  0.00  0.00    +0.000 HD
ENDROOT
BRANCH   1   6
ATOM      3  C   UNL     1      48.317   9.376  11.860  0.00  0.00    +0.000 A 
ATOM      4  C   UNL     1      47.060   9.136  12.417  0.00  0.00    +0.000 A 
ATOM      5  C   UNL     1      46.726   7.853  12.862  0.00  0.00    +0.000 A 
ATOM      6  C   UNL     1      47.639   6.793  12.791  0.00  0.00    +0.000 A 
ATOM      7  C   UNL     1      48.889   7.047  12.207  0.00  0.00    +0.000 A 
ATOM      8  C   UNL     1      49.226   8.324  11.737  0.00  0.00    +0.000 A 
BRANCH   3  10
ATOM      9  N   UNL     1      49.942  11.179  11.666  0.00  0.00    +0.000 N 
ATOM     10  C   UNL     1      48.692  10.723  11.356  0.00  0.00    +0.000 C 
ATOM     11  O   UNL     1      47.927  11.384  10.665  0.00  0.00    +0.000 OA
ATOM     12  H   UNL     1      50.219  12.052  11.233  0.00  0.00    +0.000 HD
ATOM     13  H   UNL     1      50.666  10.575  12.019  0.00  0.00    +0.000 HD
ENDBRANCH   3  10
ENDBRANCH   1   6
BRANCH   1  14
ATOM     14  C   UNL     1      46.050   5.187  13.790  0.00  0.00    +0.000 C 
BRANCH  14  15
ATOM     15  C   UNL     1      44.977   4.960  12.754  0.00  0.00    +0.000 A 
ATOM     16  C   UNL     1      43.699   5.502  12.915  0.00  0.00    +0.000 A 
ATOM     17  C   UNL     1      42.731   5.325  11.926  0.00  0.00    +0.000 A 
ATOM     18  C   UNL     1      43.039   4.641  10.749  0.00  0.00    +0.000 A 
ATOM     19  C   UNL     1      44.325   4.129  10.546  0.00  0.00    +0.000 A 
ATOM     20  C   UNL     1      45.274   4.267  11.575  0.00  0.00    +0.000 A 
BRANCH  19  21
ATOM     21  C   UNL     1      44.796   3.560   9.223  0.00  0.00    +0.000 C 
ATOM     22  C   UNL     1      45.373   2.155   9.459  0.00  0.00    +0.000 C 
ATOM     23  C   UNL     1      45.758   1.524   8.131  0.00  0.00    +0.000 C 
ATOM     24  O   UNL     1      46.689   2.348   7.431  0.00  0.00    +0.000 OA
ATOM     25  C   UNL     1      46.166   3.645   7.143  0.00  0.00    +0.000 C 
ATOM     26  C   UNL     1      45.814   4.388   8.430  0.00  0.00    +0.000 C 
ENDBRANCH  19  21
ENDBRANCH  14  15
ENDBRANCH   1  14
TORSDOF 5
ENDMDL
MODEL 8
REMARK VINA RESULT:    -6.013      3.865      5.861
REMARK INTER + INTRA:          -8.850
REMARK INTER:                  -7.854
REMARK INTRA:                  -0.995
REMARK UNBOUND:                -1.079
REMARK  Name = 
REMARK  5 active torsions:
REMARK  status: ('A' for Active; 'I' for Inactive)
REMARK    1  A    between atoms: C_2  and  C_4
REMARK    2  A    between atoms: C_7  and  N_8
REMARK    3  A    between atoms: N_8  and  C_9
REMARK    4  A    between atoms: C_9  and  C_10
REMARK    5  A    between atoms: C_14  and  C_15
REMARK                            x       y       z     vdW  Elec       q    Type
REMARK                         _______ _______ _______ _____ _____    ______ ____
ROOT
ATOM      1  N   UNL     1      46.657   7.726  12.327  0.00  0.00    +0.000 N 
ATOM      2  H   UNL     1      46.092   8.256  12.985  0.00  0.00    +0.000 HD
ENDROOT
BRANCH   1   6
ATOM      3  C   UNL     1      44.702   4.137  11.278  0.00  0.00    +0.000 A 
ATOM      4  C   UNL     1      45.185   4.976  10.273  0.00  0.00    +0.000 A 
ATOM      5  C   UNL     1      45.848   6.160  10.609  0.00  0.00    +0.000 A 
ATOM      6  C   UNL     1      46.070   6.520  11.945  0.00  0.00    +0.000 A 
ATOM      7  C   UNL     1      45.557   5.677  12.941  0.00  0.00    +0.000 A 
ATOM      8  C   UNL     1      44.872   4.499  12.616  0.00  0.00    +0.000 A 
BRANCH   3  10
ATOM      9  N   UNL     1      44.471   2.120   9.934  0.00  0.00    +0.000 N 
ATOM     10  C   UNL     1      43.972   2.884  10.951  0.00  0.00    +0.000 C 
ATOM     11  O   UNL     1      42.985   2.534  11.585  0.00  0.00    +0.000 OA
ATOM     12  H   UNL     1      44.023   1.222   9.790  0.00  0.00    +0.000 HD
ATOM     13  H   UNL     1      45.397   2.253   9.562  0.00  0.00    +0.000 HD
ENDBRANCH   3  10
ENDBRANCH   1   6
BRANCH   1  14
ATOM     14  C   UNL     1      48.088   7.792  12.589  0.00  0.00    +0.000 C 
BRANCH  14  15
ATOM     15  C   UNL     1      48.354   7.842  14.072  0.00  0.00    +0.000 A 
ATOM     16  C   UNL     1      48.254   9.044  14.778  0.00  0.00    +0.000 A 
ATOM     17  C   UNL     1      48.455   9.068  16.159  0.00  0.00    +0.000 A 
ATOM     18  C   UNL     1      48.716   7.887  16.855  0.00  0.00    +0.000 A 
ATOM     19  C   UNL     1      48.776   6.665  16.177  0.00  0.00    +0.000 A 
ATOM     20  C   UNL     1      48.626   6.665  14.779  0.00  0.00    +0.000 A 
BRANCH  19  21
ATOM     21  C   UNL     1      48.849   5.324  16.879  0.00  0.00    +0.000 C 
ATOM     22  C   UNL     1      47.788   4.387  16.281  0.00  0.00    +0.000 C 
ATOM     23  C   UNL     1      47.912   3.004  16.899  0.00  0.00    +0.000 C 
ATOM     24  O   UNL     1      47.791   3.073  18.319  0.00  0.00    +0.000 OA
ATOM     25  C   UNL     1      48.798   3.890  18.917  0.00  0.00    +0.000 C 
ATOM     26  C   UNL     1      48.706   5.326  18.405  0.00  0.00    +0.000 C 
ENDBRANCH  19  21
ENDBRANCH  14  15
ENDBRANCH   1  14
TORSDOF 5
ENDMDL
MODEL 9
REMARK VINA RESULT:    -6.006      5.132      7.765
REMARK INTER + INTRA:          -8.840
REMARK INTER:                  -7.963
REMARK INTRA:                  -0.877
REMARK UNBOUND:                -1.079
REMARK  Name = 
REMARK  5 active torsions:
REMARK  status: ('A' for Active; 'I' for Inactive)
REMARK    1  A    between atoms: C_2  and  C_4
REMARK    2  A    between atoms: C_7  and  N_8
REMARK    3  A    between atoms: N_8  and  C_9
REMARK    4  A    between atoms: C_9  and  C_10
REMARK    5  A    between atoms: C_14  and  C_15
REMARK                            x       y       z     vdW  Elec       q    Type
REMARK                         _______ _______ _______ _____ _____    ______ ____
ROOT
ATOM      1  N   UNL     1      48.015   5.439  16.588  0.00  0.00    +0.000 N 
ATOM      2  H   UNL     1      47.350   5.520  17.353  0.00  0.00    +0.000 HD
ENDROOT
BRANCH   1   6
ATOM      3  C   UNL     1      50.805   2.362  17.330  0.00  0.00    +0.000 A 
ATOM      4  C   UNL     1      49.552   2.042  16.803  0.00  0.00    +0.000 A 
ATOM      5  C   UNL     1      48.626   3.055  16.539  0.00  0.00    +0.000 A 
ATOM      6  C   UNL     1      48.932   4.404  16.763  0.00  0.00    +0.000 A 
ATOM      7  C   UNL     1      50.186   4.704  17.315  0.00  0.00    +0.000 A 
ATOM      8  C   UNL     1      51.114   3.695  17.605  0.00  0.00    +0.000 A 
BRANCH   3  10
ATOM      9  N   UNL     1      51.338   0.176  18.261  0.00  0.00    +0.000 N 
ATOM     10  C   UNL     1      51.800   1.304  17.644  0.00  0.00    +0.000 C 
ATOM     11  O   UNL     1      52.979   1.422  17.335  0.00  0.00    +0.000 OA
ATOM     12  H   UNL     1      52.008  -0.576  18.377  0.00  0.00    +0.000 HD
ATOM     13  H   UNL     1      50.358  -0.051  18.310  0.00  0.00    +0.000 HD
ENDBRANCH   3  10
ENDBRANCH   1   6
BRANCH   1  14
ATOM     14  C   UNL     1      48.450   6.718  16.046  0.00  0.00    +0.000 C 
BRANCH  14  15
ATOM     15  C   UNL     1      48.205   6.775  14.559  0.00  0.00    +0.000 A 
ATOM     16  C   UNL     1      49.184   7.260  13.688  0.00  0.00    +0.000 A 
ATOM     17  C   UNL     1      48.963   7.261  12.311  0.00  0.00    +0.000 A 
ATOM     18  C   UNL     1      47.779   6.741  11.784  0.00  0.00    +0.000 A 
ATOM     19  C   UNL     1      46.803   6.209  12.633  0.00  0.00    +0.000 A 
ATOM     20  C   UNL     1      47.016   6.264  14.022  0.00  0.00    +0.000 A 
BRANCH  19  21
ATOM     21  C   UNL     1      45.592   5.445  12.136  0.00  0.00    +0.000 C 
ATOM     22  C   UNL     1      45.642   4.012  12.689  0.00  0.00    +0.000 C 
ATOM     23  C   UNL     1      44.385   3.258  12.287  0.00  0.00    +0.000 C 
ATOM     24  O   UNL     1      44.231   3.254  10.868  0.00  0.00    +0.000 OA
ATOM     25  C   UNL     1      44.122   4.569  10.324  0.00  0.00    +0.000 C 
ATOM     26  C   UNL     1      45.380   5.384  10.618  0.00  0.00    +0.000 C 
ENDBRANCH  19  21
ENDBRANCH  14  15
ENDBRANCH   1  14
TORSDOF 5
ENDMDL
