MODEL 1
REMARK VINA RESULT:    -8.892      0.000      0.000
REMARK INTER + INTRA:         -12.108
REMARK INTER:                 -10.971
REMARK INTRA:                  -1.136
REMARK UNBOUND:                -1.136
REMARK  Name = 
REMARK  4 active torsions:
REMARK  status: ('A' for Active; 'I' for Inactive)
REMARK    1  A    between atoms: C_2  and  C_4
REMARK    2  A    between atoms: N_8  and  C_9
REMARK    3  A    between atoms: C_9  and  C_10
REMARK    4  A    between atoms: C_14  and  C_15
REMARK                            x       y       z     vdW  Elec       q    Type
REMARK                         _______ _______ _______ _____ _____    ______ ____
ROOT
ATOM      1  C   UNL     1      43.760   4.850  11.382  0.00  0.00    +0.000 C 
ATOM      2  C   UNL     1      42.380   5.148  11.949  0.00  0.00    +0.000 C 
ATOM      3  C   UNL     1      43.026   6.128  11.029  0.00  0.00    +0.000 C 
ENDROOT
BRANCH   1   8
ATOM      4  C   UNL     1      46.562   2.763   7.509  0.00  0.00    +0.000 A 
ATOM      5  C   UNL     1      46.199   4.096   7.689  0.00  0.00    +0.000 A 
ATOM      6  C   UNL     1      45.311   4.429   8.713  0.00  0.00    +0.000 A 
ATOM      7  C   UNL     1      44.799   3.432   9.536  0.00  0.00    +0.000 A 
ATOM      8  N   UNL     1      43.811   3.666  10.499  0.00  0.00    +0.000 N 
ATOM      9  N   UNL     1      45.149   2.137   9.372  0.00  0.00    +0.000 NA
ATOM     10  C   UNL     1      46.011   1.826   8.369  0.00  0.00    +0.000 A 
ATOM     11  H   UNL     1      43.705   2.774  10.981  0.00  0.00    +0.000 HD
BRANCH   4  13
ATOM     12  N   UNL     1      47.362   2.970   5.226  0.00  0.00    +0.000 N 
ATOM     13  C   UNL     1      47.456   2.313   6.422  0.00  0.00    +0.000 C 
ATOM     14  O   UNL     1      48.262   1.411   6.589  0.00  0.00    +0.000 OA
ATOM     15  H   UNL     1      48.036   2.707   4.517  0.00  0.00    +0.000 HD
ATOM     16  H   UNL     1      46.897   3.858   5.118  0.00  0.00    +0.000 HD
ENDBRANCH   4  13
ENDBRANCH   1   8
BRANCH   1  17
ATOM     17  C   UNL     1      44.975   4.939  12.298  0.00  0.00    +0.000 A 
ATOM     18  C   UNL     1      45.566   3.803  12.871  0.00  0.00    +0.000 A 
ATOM     19  C   UNL     1      46.792   3.879  13.534  0.00  0.00    +0.000 A 
ATOM     20  C   UNL     1      47.475   5.094  13.605  0.00  0.00    +0.000 A 
ATOM     21  C   UNL     1      46.914   6.250  13.055  0.00  0.00    +0.000 A 
ATOM     22  C   UNL     1      45.643   6.163  12.462  0.00  0.00    +0.000 A 
BRANCH  21  23
ATOM     23  C   UNL     1      47.707   7.543  12.992  0.00  0.00    +0.000 C 
ATOM     24  C   UNL     1      46.826   8.755  12.659  0.00  0.00    +0.000 C 
ATOM     25  C   UNL     1      47.681  10.000  12.446  0.00  0.00    +0.000 C 
ATOM     26  O   UNL     1      48.674   9.769  11.446  0.00  0.00    +0.000 OA
ATOM     27  C   UNL     1      49.593   8.748  11.831  0.00  0.00    +0.000 C 
ATOM     28  C   UNL     1      48.870   7.422  11.991  0.00  0.00    +0.000 C 
ENDBRANCH  21  23
ENDBRANCH   1  17
TORSDOF 4
ENDMDL
MODEL 2
REMARK VINA RESULT:    -8.816      2.126      3.261
REMARK INTER + INTRA:         -12.013
REMARK INTER:                 -11.446
REMARK INTRA:                  -0.568
REMARK UNBOUND:                -1.136
REMARK  Name = 
REMARK  4 active torsions:
REMARK  status: ('A' for Active; 'I' for Inactive)
REMARK    1  A    between atoms: C_2  and  C_4
REMARK    2  A    between atoms: N_8  and  C_9
REMARK    3  A    between atoms: C_9  and  C_10
REMARK    4  A    between atoms: C_14  and  C_15
REMARK                            x       y       z     vdW  Elec       q    Type
REMARK                         _______ _______ _______ _____ _____    ______ ____
ROOT
ATOM      1  C   UNL     1      43.868   4.833  11.448  0.00  0.00    +0.000 C 
ATOM      2  C   UNL     1      42.690   4.888  12.409  0.00  0.00    +0.000 C 
ATOM      3  C   UNL     1      42.807   5.908  11.327  0.00  0.00    +0.000 C 
ENDROOT
BRANCH   1   8
ATOM      4  C   UNL     1      46.498   2.706   7.477  0.00  0.00    +0.000 A 
ATOM      5  C   UNL     1      46.101   4.032   7.636  0.00  0.00    +0.000 A 
ATOM      6  C   UNL     1      45.267   4.371   8.702  0.00  0.00    +0.000 A 
ATOM      7  C   UNL     1      44.840   3.387   9.587  0.00  0.00    +0.000 A 
ATOM      8  N   UNL     1      43.904   3.621  10.601  0.00  0.00    +0.000 N 
ATOM      9  N   UNL     1      45.222   2.099   9.442  0.00  0.00    +0.000 NA
ATOM     10  C   UNL     1      46.031   1.781   8.398  0.00  0.00    +0.000 A 
ATOM     11  H   UNL     1      43.858   2.743  11.117  0.00  0.00    +0.000 HD
BRANCH   4  13
ATOM     12  N   UNL     1      47.183   2.892   5.155  0.00  0.00    +0.000 N 
ATOM     13  C   UNL     1      47.337   2.247   6.351  0.00  0.00    +0.000 C 
ATOM     14  O   UNL     1      48.153   1.349   6.486  0.00  0.00    +0.000 OA
ATOM     15  H   UNL     1      47.822   2.625   4.416  0.00  0.00    +0.000 HD
ATOM     16  H   UNL     1      46.710   3.779   5.062  0.00  0.00    +0.000 HD
ENDBRANCH   4  13
ENDBRANCH   1   8
BRANCH   1  17
ATOM     17  C   UNL     1      45.253   5.230  11.945  0.00  0.00    +0.000 A 
ATOM     18  C   UNL     1      46.001   6.253  11.343  0.00  0.00    +0.000 A 
ATOM     19  C   UNL     1      47.168   6.743  11.933  0.00  0.00    +0.000 A 
ATOM     20  C   UNL     1      47.592   6.241  13.165  0.00  0.00    +0.000 A 
ATOM     21  C   UNL     1      46.880   5.215  13.790  0.00  0.00    +0.000 A 
ATOM     22  C   UNL     1      45.752   4.685  13.139  0.00  0.00    +0.000 A 
BRANCH  21  23
ATOM     23  C   UNL     1      47.242   4.763  15.194  0.00  0.00    +0.000 C 
ATOM     24  C   UNL     1      48.341   5.629  15.824  0.00  0.00    +0.000 C 
ATOM     25  C   UNL     1      48.787   5.046  17.160  0.00  0.00    +0.000 C 
ATOM     26  O   UNL     1      49.198   3.687  17.010  0.00  0.00    +0.000 OA
ATOM     27  C   UNL     1      48.127   2.850  16.578  0.00  0.00    +0.000 C 
ATOM     28  C   UNL     1      47.646   3.278  15.202  0.00  0.00    +0.000 C 
ENDBRANCH  21  23
ENDBRANCH   1  17
TORSDOF 4
ENDMDL
MODEL 3
REMARK VINA RESULT:    -6.752      2.775      6.775
REMARK INTER + INTRA:          -9.467
REMARK INTER:                  -8.338
REMARK INTRA:                  -1.129
REMARK UNBOUND:                -1.136
REMARK  Name = 
REMARK  4 active torsions:
REMARK  status: ('A' for Active; 'I' for Inactive)
REMARK    1  A    between atoms: C_2  and  C_4
REMARK    2  A    between atoms: N_8  and  C_9
REMARK    3  A    between atoms: C_9  and  C_10
REMARK    4  A    between atoms: C_14  and  C_15
REMARK                            x       y       z     vdW  Elec       q    Type
REMARK                         _______ _______ _______ _____ _____    ______ ____
ROOT
ATOM      1  C   UNL     1      46.397   5.108  13.677  0.00  0.00    +0.000 C 
ATOM      2  C   UNL     1      46.451   4.159  14.865  0.00  0.00    +0.000 C 
ATOM      3  C   UNL     1      47.421   3.994  13.745  0.00  0.00    +0.000 C 
ENDROOT
BRANCH   1   8
ATOM      4  C   UNL     1      48.564   9.406  11.669  0.00  0.00    +0.000 A 
ATOM      5  C   UNL     1      49.007   8.089  11.566  0.00  0.00    +0.000 A 
ATOM      6  C   UNL     1      48.369   7.095  12.309  0.00  0.00    +0.000 A 
ATOM      7  C   UNL     1      47.306   7.429  13.141  0.00  0.00    +0.000 A 
ATOM      8  N   UNL     1      46.698   6.517  14.011  0.00  0.00    +0.000 N 
ATOM      9  N   UNL     1      46.867   8.703  13.244  0.00  0.00    +0.000 NA
ATOM     10  C   UNL     1      47.500   9.661  12.519  0.00  0.00    +0.000 A 
ATOM     11  H   UNL     1      45.918   7.030  14.419  0.00  0.00    +0.000 HD
BRANCH   4  13
ATOM     12  N   UNL     1      50.575  10.603  11.021  0.00  0.00    +0.000 N 
ATOM     13  C   UNL     1      49.211  10.529  10.959  0.00  0.00    +0.000 C 
ATOM     14  O   UNL     1      48.561  11.342  10.322  0.00  0.00    +0.000 OA
ATOM     15  H   UNL     1      51.011  11.328  10.463  0.00  0.00    +0.000 HD
ATOM     16  H   UNL     1      51.157   9.836  11.322  0.00  0.00    +0.000 HD
ENDBRANCH   4  13
ENDBRANCH   1   8
BRANCH   1  17
ATOM     17  C   UNL     1      45.252   4.984  12.678  0.00  0.00    +0.000 A 
ATOM     18  C   UNL     1      44.098   5.778  12.759  0.00  0.00    +0.000 A 
ATOM     19  C   UNL     1      43.158   5.800  11.727  0.00  0.00    +0.000 A 
ATOM     20  C   UNL     1      43.375   5.052  10.568  0.00  0.00    +0.000 A 
ATOM     21  C   UNL     1      44.508   4.242  10.454  0.00  0.00    +0.000 A 
ATOM     22  C   UNL     1      45.399   4.177  11.540  0.00  0.00    +0.000 A 
BRANCH  21  23
ATOM     23  C   UNL     1      44.833   3.541   9.147  0.00  0.00    +0.000 C 
ATOM     24  C   UNL     1      45.354   2.113   9.361  0.00  0.00    +0.000 C 
ATOM     25  C   UNL     1      45.820   1.507   8.042  0.00  0.00    +0.000 C 
ATOM     26  O   UNL     1      46.792   2.342   7.413  0.00  0.00    +0.000 OA
ATOM     27  C   UNL     1      46.256   3.619   7.068  0.00  0.00    +0.000 C 
ATOM     28  C   UNL     1      45.832   4.369   8.319  0.00  0.00    +0.000 C 
ENDBRANCH  21  23
ENDBRANCH   1  17
TORSDOF 4
ENDMDL
MODEL 4
REMARK VINA RESULT:    -6.603      3.942      7.997
REMARK INTER + INTRA:          -9.283
REMARK INTER:                  -9.090
REMARK INTRA:                  -0.193
REMARK UNBOUND:                -1.136
REMARK  Name = 
REMARK  4 active torsions:
REMARK  status: ('A' for Active; 'I' for Inactive)
REMARK    1  A    between atoms: C_2  and  C_4
REMARK    2  A    between atoms: N_8  and  C_9
REMARK    3  A    between atoms: C_9  and  C_10
REMARK    4  A    between atoms: C_14  and  C_15
REMARK                            x       y       z     vdW  Elec       q    Type
REMARK                         _______ _______ _______ _____ _____    ______ ____
ROOT
ATOM      1  C   UNL     1      46.867   5.916  13.195  0.00  0.00    +0.000 C 
ATOM      2  C   UNL     1      48.004   6.671  12.522  0.00  0.00    +0.000 C 
ATOM      3  C   UNL     1      47.181   7.351  13.565  0.00  0.00    +0.000 C 
ENDROOT
BRANCH   1   8
ATOM      4  C   UNL     1      48.276   4.586  18.038  0.00  0.00    +0.000 A 
ATOM      5  C   UNL     1      48.620   5.733  17.324  0.00  0.00    +0.000 A 
ATOM      6  C   UNL     1      48.265   5.829  15.978  0.00  0.00    +0.000 A 
ATOM      7  C   UNL     1      47.580   4.786  15.365  0.00  0.00    +0.000 A 
ATOM      8  N   UNL     1      47.302   4.750  13.994  0.00  0.00    +0.000 N 
ATOM      9  N   UNL     1      47.239   3.672  16.051  0.00  0.00    +0.000 NA
ATOM     10  C   UNL     1      47.594   3.588  17.359  0.00  0.00    +0.000 A 
ATOM     11  H   UNL     1      46.734   3.914  13.868  0.00  0.00    +0.000 HD
BRANCH   4  13
ATOM     12  N   UNL     1      48.275   3.195  20.028  0.00  0.00    +0.000 N 
ATOM     13  C   UNL     1      48.653   4.376  19.451  0.00  0.00    +0.000 C 
ATOM     14  O   UNL     1      49.296   5.208  20.071  0.00  0.00    +0.000 OA
ATOM     15  H   UNL     1      48.610   3.029  20.969  0.00  0.00    +0.000 HD
ATOM     16  H   UNL     1      47.964   2.395  19.498  0.00  0.00    +0.000 HD
ENDBRANCH   4  13
ENDBRANCH   1   8
BRANCH   1  17
ATOM     17  C   UNL     1      45.595   5.630  12.405  0.00  0.00    +0.000 A 
ATOM     18  C   UNL     1      44.444   6.424  12.526  0.00  0.00    +0.000 A 
ATOM     19  C   UNL     1      43.366   6.277  11.650  0.00  0.00    +0.000 A 
ATOM     20  C   UNL     1      43.434   5.353  10.606  0.00  0.00    +0.000 A 
ATOM     21  C   UNL     1      44.559   4.537  10.460  0.00  0.00    +0.000 A 
ATOM     22  C   UNL     1      45.598   4.650  11.401  0.00  0.00    +0.000 A 
BRANCH  21  23
ATOM     23  C   UNL     1      44.712   3.636   9.247  0.00  0.00    +0.000 C 
ATOM     24  C   UNL     1      45.084   2.197   9.630  0.00  0.00    +0.000 C 
ATOM     25  C   UNL     1      45.386   1.370   8.385  0.00  0.00    +0.000 C 
ATOM     26  O   UNL     1      46.400   1.992   7.595  0.00  0.00    +0.000 OA
ATOM     27  C   UNL     1      45.987   3.267   7.104  0.00  0.00    +0.000 C 
ATOM     28  C   UNL     1      45.737   4.220   8.259  0.00  0.00    +0.000 C 
ENDBRANCH  21  23
ENDBRANCH   1  17
TORSDOF 4
ENDMDL
MODEL 5
REMARK VINA RESULT:    -6.491      4.064      8.151
REMARK INTER + INTRA:          -9.145
REMARK INTER:                  -8.097
REMARK INTRA:                  -1.048
REMARK UNBOUND:                -1.136
REMARK  Name = 
REMARK  4 active torsions:
REMARK  status: ('A' for Active; 'I' for Inactive)
REMARK    1  A    between atoms: C_2  and  C_4
REMARK    2  A    between atoms: N_8  and  C_9
REMARK    3  A    between atoms: C_9  and  C_10
REMARK    4  A    between atoms: C_14  and  C_15
REMARK                            x       y       z     vdW  Elec       q    Type
REMARK                         _______ _______ _______ _____ _____    ______ ____
ROOT
ATOM      1  C   UNL     1      48.848   7.702  12.592  0.00  0.00    +0.000 C 
ATOM      2  C   UNL     1      49.793   7.828  11.406  0.00  0.00    +0.000 C 
ATOM      3  C   UNL     1      49.614   8.984  12.332  0.00  0.00    +0.000 C 
ENDROOT
BRANCH   1   8
ATOM      4  C   UNL     1      48.452   6.588  17.672  0.00  0.00    +0.000 A 
ATOM      5  C   UNL     1      48.673   7.828  17.076  0.00  0.00    +0.000 A 
ATOM      6  C   UNL     1      48.903   7.893  15.701  0.00  0.00    +0.000 A 
ATOM      7  C   UNL     1      48.912   6.726  14.945  0.00  0.00    +0.000 A 
ATOM      8  N   UNL     1      49.260   6.692  13.590  0.00  0.00    +0.000 N 
ATOM      9  N   UNL     1      48.695   5.519  15.514  0.00  0.00    +0.000 NA
ATOM     10  C   UNL     1      48.476   5.470  16.854  0.00  0.00    +0.000 A 
ATOM     11  H   UNL     1      49.098   5.727  13.306  0.00  0.00    +0.000 HD
BRANCH   4  13
ATOM     12  N   UNL     1      47.265   5.558  19.523  0.00  0.00    +0.000 N 
ATOM     13  C   UNL     1      48.250   6.420  19.126  0.00  0.00    +0.000 C 
ATOM     14  O   UNL     1      48.948   7.003  19.940  0.00  0.00    +0.000 OA
ATOM     15  H   UNL     1      47.193   5.388  20.518  0.00  0.00    +0.000 HD
ATOM     16  H   UNL     1      46.838   4.884  18.905  0.00  0.00    +0.000 HD
ENDBRANCH   4  13
ENDBRANCH   1   8
BRANCH   1  17
ATOM     17  C   UNL     1      47.344   7.691  12.346  0.00  0.00    +0.000 A 
ATOM     18  C   UNL     1      46.557   8.847  12.461  0.00  0.00    +0.000 A 
ATOM     19  C   UNL     1      45.228   8.865  12.034  0.00  0.00    +0.000 A 
ATOM     20  C   UNL     1      44.667   7.731  11.444  0.00  0.00    +0.000 A 
ATOM     21  C   UNL     1      45.416   6.558  11.320  0.00  0.00    +0.000 A 
ATOM     22  C   UNL     1      46.727   6.541  11.829  0.00  0.00    +0.000 A 
BRANCH  21  23
ATOM     23  C   UNL     1      44.873   5.368  10.549  0.00  0.00    +0.000 C 
ATOM     24  C   UNL     1      44.787   4.101  11.412  0.00  0.00    +0.000 C 
ATOM     25  C   UNL     1      44.394   2.897  10.562  0.00  0.00    +0.000 C 
ATOM     26  O   UNL     1      45.291   2.736   9.463  0.00  0.00    +0.000 OA
ATOM     27  C   UNL     1      45.250   3.849   8.572  0.00  0.00    +0.000 C 
ATOM     28  C   UNL     1      45.710   5.110   9.284  0.00  0.00    +0.000 C 
ENDBRANCH  21  23
ENDBRANCH   1  17
TORSDOF 4
ENDMDL
MODEL 6
REMARK VINA RESULT:    -6.382      3.663      5.869
REMARK INTER + INTRA:          -9.010
REMARK INTER:                  -8.548
REMARK INTRA:                  -0.463
REMARK UNBOUND:                -1.136
REMARK  Name = 
REMARK  4 active torsions:
REMARK  status: ('A' for Active; 'I' for Inactive)
REMARK    1  A    between atoms: C_2  and  C_4
REMARK    2  A    between atoms: N_8  and  C_9
REMARK    3  A    between atoms: C_9  and  C_10
REMARK    4  A    between atoms: C_14  and  C_15
REMARK                            x       y       z     vdW  Elec       q    Type
REMARK                         _______ _______ _______ _____ _____    ______ ____
ROOT
ATOM      1  C   UNL     1      47.373   8.339  13.189  0.00  0.00    +0.000 C 
ATOM      2  C   UNL     1      47.511   9.635  12.405  0.00  0.00    +0.000 C 
ATOM      3  C   UNL     1      48.221   8.410  11.936  0.00  0.00    +0.000 C 
ENDROOT
BRANCH   1   8
ATOM      4  C   UNL     1      44.587   4.226  11.598  0.00  0.00    +0.000 A 
ATOM      5  C   UNL     1      45.575   4.919  10.902  0.00  0.00    +0.000 A 
ATOM      6  C   UNL     1      46.096   6.094  11.446  0.00  0.00    +0.000 A 
ATOM      7  C   UNL     1      45.623   6.560  12.668  0.00  0.00    +0.000 A 
ATOM      8  N   UNL     1      46.000   7.790  13.217  0.00  0.00    +0.000 N 
ATOM      9  N   UNL     1      44.668   5.892  13.352  0.00  0.00    +0.000 NA
ATOM     10  C   UNL     1      44.167   4.752  12.810  0.00  0.00    +0.000 A 
ATOM     11  H   UNL     1      45.555   7.810  14.134  0.00  0.00    +0.000 HD
BRANCH   4  13
ATOM     12  N   UNL     1      44.554   2.378  10.023  0.00  0.00    +0.000 N 
ATOM     13  C   UNL     1      43.944   3.002  11.076  0.00  0.00    +0.000 C 
ATOM     14  O   UNL     1      42.927   2.551  11.578  0.00  0.00    +0.000 OA
ATOM     15  H   UNL     1      44.150   1.497   9.729  0.00  0.00    +0.000 HD
ATOM     16  H   UNL     1      45.504   2.571   9.741  0.00  0.00    +0.000 HD
ENDBRANCH   4  13
ENDBRANCH   1   8
BRANCH   1  17
ATOM     17  C   UNL     1      48.074   8.207  14.536  0.00  0.00    +0.000 A 
ATOM     18  C   UNL     1      48.316   9.311  15.367  0.00  0.00    +0.000 A 
ATOM     19  C   UNL     1      48.768   9.149  16.677  0.00  0.00    +0.000 A 
ATOM     20  C   UNL     1      48.953   7.867  17.199  0.00  0.00    +0.000 A 
ATOM     21  C   UNL     1      48.733   6.743  16.400  0.00  0.00    +0.000 A 
ATOM     22  C   UNL     1      48.353   6.935  15.060  0.00  0.00    +0.000 A 
BRANCH  21  23
ATOM     23  C   UNL     1      48.785   5.346  16.993  0.00  0.00    +0.000 C 
ATOM     24  C   UNL     1      50.221   4.826  17.143  0.00  0.00    +0.000 C 
ATOM     25  C   UNL     1      50.222   3.367  17.587  0.00  0.00    +0.000 C 
ATOM     26  O   UNL     1      49.453   2.563  16.693  0.00  0.00    +0.000 OA
ATOM     27  C   UNL     1      48.079   2.947  16.677  0.00  0.00    +0.000 C 
ATOM     28  C   UNL     1      47.934   4.369  16.163  0.00  0.00    +0.000 C 
ENDBRANCH  21  23
ENDBRANCH   1  17
TORSDOF 4
ENDMDL
MODEL 7
REMARK VINA RESULT:    -5.998      3.911      5.960
REMARK INTER + INTRA:          -8.537
REMARK INTER:                  -7.992
REMARK INTRA:                  -0.546
REMARK UNBOUND:                -1.136
REMARK  Name = 
REMARK  4 active torsions:
REMARK  status: ('A' for Active; 'I' for Inactive)
REMARK    1  A    between atoms: C_2  and  C_4
REMARK    2  A    between atoms: N_8  and  C_9
REMARK    3  A    between atoms: C_9  and  C_10
REMARK    4  A    between atoms: C_14  and  C_15
REMARK                            x       y       z     vdW  Elec       q    Type
REMARK                         _______ _______ _______ _____ _____    ______ ____
ROOT
ATOM      1  C   UNL     1      47.843   8.115  13.126  0.00  0.00    +0.000 C 
ATOM      2  C   UNL     1      47.552   9.588  12.883  0.00  0.00    +0.000 C 
ATOM      3  C   UNL     1      48.004   8.729  11.751  0.00  0.00    +0.000 C 
ENDROOT
BRANCH   1   8
ATOM      4  C   UNL     1      44.846   4.148  11.551  0.00  0.00    +0.000 A 
ATOM      5  C   UNL     1      45.372   5.187  10.786  0.00  0.00    +0.000 A 
ATOM      6  C   UNL     1      46.025   6.242  11.427  0.00  0.00    +0.000 A 
ATOM      7  C   UNL     1      46.139   6.246  12.812  0.00  0.00    +0.000 A 
ATOM      8  N   UNL     1      46.664   7.323  13.535  0.00  0.00    +0.000 N 
ATOM      9  N   UNL     1      45.636   5.239  13.561  0.00  0.00    +0.000 NA
ATOM     10  C   UNL     1      45.000   4.221  12.926  0.00  0.00    +0.000 A 
ATOM     11  H   UNL     1      46.686   6.998  14.501  0.00  0.00    +0.000 HD
BRANCH   4  13
ATOM     12  N   UNL     1      44.689   2.348   9.928  0.00  0.00    +0.000 N 
ATOM     13  C   UNL     1      44.097   3.017  10.964  0.00  0.00    +0.000 C 
ATOM     14  O   UNL     1      43.009   2.677  11.399  0.00  0.00    +0.000 OA
ATOM     15  H   UNL     1      44.204   1.526   9.591  0.00  0.00    +0.000 HD
ATOM     16  H   UNL     1      45.668   2.435   9.702  0.00  0.00    +0.000 HD
ENDBRANCH   4  13
ENDBRANCH   1   8
BRANCH   1  17
ATOM     17  C   UNL     1      49.097   7.723  13.899  0.00  0.00    +0.000 A 
ATOM     18  C   UNL     1      50.366   8.229  13.576  0.00  0.00    +0.000 A 
ATOM     19  C   UNL     1      51.463   8.026  14.415  0.00  0.00    +0.000 A 
ATOM     20  C   UNL     1      51.305   7.341  15.621  0.00  0.00    +0.000 A 
ATOM     21  C   UNL     1      50.060   6.814  15.973  0.00  0.00    +0.000 A 
ATOM     22  C   UNL     1      48.988   6.964  15.075  0.00  0.00    +0.000 A 
BRANCH  21  23
ATOM     23  C   UNL     1      49.837   6.200  17.343  0.00  0.00    +0.000 C 
ATOM     24  C   UNL     1      50.325   4.747  17.420  0.00  0.00    +0.000 C 
ATOM     25  C   UNL     1      49.936   4.118  18.754  0.00  0.00    +0.000 C 
ATOM     26  O   UNL     1      48.530   4.222  18.975  0.00  0.00    +0.000 OA
ATOM     27  C   UNL     1      48.102   5.580  19.065  0.00  0.00    +0.000 C 
ATOM     28  C   UNL     1      48.356   6.301  17.752  0.00  0.00    +0.000 C 
ENDBRANCH  21  23
ENDBRANCH   1  17
TORSDOF 4
ENDMDL
