MODEL 1
REMARK VINA RESULT:    -8.470      0.000      0.000
REMARK INTER + INTRA:         -11.050
REMARK INTER:                 -10.451
REMARK INTRA:                  -0.599
REMARK UNBOUND:                -0.599
REMARK  Name = 
REMARK  4 active torsions:
REMARK  status: ('A' for Active; 'I' for Inactive)
REMARK    1  A    between atoms: C_2  and  C_4
REMARK    2  A    between atoms: N_8  and  C_9
REMARK    3  A    between atoms: C_9  and  C_10
REMARK    4  A    between atoms: C_13  and  C_14
REMARK                            x       y       z     vdW  Elec       q    Type
REMARK                         _______ _______ _______ _____ _____    ______ ____
ROOT
ATOM      1  C   UNL     1      43.864   4.980  11.299  0.00  0.00    +0.000 C 
ATOM      2  C   UNL     1      42.550   5.145  12.059  0.00  0.00    +0.000 C 
ATOM      3  C   UNL     1      42.899   6.101  10.976  0.00  0.00    +0.000 C 
ATOM      4  F   UNL     1      43.218   7.388  11.374  0.00  0.00    +0.000 F 
ENDROOT
BRANCH   1   9
ATOM      5  C   UNL     1      46.516   2.694   7.438  0.00  0.00    +0.000 A 
ATOM      6  C   UNL     1      46.078   4.014   7.516  0.00  0.00    +0.000 A 
ATOM      7  C   UNL     1      45.251   4.399   8.575  0.00  0.00    +0.000 A 
ATOM      8  C   UNL     1      44.867   3.457   9.521  0.00  0.00    +0.000 A 
ATOM      9  N   UNL     1      43.945   3.714  10.538  0.00  0.00    +0.000 N 
ATOM     10  N   UNL     1      45.288   2.177   9.459  0.00  0.00    +0.000 NA
ATOM     11  C   UNL     1      46.097   1.821   8.426  0.00  0.00    +0.000 A 
ATOM     12  H   UNL     1      43.924   2.860  11.095  0.00  0.00    +0.000 HD
BRANCH   5  14
ATOM     13  N   UNL     1      47.449   2.947   5.205  0.00  0.00    +0.000 N 
ATOM     14  C   UNL     1      47.347   2.175   6.330  0.00  0.00    +0.000 C 
ATOM     15  O   UNL     1      47.938   1.110   6.421  0.00  0.00    +0.000 OA
ATOM     16  H   UNL     1      48.092   2.620   4.495  0.00  0.00    +0.000 HD
ATOM     17  H   UNL     1      47.178   3.919   5.178  0.00  0.00    +0.000 HD
ENDBRANCH   5  14
ENDBRANCH   1   9
BRANCH   1  18
ATOM     18  C   UNL     1      45.172   5.319  11.999  0.00  0.00    +0.000 A 
ATOM     19  C   UNL     1      46.056   6.291  11.515  0.00  0.00    +0.000 A 
ATOM     20  C   UNL     1      47.153   6.705  12.273  0.00  0.00    +0.000 A 
ATOM     21  C   UNL     1      47.364   6.140  13.530  0.00  0.00    +0.000 A 
ATOM     22  N   UNL     1      46.568   5.137  13.997  0.00  0.00    +0.000 NA
ATOM     23  C   UNL     1      45.515   4.761  13.231  0.00  0.00    +0.000 A 
BRANCH  21  24
ATOM     24  C   UNL     1      48.460   6.691  14.434  0.00  0.00    +0.000 C 
ATOM     25  F   UNL     1      48.165   7.925  14.946  0.00  0.00    +0.000 F 
ATOM     26  F   UNL     1      48.697   5.902  15.522  0.00  0.00    +0.000 F 
ATOM     27  F   UNL     1      49.661   6.838  13.805  0.00  0.00    +0.000 F 
ENDBRANCH  21  24
ENDBRANCH   1  18
TORSDOF 4
ENDMDL
MODEL 2
REMARK VINA RESULT:    -8.128      4.146      6.774
REMARK INTER + INTRA:         -10.628
REMARK INTER:                 -10.430
REMARK INTRA:                  -0.197
REMARK UNBOUND:                -0.599
REMARK  Name = 
REMARK  4 active torsions:
REMARK  status: ('A' for Active; 'I' for Inactive)
REMARK    1  A    between atoms: C_2  and  C_4
REMARK    2  A    between atoms: N_8  and  C_9
REMARK    3  A    between atoms: C_9  and  C_10
REMARK    4  A    between atoms: C_13  and  C_14
REMARK                            x       y       z     vdW  Elec       q    Type
REMARK                         _______ _______ _______ _____ _____    ______ ____
ROOT
ATOM      1  C   UNL     1      44.163   4.681  11.196  0.00  0.00    +0.000 C 
ATOM      2  C   UNL     1      42.648   4.782  11.361  0.00  0.00    +0.000 C 
ATOM      3  C   UNL     1      43.426   3.889  12.257  0.00  0.00    +0.000 C 
ATOM      4  F   UNL     1      43.251   2.528  12.069  0.00  0.00    +0.000 F 
ENDROOT
BRANCH   1   9
ATOM      5  C   UNL     1      48.385   6.607  13.571  0.00  0.00    +0.000 A 
ATOM      6  C   UNL     1      47.529   5.603  14.018  0.00  0.00    +0.000 A 
ATOM      7  C   UNL     1      46.362   5.326  13.300  0.00  0.00    +0.000 A 
ATOM      8  C   UNL     1      46.066   6.069  12.164  0.00  0.00    +0.000 A 
ATOM      9  N   UNL     1      44.867   5.955  11.457  0.00  0.00    +0.000 N 
ATOM     10  N   UNL     1      46.888   7.041  11.718  0.00  0.00    +0.000 NA
ATOM     11  C   UNL     1      48.022   7.292  12.424  0.00  0.00    +0.000 A 
ATOM     12  H   UNL     1      44.977   6.573  10.652  0.00  0.00    +0.000 HD
BRANCH   5  14
ATOM     13  N   UNL     1      50.513   7.784  13.605  0.00  0.00    +0.000 N 
ATOM     14  C   UNL     1      49.614   7.011  14.287  0.00  0.00    +0.000 C 
ATOM     15  O   UNL     1      49.810   6.688  15.448  0.00  0.00    +0.000 OA
ATOM     16  H   UNL     1      51.303   8.125  14.137  0.00  0.00    +0.000 HD
ATOM     17  H   UNL     1      50.288   8.261  12.744  0.00  0.00    +0.000 HD
ENDBRANCH   5  14
ENDBRANCH   1   9
BRANCH   1  18
ATOM     18  C   UNL     1      44.730   3.941   9.992  0.00  0.00    +0.000 A 
ATOM     19  C   UNL     1      45.284   4.606   8.892  0.00  0.00    +0.000 A 
ATOM     20  C   UNL     1      45.956   3.900   7.892  0.00  0.00    +0.000 A 
ATOM     21  C   UNL     1      46.074   2.515   7.997  0.00  0.00    +0.000 A 
ATOM     22  N   UNL     1      45.480   1.831   9.015  0.00  0.00    +0.000 NA
ATOM     23  C   UNL     1      44.833   2.551   9.965  0.00  0.00    +0.000 A 
BRANCH  21  24
ATOM     24  C   UNL     1      46.937   1.751   7.001  0.00  0.00    +0.000 C 
ATOM     25  F   UNL     1      46.676   2.081   5.699  0.00  0.00    +0.000 F 
ATOM     26  F   UNL     1      48.272   1.985   7.166  0.00  0.00    +0.000 F 
ATOM     27  F   UNL     1      46.779   0.398   7.069  0.00  0.00    +0.000 F 
ENDBRANCH  21  24
ENDBRANCH   1  18
TORSDOF 4
ENDMDL
MODEL 3
REMARK VINA RESULT:    -6.708      4.485      7.010
REMARK INTER + INTRA:          -8.875
REMARK INTER:                  -8.909
REMARK INTRA:                   0.034
REMARK UNBOUND:                -0.599
REMARK  Name = 
REMARK  4 active torsions:
REMARK  status: ('A' for Active; 'I' for Inactive)
REMARK    1  A    between atoms: C_2  and  C_4
REMARK    2  A    between atoms: N_8  and  C_9
REMARK    3  A    between atoms: C_9  and  C_10
REMARK    4  A    between atoms: C_13  and  C_14
REMARK                            x       y       z     vdW  Elec       q    Type
REMARK                         _______ _______ _______ _____ _____    ______ ____
ROOT
ATOM      1  C   UNL     1      44.150   4.511  11.395  0.00  0.00    +0.000 C 
ATOM      2  C   UNL     1      43.060   3.663  12.049  0.00  0.00    +0.000 C 
ATOM      3  C   UNL     1      44.430   3.671  12.624  0.00  0.00    +0.000 C 
ATOM      4  F   UNL     1      45.162   2.505  12.478  0.00  0.00    +0.000 F 
ENDROOT
BRANCH   1   9
ATOM      5  C   UNL     1      46.407   9.095  12.428  0.00  0.00    +0.000 A 
ATOM      6  C   UNL     1      46.557   7.889  13.109  0.00  0.00    +0.000 A 
ATOM      7  C   UNL     1      45.750   6.802  12.764  0.00  0.00    +0.000 A 
ATOM      8  C   UNL     1      44.800   6.947  11.761  0.00  0.00    +0.000 A 
ATOM      9  N   UNL     1      43.864   5.962  11.435  0.00  0.00    +0.000 N 
ATOM     10  N   UNL     1      44.647   8.107  11.091  0.00  0.00    +0.000 NA
ATOM     11  C   UNL     1      45.445   9.153  11.435  0.00  0.00    +0.000 A 
ATOM     12  H   UNL     1      43.359   6.336  10.631  0.00  0.00    +0.000 HD
BRANCH   5  14
ATOM     13  N   UNL     1      46.637  11.516  12.370  0.00  0.00    +0.000 N 
ATOM     14  C   UNL     1      47.173  10.317  12.753  0.00  0.00    +0.000 C 
ATOM     15  O   UNL     1      48.232  10.263  13.359  0.00  0.00    +0.000 OA
ATOM     16  H   UNL     1      47.129  12.345  12.679  0.00  0.00    +0.000 HD
ATOM     17  H   UNL     1      45.674  11.622  12.085  0.00  0.00    +0.000 HD
ENDBRANCH   5  14
ENDBRANCH   1   9
BRANCH   1  18
ATOM     18  C   UNL     1      44.730   4.071  10.059  0.00  0.00    +0.000 A 
ATOM     19  C   UNL     1      45.510   4.916   9.261  0.00  0.00    +0.000 A 
ATOM     20  C   UNL     1      46.175   4.427   8.135  0.00  0.00    +0.000 A 
ATOM     21  C   UNL     1      46.058   3.078   7.807  0.00  0.00    +0.000 A 
ATOM     22  N   UNL     1      45.245   2.246   8.518  0.00  0.00    +0.000 NA
ATOM     23  C   UNL     1      44.614   2.758   9.603  0.00  0.00    +0.000 A 
BRANCH  21  24
ATOM     24  C   UNL     1      46.900   2.497   6.678  0.00  0.00    +0.000 C 
ATOM     25  F   UNL     1      48.220   2.849   6.755  0.00  0.00    +0.000 F 
ATOM     26  F   UNL     1      46.898   1.131   6.663  0.00  0.00    +0.000 F 
ATOM     27  F   UNL     1      46.493   2.889   5.438  0.00  0.00    +0.000 F 
ENDBRANCH  21  24
ENDBRANCH   1  18
TORSDOF 4
ENDMDL
MODEL 4
REMARK VINA RESULT:    -6.577      3.980      6.978
REMARK INTER + INTRA:          -8.714
REMARK INTER:                  -8.198
REMARK INTRA:                  -0.516
REMARK UNBOUND:                -0.599
REMARK  Name = 
REMARK  4 active torsions:
REMARK  status: ('A' for Active; 'I' for Inactive)
REMARK    1  A    between atoms: C_2  and  C_4
REMARK    2  A    between atoms: N_8  and  C_9
REMARK    3  A    between atoms: C_9  and  C_10
REMARK    4  A    between atoms: C_13  and  C_14
REMARK                            x       y       z     vdW  Elec       q    Type
REMARK                         _______ _______ _______ _____ _____    ______ ____
ROOT
ATOM      1  C   UNL     1      44.237   5.562  11.453  0.00  0.00    +0.000 C 
ATOM      2  C   UNL     1      42.936   6.257  11.057  0.00  0.00    +0.000 C 
ATOM      3  C   UNL     1      42.891   5.058  11.933  0.00  0.00    +0.000 C 
ATOM      4  F   UNL     1      42.373   3.905  11.368  0.00  0.00    +0.000 F 
ENDROOT
BRANCH   1   9
ATOM      5  C   UNL     1      47.897   5.297  15.156  0.00  0.00    +0.000 A 
ATOM      6  C   UNL     1      46.717   4.562  15.058  0.00  0.00    +0.000 A 
ATOM      7  C   UNL     1      45.790   4.884  14.062  0.00  0.00    +0.000 A 
ATOM      8  C   UNL     1      46.052   5.941  13.200  0.00  0.00    +0.000 A 
ATOM      9  N   UNL     1      45.134   6.417  12.260  0.00  0.00    +0.000 N 
ATOM     10  N   UNL     1      47.192   6.657  13.281  0.00  0.00    +0.000 NA
ATOM     11  C   UNL     1      48.086   6.327  14.250  0.00  0.00    +0.000 A 
ATOM     12  H   UNL     1      45.637   7.141  11.746  0.00  0.00    +0.000 HD
BRANCH   5  14
ATOM     13  N   UNL     1      48.676   4.071  17.107  0.00  0.00    +0.000 N 
ATOM     14  C   UNL     1      48.914   5.072  16.205  0.00  0.00    +0.000 C 
ATOM     15  O   UNL     1      49.938   5.736  16.254  0.00  0.00    +0.000 OA
ATOM     16  H   UNL     1      49.422   3.872  17.761  0.00  0.00    +0.000 HD
ATOM     17  H   UNL     1      47.975   3.358  16.965  0.00  0.00    +0.000 HD
ENDBRANCH   5  14
ENDBRANCH   1   9
BRANCH   1  18
ATOM     18  C   UNL     1      44.992   4.752  10.410  0.00  0.00    +0.000 A 
ATOM     19  C   UNL     1      44.927   3.354  10.348  0.00  0.00    +0.000 A 
ATOM     20  C   UNL     1      45.482   2.657   9.274  0.00  0.00    +0.000 A 
ATOM     21  C   UNL     1      46.108   3.367   8.251  0.00  0.00    +0.000 A 
ATOM     22  N   UNL     1      46.257   4.720   8.319  0.00  0.00    +0.000 NA
ATOM     23  C   UNL     1      45.707   5.362   9.379  0.00  0.00    +0.000 A 
BRANCH  21  24
ATOM     24  C   UNL     1      46.578   2.637   6.999  0.00  0.00    +0.000 C 
ATOM     25  F   UNL     1      46.372   1.285   7.056  0.00  0.00    +0.000 F 
ATOM     26  F   UNL     1      45.931   3.049   5.870  0.00  0.00    +0.000 F 
ATOM     27  F   UNL     1      47.910   2.788   6.749  0.00  0.00    +0.000 F 
ENDBRANCH  21  24
ENDBRANCH   1  18
TORSDOF 4
ENDMDL
MODEL 5
REMARK VINA RESULT:    -5.998      3.329      4.870
REMARK INTER + INTRA:          -8.000
REMARK INTER:                  -7.527
REMARK INTRA:                  -0.473
REMARK UNBOUND:                -0.599
REMARK  Name = 
REMARK  4 active torsions:
REMARK  status: ('A' for Active; 'I' for Inactive)
REMARK    1  A    between atoms: C_2  and  C_4
REMARK    2  A    between atoms: N_8  and  C_9
REMARK    3  A    between atoms: C_9  and  C_10
REMARK    4  A    between atoms: C_13  and  C_14
REMARK                            x       y       z     vdW  Elec       q    Type
REMARK                         _______ _______ _______ _____ _____    ______ ____
ROOT
ATOM      1  C   UNL     1      47.013   8.530  12.970  0.00  0.00    +0.000 C 
ATOM      2  C   UNL     1      46.941  10.000  12.561  0.00  0.00    +0.000 C 
ATOM      3  C   UNL     1      47.630   9.025  11.678  0.00  0.00    +0.000 C 
ATOM      4  F   UNL     1      49.008   9.136  11.599  0.00  0.00    +0.000 F 
ENDROOT
BRANCH   1   9
ATOM      5  C   UNL     1      44.476   4.209  11.535  0.00  0.00    +0.000 A 
ATOM      6  C   UNL     1      45.395   4.951  10.798  0.00  0.00    +0.000 A 
ATOM      7  C   UNL     1      45.859   6.167  11.307  0.00  0.00    +0.000 A 
ATOM      8  C   UNL     1      45.382   6.624  12.529  0.00  0.00    +0.000 A 
ATOM      9  N   UNL     1      45.687   7.881  13.057  0.00  0.00    +0.000 N 
ATOM     10  N   UNL     1      44.496   5.913  13.255  0.00  0.00    +0.000 NA
ATOM     11  C   UNL     1      44.060   4.728  12.749  0.00  0.00    +0.000 A 
ATOM     12  H   UNL     1      45.248   7.892  13.978  0.00  0.00    +0.000 HD
BRANCH   5  14
ATOM     13  N   UNL     1      44.427   2.373   9.940  0.00  0.00    +0.000 N 
ATOM     14  C   UNL     1      43.885   2.938  11.062  0.00  0.00    +0.000 C 
ATOM     15  O   UNL     1      42.965   2.402  11.658  0.00  0.00    +0.000 OA
ATOM     16  H   UNL     1      44.071   1.462   9.682  0.00  0.00    +0.000 HD
ATOM     17  H   UNL     1      45.321   2.651   9.560  0.00  0.00    +0.000 HD
ENDBRANCH   5  14
ENDBRANCH   1   9
BRANCH   1  18
ATOM     18  C   UNL     1      47.934   8.123  14.111  0.00  0.00    +0.000 A 
ATOM     19  C   UNL     1      48.027   8.854  15.302  0.00  0.00    +0.000 A 
ATOM     20  C   UNL     1      48.739   8.357  16.395  0.00  0.00    +0.000 A 
ATOM     21  C   UNL     1      49.363   7.114  16.293  0.00  0.00    +0.000 A 
ATOM     22  N   UNL     1      49.357   6.414  15.124  0.00  0.00    +0.000 NA
ATOM     23  C   UNL     1      48.657   6.931  14.084  0.00  0.00    +0.000 A 
BRANCH  21  24
ATOM     24  C   UNL     1      50.009   6.488  17.523  0.00  0.00    +0.000 C 
ATOM     25  F   UNL     1      50.818   7.355  18.206  0.00  0.00    +0.000 F 
ATOM     26  F   UNL     1      49.095   6.058  18.441  0.00  0.00    +0.000 F 
ATOM     27  F   UNL     1      50.793   5.410  17.237  0.00  0.00    +0.000 F 
ENDBRANCH  21  24
ENDBRANCH   1  18
TORSDOF 4
ENDMDL
MODEL 6
REMARK VINA RESULT:    -5.708      4.457      8.332
REMARK INTER + INTRA:          -7.641
REMARK INTER:                  -7.625
REMARK INTRA:                  -0.016
REMARK UNBOUND:                -0.599
REMARK  Name = 
REMARK  4 active torsions:
REMARK  status: ('A' for Active; 'I' for Inactive)
REMARK    1  A    between atoms: C_2  and  C_4
REMARK    2  A    between atoms: N_8  and  C_9
REMARK    3  A    between atoms: C_9  and  C_10
REMARK    4  A    between atoms: C_13  and  C_14
REMARK                            x       y       z     vdW  Elec       q    Type
REMARK                         _______ _______ _______ _____ _____    ______ ____
ROOT
ATOM      1  C   UNL     1      47.809   7.051  13.748  0.00  0.00    +0.000 C 
ATOM      2  C   UNL     1      48.580   8.191  13.087  0.00  0.00    +0.000 C 
ATOM      3  C   UNL     1      47.547   8.499  14.109  0.00  0.00    +0.000 C 
ATOM      4  F   UNL     1      46.388   9.100  13.648  0.00  0.00    +0.000 F 
ENDROOT
BRANCH   1   9
ATOM      5  C   UNL     1      48.707   5.509  18.646  0.00  0.00    +0.000 A 
ATOM      6  C   UNL     1      48.432   6.794  18.185  0.00  0.00    +0.000 A 
ATOM      7  C   UNL     1      48.364   7.030  16.810  0.00  0.00    +0.000 A 
ATOM      8  C   UNL     1      48.589   5.983  15.925  0.00  0.00    +0.000 A 
ATOM      9  N   UNL     1      48.669   6.145  14.540  0.00  0.00    +0.000 N 
ATOM     10  N   UNL     1      48.851   4.733  16.357  0.00  0.00    +0.000 NA
ATOM     11  C   UNL     1      48.906   4.520  17.699  0.00  0.00    +0.000 A 
ATOM     12  H   UNL     1      48.774   5.199  14.171  0.00  0.00    +0.000 HD
BRANCH   5  14
ATOM     13  N   UNL     1      48.564   3.884  20.450  0.00  0.00    +0.000 N 
ATOM     14  C   UNL     1      48.852   5.168  20.077  0.00  0.00    +0.000 C 
ATOM     15  O   UNL     1      49.236   5.992  20.893  0.00  0.00    +0.000 OA
ATOM     16  H   UNL     1      48.755   3.645  21.415  0.00  0.00    +0.000 HD
ATOM     17  H   UNL     1      48.475   3.125  19.790  0.00  0.00    +0.000 HD
ENDBRANCH   5  14
ENDBRANCH   1   9
BRANCH   1  18
ATOM     18  C   UNL     1      46.762   6.298  12.940  0.00  0.00    +0.000 A 
ATOM     19  C   UNL     1      46.499   6.584  11.595  0.00  0.00    +0.000 A 
ATOM     20  C   UNL     1      45.667   5.758  10.836  0.00  0.00    +0.000 A 
ATOM     21  C   UNL     1      45.095   4.635  11.431  0.00  0.00    +0.000 A 
ATOM     22  N   UNL     1      45.269   4.372  12.757  0.00  0.00    +0.000 NA
ATOM     23  C   UNL     1      46.081   5.198  13.461  0.00  0.00    +0.000 A 
BRANCH  21  24
ATOM     24  C   UNL     1      44.316   3.641  10.579  0.00  0.00    +0.000 C 
ATOM     25  F   UNL     1      43.845   4.183   9.414  0.00  0.00    +0.000 F 
ATOM     26  F   UNL     1      45.067   2.568  10.194  0.00  0.00    +0.000 F 
ATOM     27  F   UNL     1      43.219   3.128  11.207  0.00  0.00    +0.000 F 
ENDBRANCH  21  24
ENDBRANCH   1  18
TORSDOF 4
ENDMDL
MODEL 7
REMARK VINA RESULT:    -5.605      4.860      8.204
REMARK INTER + INTRA:          -7.514
REMARK INTER:                  -6.966
REMARK INTRA:                  -0.549
REMARK UNBOUND:                -0.599
REMARK  Name = 
REMARK  4 active torsions:
REMARK  status: ('A' for Active; 'I' for Inactive)
REMARK    1  A    between atoms: C_2  and  C_4
REMARK    2  A    between atoms: N_8  and  C_9
REMARK    3  A    between atoms: C_9  and  C_10
REMARK    4  A    between atoms: C_13  and  C_14
REMARK                            x       y       z     vdW  Elec       q    Type
REMARK                         _______ _______ _______ _____ _____    ______ ____
ROOT
ATOM      1  C   UNL     1      48.255   7.798  12.524  0.00  0.00    +0.000 C 
ATOM      2  C   UNL     1      49.162   8.285  11.396  0.00  0.00    +0.000 C 
ATOM      3  C   UNL     1      48.521   9.272  12.302  0.00  0.00    +0.000 C 
ATOM      4  F   UNL     1      47.520  10.053  11.750  0.00  0.00    +0.000 F 
ENDROOT
BRANCH   1   9
ATOM      5  C   UNL     1      48.685   7.098  17.672  0.00  0.00    +0.000 A 
ATOM      6  C   UNL     1      48.581   8.298  16.972  0.00  0.00    +0.000 A 
ATOM      7  C   UNL     1      48.622   8.283  15.576  0.00  0.00    +0.000 A 
ATOM      8  C   UNL     1      48.783   7.075  14.909  0.00  0.00    +0.000 A 
ATOM      9  N   UNL     1      48.962   6.972  13.528  0.00  0.00    +0.000 N 
ATOM     10  N   UNL     1      48.880   5.906  15.574  0.00  0.00    +0.000 NA
ATOM     11  C   UNL     1      48.832   5.938  16.932  0.00  0.00    +0.000 A 
ATOM     12  H   UNL     1      48.985   5.970  13.340  0.00  0.00    +0.000 HD
BRANCH   5  14
ATOM     13  N   UNL     1      49.229   5.877  19.704  0.00  0.00    +0.000 N 
ATOM     14  C   UNL     1      48.707   7.013  19.148  0.00  0.00    +0.000 C 
ATOM     15  O   UNL     1      48.297   7.928  19.846  0.00  0.00    +0.000 OA
ATOM     16  H   UNL     1      49.319   5.874  20.712  0.00  0.00    +0.000 HD
ATOM     17  H   UNL     1      49.784   5.213  19.183  0.00  0.00    +0.000 HD
ENDBRANCH   5  14
ENDBRANCH   1   9
BRANCH   1  18
ATOM     18  C   UNL     1      46.880   7.243  12.183  0.00  0.00    +0.000 A 
ATOM     19  C   UNL     1      46.688   6.240  11.225  0.00  0.00    +0.000 A 
ATOM     20  C   UNL     1      45.444   5.628  11.066  0.00  0.00    +0.000 A 
ATOM     21  C   UNL     1      44.381   6.024  11.878  0.00  0.00    +0.000 A 
ATOM     22  N   UNL     1      44.515   7.049  12.766  0.00  0.00    +0.000 NA
ATOM     23  C   UNL     1      45.738   7.621  12.889  0.00  0.00    +0.000 A 
BRANCH  21  24
ATOM     24  C   UNL     1      43.064   5.261  11.827  0.00  0.00    +0.000 C 
ATOM     25  F   UNL     1      42.973   4.415  10.754  0.00  0.00    +0.000 F 
ATOM     26  F   UNL     1      42.867   4.469  12.921  0.00  0.00    +0.000 F 
ATOM     27  F   UNL     1      41.969   6.069  11.743  0.00  0.00    +0.000 F 
ENDBRANCH  21  24
ENDBRANCH   1  18
TORSDOF 4
ENDMDL
MODEL 8
REMARK VINA RESULT:    -5.553      5.941      7.906
REMARK INTER + INTRA:          -7.450
REMARK INTER:                  -6.835
REMARK INTRA:                  -0.615
REMARK UNBOUND:                -0.599
REMARK  Name = 
REMARK  4 active torsions:
REMARK  status: ('A' for Active; 'I' for Inactive)
REMARK    1  A    between atoms: C_2  and  C_4
REMARK    2  A    between atoms: N_8  and  C_9
REMARK    3  A    between atoms: C_9  and  C_10
REMARK    4  A    between atoms: C_13  and  C_14
REMARK                            x       y       z     vdW  Elec       q    Type
REMARK                         _______ _______ _______ _____ _____    ______ ____
ROOT
ATOM      1  C   UNL     1      48.352   5.335  17.494  0.00  0.00    +0.000 C 
ATOM      2  C   UNL     1      47.303   5.228  18.599  0.00  0.00    +0.000 C 
ATOM      3  C   UNL     1      48.378   6.248  18.703  0.00  0.00    +0.000 C 
ATOM      4  F   UNL     1      49.335   6.032  19.679  0.00  0.00    +0.000 F 
ENDROOT
BRANCH   1   9
ATOM      5  C   UNL     1      49.675   7.503  12.942  0.00  0.00    +0.000 A 
ATOM      6  C   UNL     1      50.079   7.875  14.222  0.00  0.00    +0.000 A 
ATOM      7  C   UNL     1      49.497   7.257  15.332  0.00  0.00    +0.000 A 
ATOM      8  C   UNL     1      48.513   6.296  15.141  0.00  0.00    +0.000 A 
ATOM      9  N   UNL     1      47.784   5.717  16.183  0.00  0.00    +0.000 N 
ATOM     10  N   UNL     1      48.115   5.922  13.907  0.00  0.00    +0.000 NA
ATOM     11  C   UNL     1      48.698   6.528  12.838  0.00  0.00    +0.000 A 
ATOM     12  H   UNL     1      47.196   5.015  15.733  0.00  0.00    +0.000 HD
BRANCH   5  14
ATOM     13  N   UNL     1      51.110   7.429  10.979  0.00  0.00    +0.000 N 
ATOM     14  C   UNL     1      50.191   8.133  11.707  0.00  0.00    +0.000 C 
ATOM     15  O   UNL     1      49.797   9.228  11.338  0.00  0.00    +0.000 OA
ATOM     16  H   UNL     1      51.384   7.834  10.094  0.00  0.00    +0.000 HD
ATOM     17  H   UNL     1      51.283   6.443  11.116  0.00  0.00    +0.000 HD
ENDBRANCH   5  14
ENDBRANCH   1   9
BRANCH   1  18
ATOM     18  C   UNL     1      49.413   4.252  17.373  0.00  0.00    +0.000 A 
ATOM     19  C   UNL     1      50.768   4.491  17.633  0.00  0.00    +0.000 A 
ATOM     20  C   UNL     1      51.684   3.440  17.690  0.00  0.00    +0.000 A 
ATOM     21  C   UNL     1      51.238   2.135  17.485  0.00  0.00    +0.000 A 
ATOM     22  N   UNL     1      49.941   1.876  17.153  0.00  0.00    +0.000 NA
ATOM     23  C   UNL     1      49.082   2.924  17.105  0.00  0.00    +0.000 A 
BRANCH  21  24
ATOM     24  C   UNL     1      52.191   0.966  17.698  0.00  0.00    +0.000 C 
ATOM     25  F   UNL     1      52.714   0.479  16.532  0.00  0.00    +0.000 F 
ATOM     26  F   UNL     1      53.273   1.296  18.463  0.00  0.00    +0.000 F 
ATOM     27  F   UNL     1      51.610  -0.106  18.308  0.00  0.00    +0.000 F 
ENDBRANCH  21  24
ENDBRANCH   1  18
TORSDOF 4
ENDMDL
