MODEL 1
REMARK VINA RESULT:    -8.121      0.000      0.000
REMARK INTER + INTRA:         -12.299
REMARK INTER:                 -11.206
REMARK INTRA:                  -1.092
REMARK UNBOUND:                -1.092
REMARK  Name = 
REMARK  7 active torsions:
REMARK  status: ('A' for Active; 'I' for Inactive)
REMARK    1  A    between atoms: C_2  and  C_20
REMARK    2  A    between atoms: N_3  and  C_4
REMARK    3  A    between atoms: C_4  and  C_5
REMARK    4  A    between atoms: C_8  and  C_9
REMARK    5  A    between atoms: C_9  and  C_10
REMARK    6  A    between atoms: C_10  and  O_11
REMARK    7  A    between atoms: C_10  and  C_12
REMARK                            x       y       z     vdW  Elec       q    Type
REMARK                         _______ _______ _______ _____ _____    ______ ____
ROOT
ATOM      1  C   UNL     1      46.301   7.724  12.864  0.00  0.00    +0.000 C 
ENDROOT
BRANCH   1   2
ATOM      2  C   UNL     1      45.754   6.668  11.933  0.00  0.00    +0.000 A 
ATOM      3  C   UNL     1      44.724   5.831  12.351  0.00  0.00    +0.000 A 
ATOM      4  C   UNL     1      44.266   4.843  11.483  0.00  0.00    +0.000 A 
ATOM      5  C   UNL     1      44.852   4.693  10.224  0.00  0.00    +0.000 A 
ATOM      6  C   UNL     1      45.881   5.570   9.900  0.00  0.00    +0.000 A 
ATOM      7  N   UNL     1      46.341   6.545  10.716  0.00  0.00    +0.000 NA
BRANCH   5   8
ATOM      8  C   UNL     1      44.366   3.640   9.256  0.00  0.00    +0.000 C 
BRANCH   8   9
ATOM      9  C   UNL     1      45.252   2.380   9.209  0.00  0.00    +0.000 C 
BRANCH   9  10
ATOM     10  C   UNL     1      46.115   2.367   7.964  0.00  0.00    +0.000 A 
ATOM     11  C   UNL     1      46.984   1.311   7.705  0.00  0.00    +0.000 A 
ATOM     12  N   UNL     1      47.742   1.239   6.584  0.00  0.00    +0.000 NA
ATOM     13  C   UNL     1      47.593   2.263   5.717  0.00  0.00    +0.000 A 
ATOM     14  C   UNL     1      46.723   3.315   5.957  0.00  0.00    +0.000 A 
ATOM     15  N   UNL     1      45.964   3.390   7.077  0.00  0.00    +0.000 NA
ENDBRANCH   9  10
BRANCH   9  16
ATOM     16  O   UNL     1      44.418   1.215   9.184  0.00  0.00    +0.000 OA
ATOM     17  H   UNL     1      44.581   0.792   8.319  0.00  0.00    +0.000 HD
ENDBRANCH   9  16
ENDBRANCH   8   9
ENDBRANCH   5   8
ENDBRANCH   1   2
BRANCH   1  20
ATOM     18  O   UNL     1      48.916   6.728  13.041  0.00  0.00    +0.000 OA
ATOM     19  C   UNL     1      48.216   6.724  14.051  0.00  0.00    +0.000 C 
ATOM     20  N   UNL     1      46.911   7.137  14.037  0.00  0.00    +0.000 N 
ATOM     21  H   UNL     1      46.449   7.357  14.914  0.00  0.00    +0.000 HD
BRANCH  19  22
ATOM     22  C   UNL     1      48.725   6.212  15.331  0.00  0.00    +0.000 A 
ATOM     23  C   UNL     1      49.787   6.848  15.956  0.00  0.00    +0.000 A 
ATOM     24  S   UNL     1      50.267   6.106  17.412  0.00  0.00    +0.000 S 
ATOM     25  C   UNL     1      49.036   4.938  17.287  0.00  0.00    +0.000 A 
ATOM     26  N   UNL     1      48.869   3.992  18.251  0.00  0.00    +0.000 NA
ATOM     27  C   UNL     1      47.870   3.199  18.051  0.00  0.00    +0.000 A 
ATOM     28  N   UNL     1      47.029   3.260  16.971  0.00  0.00    +0.000 N 
ATOM     29  C   UNL     1      47.205   4.148  15.938  0.00  0.00    +0.000 A 
ATOM     30  O   UNL     1      46.511   4.098  14.929  0.00  0.00    +0.000 OA
ATOM     31  C   UNL     1      48.288   5.093  16.134  0.00  0.00    +0.000 A 
ATOM     32  H   UNL     1      46.279   2.595  16.856  0.00  0.00    +0.000 HD
ENDBRANCH  19  22
ENDBRANCH   1  20
TORSDOF 7
ENDMDL
MODEL 2
REMARK VINA RESULT:    -7.712      2.530      3.277
REMARK INTER + INTRA:         -11.734
REMARK INTER:                 -10.802
REMARK INTRA:                  -0.932
REMARK UNBOUND:                -1.092
REMARK  Name = 
REMARK  7 active torsions:
REMARK  status: ('A' for Active; 'I' for Inactive)
REMARK    1  A    between atoms: C_2  and  C_20
REMARK    2  A    between atoms: N_3  and  C_4
REMARK    3  A    between atoms: C_4  and  C_5
REMARK    4  A    between atoms: C_8  and  C_9
REMARK    5  A    between atoms: C_9  and  C_10
REMARK    6  A    between atoms: C_10  and  O_11
REMARK    7  A    between atoms: C_10  and  C_12
REMARK                            x       y       z     vdW  Elec       q    Type
REMARK                         _______ _______ _______ _____ _____    ______ ____
ROOT
ATOM      1  C   UNL     1      46.744   4.478  15.781  0.00  0.00    +0.000 C 
ENDROOT
BRANCH   1   2
ATOM      2  C   UNL     1      46.495   4.700  14.309  0.00  0.00    +0.000 A 
ATOM      3  C   UNL     1      47.018   5.821  13.671  0.00  0.00    +0.000 A 
ATOM      4  C   UNL     1      46.741   6.019  12.321  0.00  0.00    +0.000 A 
ATOM      5  C   UNL     1      45.934   5.108  11.634  0.00  0.00    +0.000 A 
ATOM      6  C   UNL     1      45.450   4.024  12.358  0.00  0.00    +0.000 A 
ATOM      7  N   UNL     1      45.710   3.800  13.666  0.00  0.00    +0.000 NA
BRANCH   5   8
ATOM      8  C   UNL     1      45.628   5.288  10.166  0.00  0.00    +0.000 C 
BRANCH   8   9
ATOM      9  C   UNL     1      44.795   4.144   9.557  0.00  0.00    +0.000 C 
BRANCH   9  10
ATOM     10  C   UNL     1      45.643   3.272   8.655  0.00  0.00    +0.000 A 
ATOM     11  C   UNL     1      45.680   1.891   8.822  0.00  0.00    +0.000 A 
ATOM     12  N   UNL     1      46.392   1.070   8.012  0.00  0.00    +0.000 NA
ATOM     13  C   UNL     1      47.064   1.681   7.014  0.00  0.00    +0.000 A 
ATOM     14  C   UNL     1      47.028   3.054   6.830  0.00  0.00    +0.000 A 
ATOM     15  N   UNL     1      46.317   3.878   7.638  0.00  0.00    +0.000 NA
ENDBRANCH   9  10
BRANCH   9  16
ATOM     16  O   UNL     1      43.734   4.697   8.769  0.00  0.00    +0.000 OA
ATOM     17  H   UNL     1      44.053   5.572   8.475  0.00  0.00    +0.000 HD
ENDBRANCH   9  16
ENDBRANCH   8   9
ENDBRANCH   5   8
ENDBRANCH   1   2
BRANCH   1  20
ATOM     18  O   UNL     1      48.145   5.623  17.922  0.00  0.00    +0.000 OA
ATOM     19  C   UNL     1      48.746   4.863  17.167  0.00  0.00    +0.000 C 
ATOM     20  N   UNL     1      48.152   4.309  16.065  0.00  0.00    +0.000 N 
ATOM     21  H   UNL     1      48.585   3.508  15.617  0.00  0.00    +0.000 HD
BRANCH  19  22
ATOM     22  C   UNL     1      50.168   4.551  17.368  0.00  0.00    +0.000 A 
ATOM     23  C   UNL     1      51.076   5.578  17.582  0.00  0.00    +0.000 A 
ATOM     24  S   UNL     1      52.682   5.042  17.765  0.00  0.00    +0.000 S 
ATOM     25  C   UNL     1      52.214   3.413  17.619  0.00  0.00    +0.000 A 
ATOM     26  N   UNL     1      53.130   2.410  17.716  0.00  0.00    +0.000 NA
ATOM     27  C   UNL     1      52.629   1.223  17.631  0.00  0.00    +0.000 A 
ATOM     28  N   UNL     1      51.300   0.947  17.449  0.00  0.00    +0.000 N 
ATOM     29  C   UNL     1      50.353   1.926  17.272  0.00  0.00    +0.000 A 
ATOM     30  O   UNL     1      49.193   1.647  16.990  0.00  0.00    +0.000 OA
ATOM     31  C   UNL     1      50.855   3.281  17.403  0.00  0.00    +0.000 A 
ATOM     32  H   UNL     1      50.971  -0.003  17.365  0.00  0.00    +0.000 HD
ENDBRANCH  19  22
ENDBRANCH   1  20
TORSDOF 7
ENDMDL
MODEL 3
REMARK VINA RESULT:    -7.611      2.701      3.861
REMARK INTER + INTRA:         -11.596
REMARK INTER:                 -10.751
REMARK INTRA:                  -0.845
REMARK UNBOUND:                -1.092
REMARK  Name = 
REMARK  7 active torsions:
REMARK  status: ('A' for Active; 'I' for Inactive)
REMARK    1  A    between atoms: C_2  and  C_20
REMARK    2  A    between atoms: N_3  and  C_4
REMARK    3  A    between atoms: C_4  and  C_5
REMARK    4  A    between atoms: C_8  and  C_9
REMARK    5  A    between atoms: C_9  and  C_10
REMARK    6  A    between atoms: C_10  and  O_11
REMARK    7  A    between atoms: C_10  and  C_12
REMARK                            x       y       z     vdW  Elec       q    Type
REMARK                         _______ _______ _______ _____ _____    ______ ____
ROOT
ATOM      1  C   UNL     1      47.504   3.930  15.651  0.00  0.00    +0.000 C 
ENDROOT
BRANCH   1   2
ATOM      2  C   UNL     1      46.964   4.343  14.302  0.00  0.00    +0.000 A 
ATOM      3  C   UNL     1      47.213   5.621  13.810  0.00  0.00    +0.000 A 
ATOM      4  C   UNL     1      46.672   5.985  12.580  0.00  0.00    +0.000 A 
ATOM      5  C   UNL     1      45.879   5.079  11.871  0.00  0.00    +0.000 A 
ATOM      6  C   UNL     1      45.679   3.831  12.448  0.00  0.00    +0.000 A 
ATOM      7  N   UNL     1      46.199   3.444  13.634  0.00  0.00    +0.000 NA
BRANCH   5   8
ATOM      8  C   UNL     1      45.290   5.442  10.527  0.00  0.00    +0.000 C 
BRANCH   8   9
ATOM      9  C   UNL     1      44.527   4.288   9.848  0.00  0.00    +0.000 C 
BRANCH   9  10
ATOM     10  C   UNL     1      45.418   3.540   8.880  0.00  0.00    +0.000 A 
ATOM     11  C   UNL     1      45.553   2.157   8.952  0.00  0.00    +0.000 A 
ATOM     12  N   UNL     1      46.307   1.444   8.079  0.00  0.00    +0.000 NA
ATOM     13  C   UNL     1      46.918   2.166   7.117  0.00  0.00    +0.000 A 
ATOM     14  C   UNL     1      46.784   3.542   7.027  0.00  0.00    +0.000 A 
ATOM     15  N   UNL     1      46.031   4.258   7.898  0.00  0.00    +0.000 NA
ENDBRANCH   9  10
BRANCH   9  16
ATOM     16  O   UNL     1      43.419   4.821   9.112  0.00  0.00    +0.000 OA
ATOM     17  H   UNL     1      42.691   4.181   9.230  0.00  0.00    +0.000 HD
ENDBRANCH   9  16
ENDBRANCH   8   9
ENDBRANCH   5   8
ENDBRANCH   1   2
BRANCH   1  20
ATOM     18  O   UNL     1      49.702   5.325  16.688  0.00  0.00    +0.000 OA
ATOM     19  C   UNL     1      48.573   5.681  17.017  0.00  0.00    +0.000 C 
ATOM     20  N   UNL     1      47.449   5.017  16.603  0.00  0.00    +0.000 N 
ATOM     21  H   UNL     1      46.546   5.473  16.680  0.00  0.00    +0.000 HD
BRANCH  19  22
ATOM     22  C   UNL     1      48.363   6.810  17.933  0.00  0.00    +0.000 A 
ATOM     23  C   UNL     1      48.255   6.581  19.298  0.00  0.00    +0.000 A 
ATOM     24  S   UNL     1      47.985   7.995  20.208  0.00  0.00    +0.000 S 
ATOM     25  C   UNL     1      48.056   8.972  18.816  0.00  0.00    +0.000 A 
ATOM     26  N   UNL     1      47.927  10.324  18.903  0.00  0.00    +0.000 NA
ATOM     27  C   UNL     1      48.046  10.943  17.776  0.00  0.00    +0.000 A 
ATOM     28  N   UNL     1      48.275  10.333  16.571  0.00  0.00    +0.000 N 
ATOM     29  C   UNL     1      48.337   8.969  16.425  0.00  0.00    +0.000 A 
ATOM     30  O   UNL     1      48.421   8.449  15.318  0.00  0.00    +0.000 OA
ATOM     31  C   UNL     1      48.254   8.226  17.668  0.00  0.00    +0.000 A 
ATOM     32  H   UNL     1      48.334  10.870  15.718  0.00  0.00    +0.000 HD
ENDBRANCH  19  22
ENDBRANCH   1  20
TORSDOF 7
ENDMDL
MODEL 4
REMARK VINA RESULT:    -7.472      2.472      3.911
REMARK INTER + INTRA:         -11.404
REMARK INTER:                 -10.929
REMARK INTRA:                  -0.475
REMARK UNBOUND:                -1.092
REMARK  Name = 
REMARK  7 active torsions:
REMARK  status: ('A' for Active; 'I' for Inactive)
REMARK    1  A    between atoms: C_2  and  C_20
REMARK    2  A    between atoms: N_3  and  C_4
REMARK    3  A    between atoms: C_4  and  C_5
REMARK    4  A    between atoms: C_8  and  C_9
REMARK    5  A    between atoms: C_9  and  C_10
REMARK    6  A    between atoms: C_10  and  O_11
REMARK    7  A    between atoms: C_10  and  C_12
REMARK                            x       y       z     vdW  Elec       q    Type
REMARK                         _______ _______ _______ _____ _____    ______ ____
ROOT
ATOM      1  C   UNL     1      46.883   4.765  14.758  0.00  0.00    +0.000 C 
ENDROOT
BRANCH   1   2
ATOM      2  C   UNL     1      46.171   4.569  13.440  0.00  0.00    +0.000 A 
ATOM      3  C   UNL     1      45.797   5.670  12.677  0.00  0.00    +0.000 A 
ATOM      4  C   UNL     1      45.109   5.460  11.484  0.00  0.00    +0.000 A 
ATOM      5  C   UNL     1      44.791   4.160  11.082  0.00  0.00    +0.000 A 
ATOM      6  C   UNL     1      45.199   3.125  11.916  0.00  0.00    +0.000 A 
ATOM      7  N   UNL     1      45.877   3.297  13.073  0.00  0.00    +0.000 NA
BRANCH   5   8
ATOM      8  C   UNL     1      44.059   3.900   9.787  0.00  0.00    +0.000 C 
BRANCH   8   9
ATOM      9  C   UNL     1      44.871   4.257   8.527  0.00  0.00    +0.000 C 
BRANCH   9  10
ATOM     10  C   UNL     1      45.778   3.114   8.121  0.00  0.00    +0.000 A 
ATOM     11  C   UNL     1      45.522   1.812   8.541  0.00  0.00    +0.000 A 
ATOM     12  N   UNL     1      46.283   0.755   8.166  0.00  0.00    +0.000 NA
ATOM     13  C   UNL     1      47.312   1.045   7.342  0.00  0.00    +0.000 A 
ATOM     14  C   UNL     1      47.572   2.335   6.908  0.00  0.00    +0.000 A 
ATOM     15  N   UNL     1      46.813   3.394   7.280  0.00  0.00    +0.000 NA
ENDBRANCH   9  10
BRANCH   9  16
ATOM     16  O   UNL     1      45.691   5.400   8.800  0.00  0.00    +0.000 OA
ATOM     17  H   UNL     1      46.266   5.140   9.546  0.00  0.00    +0.000 HD
ENDBRANCH   9  16
ENDBRANCH   8   9
ENDBRANCH   5   8
ENDBRANCH   1   2
BRANCH   1  20
ATOM     18  O   UNL     1      49.149   5.359  16.298  0.00  0.00    +0.000 OA
ATOM     19  C   UNL     1      48.701   6.227  15.552  0.00  0.00    +0.000 C 
ATOM     20  N   UNL     1      47.565   6.039  14.812  0.00  0.00    +0.000 N 
ATOM     21  H   UNL     1      47.369   6.662  14.035  0.00  0.00    +0.000 HD
BRANCH  19  22
ATOM     22  C   UNL     1      49.329   7.553  15.459  0.00  0.00    +0.000 A 
ATOM     23  C   UNL     1      49.572   8.284  16.613  0.00  0.00    +0.000 A 
ATOM     24  S   UNL     1      50.275   9.807  16.321  0.00  0.00    +0.000 S 
ATOM     25  C   UNL     1      50.329   9.523  14.644  0.00  0.00    +0.000 A 
ATOM     26  N   UNL     1      50.858  10.445  13.794  0.00  0.00    +0.000 NA
ATOM     27  C   UNL     1      50.875  10.080  12.556  0.00  0.00    +0.000 A 
ATOM     28  N   UNL     1      50.405   8.881  12.090  0.00  0.00    +0.000 N 
ATOM     29  C   UNL     1      49.796   7.953  12.899  0.00  0.00    +0.000 A 
ATOM     30  O   UNL     1      49.277   6.944  12.433  0.00  0.00    +0.000 OA
ATOM     31  C   UNL     1      49.790   8.294  14.308  0.00  0.00    +0.000 A 
ATOM     32  H   UNL     1      50.423   8.662  11.105  0.00  0.00    +0.000 HD
ENDBRANCH  19  22
ENDBRANCH   1  20
TORSDOF 7
ENDMDL
MODEL 5
REMARK VINA RESULT:    -7.421      2.586      3.598
REMARK INTER + INTRA:         -11.333
REMARK INTER:                 -10.359
REMARK INTRA:                  -0.975
REMARK UNBOUND:                -1.092
REMARK  Name = 
REMARK  7 active torsions:
REMARK  status: ('A' for Active; 'I' for Inactive)
REMARK    1  A    between atoms: C_2  and  C_20
REMARK    2  A    between atoms: N_3  and  C_4
REMARK    3  A    between atoms: C_4  and  C_5
REMARK    4  A    between atoms: C_8  and  C_9
REMARK    5  A    between atoms: C_9  and  C_10
REMARK    6  A    between atoms: C_10  and  O_11
REMARK    7  A    between atoms: C_10  and  C_12
REMARK                            x       y       z     vdW  Elec       q    Type
REMARK                         _______ _______ _______ _____ _____    ______ ____
ROOT
ATOM      1  C   UNL     1      47.143   4.103  15.590  0.00  0.00    +0.000 C 
ENDROOT
BRANCH   1   2
ATOM      2  C   UNL     1      46.707   4.449  14.186  0.00  0.00    +0.000 A 
ATOM      3  C   UNL     1      47.139   5.629  13.589  0.00  0.00    +0.000 A 
ATOM      4  C   UNL     1      46.690   5.938  12.307  0.00  0.00    +0.000 A 
ATOM      5  C   UNL     1      45.807   5.077  11.651  0.00  0.00    +0.000 A 
ATOM      6  C   UNL     1      45.425   3.927  12.332  0.00  0.00    +0.000 A 
ATOM      7  N   UNL     1      45.851   3.595  13.571  0.00  0.00    +0.000 NA
BRANCH   5   8
ATOM      8  C   UNL     1      45.316   5.379  10.255  0.00  0.00    +0.000 C 
BRANCH   8   9
ATOM      9  C   UNL     1      44.565   4.209   9.590  0.00  0.00    +0.000 C 
BRANCH   9  10
ATOM     10  C   UNL     1      45.493   3.392   8.716  0.00  0.00    +0.000 A 
ATOM     11  C   UNL     1      45.613   2.016   8.886  0.00  0.00    +0.000 A 
ATOM     12  N   UNL     1      46.399   1.242   8.099  0.00  0.00    +0.000 NA
ATOM     13  C   UNL     1      47.060   1.895   7.120  0.00  0.00    +0.000 A 
ATOM     14  C   UNL     1      46.942   3.263   6.933  0.00  0.00    +0.000 A 
ATOM     15  N   UNL     1      46.157   4.040   7.717  0.00  0.00    +0.000 NA
ENDBRANCH   9  10
BRANCH   9  16
ATOM     16  O   UNL     1      43.516   4.727   8.763  0.00  0.00    +0.000 OA
ATOM     17  H   UNL     1      43.475   5.683   8.957  0.00  0.00    +0.000 HD
ENDBRANCH   9  16
ENDBRANCH   8   9
ENDBRANCH   5   8
ENDBRANCH   1   2
BRANCH   1  20
ATOM     18  O   UNL     1      46.896   4.903  18.265  0.00  0.00    +0.000 OA
ATOM     19  C   UNL     1      47.702   5.491  17.549  0.00  0.00    +0.000 C 
ATOM     20  N   UNL     1      47.842   5.203  16.217  0.00  0.00    +0.000 N 
ATOM     21  H   UNL     1      48.671   5.520  15.724  0.00  0.00    +0.000 HD
BRANCH  19  22
ATOM     22  C   UNL     1      48.526   6.592  18.067  0.00  0.00    +0.000 A 
ATOM     23  C   UNL     1      47.919   7.671  18.696  0.00  0.00    +0.000 A 
ATOM     24  S   UNL     1      49.018   8.868  19.208  0.00  0.00    +0.000 S 
ATOM     25  C   UNL     1      50.348   7.963  18.656  0.00  0.00    +0.000 A 
ATOM     26  N   UNL     1      51.620   8.419  18.817  0.00  0.00    +0.000 NA
ATOM     27  C   UNL     1      52.534   7.611  18.392  0.00  0.00    +0.000 A 
ATOM     28  N   UNL     1      52.290   6.394  17.813  0.00  0.00    +0.000 N 
ATOM     29  C   UNL     1      51.023   5.927  17.562  0.00  0.00    +0.000 A 
ATOM     30  O   UNL     1      50.838   4.891  16.934  0.00  0.00    +0.000 OA
ATOM     31  C   UNL     1      49.958   6.777  18.061  0.00  0.00    +0.000 A 
ATOM     32  H   UNL     1      53.046   5.816  17.477  0.00  0.00    +0.000 HD
ENDBRANCH  19  22
ENDBRANCH   1  20
TORSDOF 7
ENDMDL
MODEL 6
REMARK VINA RESULT:    -7.180      2.749      3.513
REMARK INTER + INTRA:         -11.000
REMARK INTER:                 -10.106
REMARK INTRA:                  -0.894
REMARK UNBOUND:                -1.092
REMARK  Name = 
REMARK  7 active torsions:
REMARK  status: ('A' for Active; 'I' for Inactive)
REMARK    1  A    between atoms: C_2  and  C_20
REMARK    2  A    between atoms: N_3  and  C_4
REMARK    3  A    between atoms: C_4  and  C_5
REMARK    4  A    between atoms: C_8  and  C_9
REMARK    5  A    between atoms: C_9  and  C_10
REMARK    6  A    between atoms: C_10  and  O_11
REMARK    7  A    between atoms: C_10  and  C_12
REMARK                            x       y       z     vdW  Elec       q    Type
REMARK                         _______ _______ _______ _____ _____    ______ ____
ROOT
ATOM      1  C   UNL     1      48.559   7.100  14.114  0.00  0.00    +0.000 C 
ENDROOT
BRANCH   1   2
ATOM      2  C   UNL     1      47.504   6.438  13.260  0.00  0.00    +0.000 A 
ATOM      3  C   UNL     1      47.080   7.039  12.080  0.00  0.00    +0.000 A 
ATOM      4  C   UNL     1      46.079   6.423  11.332  0.00  0.00    +0.000 A 
ATOM      5  C   UNL     1      45.507   5.230  11.782  0.00  0.00    +0.000 A 
ATOM      6  C   UNL     1      45.990   4.711  12.977  0.00  0.00    +0.000 A 
ATOM      7  N   UNL     1      46.967   5.279  13.719  0.00  0.00    +0.000 NA
BRANCH   5   8
ATOM      8  C   UNL     1      44.431   4.531  10.985  0.00  0.00    +0.000 C 
BRANCH   8   9
ATOM      9  C   UNL     1      44.757   3.063  10.648  0.00  0.00    +0.000 C 
BRANCH   9  10
ATOM     10  C   UNL     1      45.371   2.944   9.269  0.00  0.00    +0.000 A 
ATOM     11  C   UNL     1      45.482   4.052   8.435  0.00  0.00    +0.000 A 
ATOM     12  N   UNL     1      46.063   3.998   7.212  0.00  0.00    +0.000 NA
ATOM     13  C   UNL     1      46.543   2.790   6.851  0.00  0.00    +0.000 A 
ATOM     14  C   UNL     1      46.449   1.680   7.676  0.00  0.00    +0.000 A 
ATOM     15  N   UNL     1      45.869   1.730   8.899  0.00  0.00    +0.000 NA
ENDBRANCH   9  10
BRANCH   9  16
ATOM     16  O   UNL     1      43.548   2.294  10.664  0.00  0.00    +0.000 OA
ATOM     17  H   UNL     1      42.841   2.919  10.914  0.00  0.00    +0.000 HD
ENDBRANCH   9  16
ENDBRANCH   8   9
ENDBRANCH   5   8
ENDBRANCH   1   2
BRANCH   1  20
ATOM     18  O   UNL     1      50.133   5.922  16.112  0.00  0.00    +0.000 OA
ATOM     19  C   UNL     1      49.087   6.476  16.440  0.00  0.00    +0.000 C 
ATOM     20  N   UNL     1      48.232   7.024  15.521  0.00  0.00    +0.000 N 
ATOM     21  H   UNL     1      47.523   7.681  15.831  0.00  0.00    +0.000 HD
BRANCH  19  22
ATOM     22  C   UNL     1      48.656   6.529  17.843  0.00  0.00    +0.000 A 
ATOM     23  C   UNL     1      48.773   5.402  18.644  0.00  0.00    +0.000 A 
ATOM     24  S   UNL     1      48.200   5.630  20.232  0.00  0.00    +0.000 S 
ATOM     25  C   UNL     1      47.824   7.260  19.922  0.00  0.00    +0.000 A 
ATOM     26  N   UNL     1      47.311   8.058  20.898  0.00  0.00    +0.000 NA
ATOM     27  C   UNL     1      47.115   9.282  20.537  0.00  0.00    +0.000 A 
ATOM     28  N   UNL     1      47.378   9.779  19.287  0.00  0.00    +0.000 N 
ATOM     29  C   UNL     1      47.824   8.994  18.252  0.00  0.00    +0.000 A 
ATOM     30  O   UNL     1      47.934   9.441  17.116  0.00  0.00    +0.000 OA
ATOM     31  C   UNL     1      48.103   7.618  18.616  0.00  0.00    +0.000 A 
ATOM     32  H   UNL     1      47.180  10.741  19.057  0.00  0.00    +0.000 HD
ENDBRANCH  19  22
ENDBRANCH   1  20
TORSDOF 7
ENDMDL
MODEL 7
REMARK VINA RESULT:    -7.018      2.314      3.206
REMARK INTER + INTRA:         -10.777
REMARK INTER:                 -10.023
REMARK INTRA:                  -0.754
REMARK UNBOUND:                -1.092
REMARK  Name = 
REMARK  7 active torsions:
REMARK  status: ('A' for Active; 'I' for Inactive)
REMARK    1  A    between atoms: C_2  and  C_20
REMARK    2  A    between atoms: N_3  and  C_4
REMARK    3  A    between atoms: C_4  and  C_5
REMARK    4  A    between atoms: C_8  and  C_9
REMARK    5  A    between atoms: C_9  and  C_10
REMARK    6  A    between atoms: C_10  and  O_11
REMARK    7  A    between atoms: C_10  and  C_12
REMARK                            x       y       z     vdW  Elec       q    Type
REMARK                         _______ _______ _______ _____ _____    ______ ____
ROOT
ATOM      1  C   UNL     1      48.901   6.969  14.120  0.00  0.00    +0.000 C 
ENDROOT
BRANCH   1   2
ATOM      2  C   UNL     1      47.621   6.384  13.573  0.00  0.00    +0.000 A 
ATOM      3  C   UNL     1      46.699   7.201  12.926  0.00  0.00    +0.000 A 
ATOM      4  C   UNL     1      45.511   6.641  12.464  0.00  0.00    +0.000 A 
ATOM      5  C   UNL     1      45.254   5.283  12.670  0.00  0.00    +0.000 A 
ATOM      6  C   UNL     1      46.230   4.551  13.335  0.00  0.00    +0.000 A 
ATOM      7  N   UNL     1      47.397   5.063  13.785  0.00  0.00    +0.000 NA
BRANCH   5   8
ATOM      8  C   UNL     1      43.981   4.644  12.168  0.00  0.00    +0.000 C 
BRANCH   8   9
ATOM      9  C   UNL     1      44.177   3.229  11.589  0.00  0.00    +0.000 C 
BRANCH   9  10
ATOM     10  C   UNL     1      44.731   3.288  10.181  0.00  0.00    +0.000 A 
ATOM     11  C   UNL     1      44.921   4.507   9.536  0.00  0.00    +0.000 A 
ATOM     12  N   UNL     1      45.453   4.607   8.293  0.00  0.00    +0.000 NA
ATOM     13  C   UNL     1      45.801   3.438   7.716  0.00  0.00    +0.000 A 
ATOM     14  C   UNL     1      45.626   2.219   8.351  0.00  0.00    +0.000 A 
ATOM     15  N   UNL     1      45.095   2.114   9.593  0.00  0.00    +0.000 NA
ENDBRANCH   9  10
BRANCH   9  16
ATOM     16  O   UNL     1      42.913   2.556  11.542  0.00  0.00    +0.000 OA
ATOM     17  H   UNL     1      42.448   2.922  10.765  0.00  0.00    +0.000 HD
ENDBRANCH   9  16
ENDBRANCH   8   9
ENDBRANCH   5   8
ENDBRANCH   1   2
BRANCH   1  20
ATOM     18  O   UNL     1      50.917   6.321  15.957  0.00  0.00    +0.000 OA
ATOM     19  C   UNL     1      49.892   6.854  16.374  0.00  0.00    +0.000 C 
ATOM     20  N   UNL     1      48.836   7.148  15.553  0.00  0.00    +0.000 N 
ATOM     21  H   UNL     1      48.126   7.801  15.871  0.00  0.00    +0.000 HD
BRANCH  19  22
ATOM     22  C   UNL     1      49.711   7.151  17.802  0.00  0.00    +0.000 A 
ATOM     23  C   UNL     1      50.529   8.085  18.422  0.00  0.00    +0.000 A 
ATOM     24  S   UNL     1      50.202   8.284  20.082  0.00  0.00    +0.000 S 
ATOM     25  C   UNL     1      48.919   7.168  20.020  0.00  0.00    +0.000 A 
ATOM     26  N   UNL     1      48.178   6.891  21.128  0.00  0.00    +0.000 NA
ATOM     27  C   UNL     1      47.210   6.061  20.927  0.00  0.00    +0.000 A 
ATOM     28  N   UNL     1      46.921   5.476  19.722  0.00  0.00    +0.000 N 
ATOM     29  C   UNL     1      47.686   5.667  18.598  0.00  0.00    +0.000 A 
ATOM     30  O   UNL     1      47.474   5.036  17.568  0.00  0.00    +0.000 OA
ATOM     31  C   UNL     1      48.761   6.627  18.757  0.00  0.00    +0.000 A 
ATOM     32  H   UNL     1      46.165   4.814  19.633  0.00  0.00    +0.000 HD
ENDBRANCH  19  22
ENDBRANCH   1  20
TORSDOF 7
ENDMDL
MODEL 8
REMARK VINA RESULT:    -6.424      2.881      3.817
REMARK INTER + INTRA:          -9.958
REMARK INTER:                  -9.966
REMARK INTRA:                   0.009
REMARK UNBOUND:                -1.092
REMARK  Name = 
REMARK  7 active torsions:
REMARK  status: ('A' for Active; 'I' for Inactive)
REMARK    1  A    between atoms: C_2  and  C_20
REMARK    2  A    between atoms: N_3  and  C_4
REMARK    3  A    between atoms: C_4  and  C_5
REMARK    4  A    between atoms: C_8  and  C_9
REMARK    5  A    between atoms: C_9  and  C_10
REMARK    6  A    between atoms: C_10  and  O_11
REMARK    7  A    between atoms: C_10  and  C_12
REMARK                            x       y       z     vdW  Elec       q    Type
REMARK                         _______ _______ _______ _____ _____    ______ ____
ROOT
ATOM      1  C   UNL     1      47.123   4.948  14.700  0.00  0.00    +0.000 C 
ENDROOT
BRANCH   1   2
ATOM      2  C   UNL     1      46.362   4.685  13.422  0.00  0.00    +0.000 A 
ATOM      3  C   UNL     1      46.011   5.741  12.586  0.00  0.00    +0.000 A 
ATOM      4  C   UNL     1      45.277   5.472  11.434  0.00  0.00    +0.000 A 
ATOM      5  C   UNL     1      44.890   4.161  11.143  0.00  0.00    +0.000 A 
ATOM      6  C   UNL     1      45.279   3.176  12.043  0.00  0.00    +0.000 A 
ATOM      7  N   UNL     1      46.000   3.404  13.163  0.00  0.00    +0.000 NA
BRANCH   5   8
ATOM      8  C   UNL     1      44.106   3.837   9.894  0.00  0.00    +0.000 C 
BRANCH   8   9
ATOM      9  C   UNL     1      44.810   4.256   8.588  0.00  0.00    +0.000 C 
BRANCH   9  10
ATOM     10  C   UNL     1      45.719   3.155   8.082  0.00  0.00    +0.000 A 
ATOM     11  C   UNL     1      46.808   3.444   7.265  0.00  0.00    +0.000 A 
ATOM     12  N   UNL     1      47.670   2.495   6.824  0.00  0.00    +0.000 NA
ATOM     13  C   UNL     1      47.410   1.238   7.240  0.00  0.00    +0.000 A 
ATOM     14  C   UNL     1      46.336   0.938   8.062  0.00  0.00    +0.000 A 
ATOM     15  N   UNL     1      45.472   1.884   8.505  0.00  0.00    +0.000 NA
ENDBRANCH   9  10
BRANCH   9  16
ATOM     16  O   UNL     1      45.613   5.417   8.833  0.00  0.00    +0.000 OA
ATOM     17  H   UNL     1      46.024   5.274   9.708  0.00  0.00    +0.000 HD
ENDBRANCH   9  16
ENDBRANCH   8   9
ENDBRANCH   5   8
ENDBRANCH   1   2
BRANCH   1  20
ATOM     18  O   UNL     1      48.507   6.293  16.733  0.00  0.00    +0.000 OA
ATOM     19  C   UNL     1      48.816   6.516  15.565  0.00  0.00    +0.000 C 
ATOM     20  N   UNL     1      48.151   5.947  14.512  0.00  0.00    +0.000 N 
ATOM     21  H   UNL     1      48.580   5.951  13.592  0.00  0.00    +0.000 HD
BRANCH  19  22
ATOM     22  C   UNL     1      49.885   7.466  15.226  0.00  0.00    +0.000 A 
ATOM     23  C   UNL     1      49.588   8.607  14.495  0.00  0.00    +0.000 A 
ATOM     24  S   UNL     1      50.947   9.580  14.165  0.00  0.00    +0.000 S 
ATOM     25  C   UNL     1      51.973   8.537  15.034  0.00  0.00    +0.000 A 
ATOM     26  N   UNL     1      53.299   8.813  15.169  0.00  0.00    +0.000 NA
ATOM     27  C   UNL     1      53.949   7.962  15.890  0.00  0.00    +0.000 A 
ATOM     28  N   UNL     1      53.396   6.856  16.480  0.00  0.00    +0.000 N 
ATOM     29  C   UNL     1      52.082   6.498  16.309  0.00  0.00    +0.000 A 
ATOM     30  O   UNL     1      51.647   5.440  16.748  0.00  0.00    +0.000 OA
ATOM     31  C   UNL     1      51.294   7.445  15.543  0.00  0.00    +0.000 A 
ATOM     32  H   UNL     1      53.962   6.212  17.012  0.00  0.00    +0.000 HD
ENDBRANCH  19  22
ENDBRANCH   1  20
TORSDOF 7
ENDMDL
MODEL 9
REMARK VINA RESULT:    -5.624      5.044      6.909
REMARK INTER + INTRA:          -8.853
REMARK INTER:                  -8.671
REMARK INTRA:                  -0.182
REMARK UNBOUND:                -1.092
REMARK  Name = 
REMARK  7 active torsions:
REMARK  status: ('A' for Active; 'I' for Inactive)
REMARK    1  A    between atoms: C_2  and  C_20
REMARK    2  A    between atoms: N_3  and  C_4
REMARK    3  A    between atoms: C_4  and  C_5
REMARK    4  A    between atoms: C_8  and  C_9
REMARK    5  A    between atoms: C_9  and  C_10
REMARK    6  A    between atoms: C_10  and  O_11
REMARK    7  A    between atoms: C_10  and  C_12
REMARK                            x       y       z     vdW  Elec       q    Type
REMARK                         _______ _______ _______ _____ _____    ______ ____
ROOT
ATOM      1  C   UNL     1      49.339   7.998  13.667  0.00  0.00    +0.000 C 
ENDROOT
BRANCH   1   2
ATOM      2  C   UNL     1      50.467   8.007  12.662  0.00  0.00    +0.000 A 
ATOM      3  C   UNL     1      50.271   7.489  11.386  0.00  0.00    +0.000 A 
ATOM      4  C   UNL     1      51.339   7.477  10.493  0.00  0.00    +0.000 A 
ATOM      5  C   UNL     1      52.587   7.964  10.891  0.00  0.00    +0.000 A 
ATOM      6  C   UNL     1      52.687   8.452  12.189  0.00  0.00    +0.000 A 
ATOM      7  N   UNL     1      51.667   8.487  13.075  0.00  0.00    +0.000 NA
BRANCH   5   8
ATOM      8  C   UNL     1      53.760   7.978   9.940  0.00  0.00    +0.000 C 
BRANCH   8   9
ATOM      9  C   UNL     1      54.552   6.657   9.906  0.00  0.00    +0.000 C 
BRANCH   9  10
ATOM     10  C   UNL     1      54.264   5.880   8.638  0.00  0.00    +0.000 A 
ATOM     11  C   UNL     1      53.372   6.366   7.688  0.00  0.00    +0.000 A 
ATOM     12  N   UNL     1      53.117   5.724   6.521  0.00  0.00    +0.000 NA
ATOM     13  C   UNL     1      53.799   4.575   6.331  0.00  0.00    +0.000 A 
ATOM     14  C   UNL     1      54.698   4.085   7.265  0.00  0.00    +0.000 A 
ATOM     15  N   UNL     1      54.955   4.724   8.432  0.00  0.00    +0.000 NA
ENDBRANCH   9  10
BRANCH   9  16
ATOM     16  O   UNL     1      54.168   5.844  11.022  0.00  0.00    +0.000 OA
ATOM     17  H   UNL     1      53.242   5.585  10.853  0.00  0.00    +0.000 HD
ENDBRANCH   9  16
ENDBRANCH   8   9
ENDBRANCH   5   8
ENDBRANCH   1   2
BRANCH   1  20
ATOM     18  O   UNL     1      47.891   5.698  14.354  0.00  0.00    +0.000 OA
ATOM     19  C   UNL     1      47.425   6.454  13.505  0.00  0.00    +0.000 C 
ATOM     20  N   UNL     1      48.096   7.566  13.070  0.00  0.00    +0.000 N 
ATOM     21  H   UNL     1      47.588   8.288  12.570  0.00  0.00    +0.000 HD
BRANCH  19  22
ATOM     22  C   UNL     1      46.138   6.172  12.855  0.00  0.00    +0.000 A 
ATOM     23  C   UNL     1      45.380   7.216  12.342  0.00  0.00    +0.000 A 
ATOM     24  S   UNL     1      43.906   6.715  11.651  0.00  0.00    +0.000 S 
ATOM     25  C   UNL     1      44.252   5.079  11.964  0.00  0.00    +0.000 A 
ATOM     26  N   UNL     1      43.388   4.097  11.586  0.00  0.00    +0.000 NA
ATOM     27  C   UNL     1      43.798   2.900  11.845  0.00  0.00    +0.000 A 
ATOM     28  N   UNL     1      44.986   2.596  12.455  0.00  0.00    +0.000 N 
ATOM     29  C   UNL     1      45.852   3.555  12.920  0.00  0.00    +0.000 A 
ATOM     30  O   UNL     1      46.848   3.254  13.568  0.00  0.00    +0.000 OA
ATOM     31  C   UNL     1      45.462   4.918  12.614  0.00  0.00    +0.000 A 
ATOM     32  H   UNL     1      45.240   1.640  12.654  0.00  0.00    +0.000 HD
ENDBRANCH  19  22
ENDBRANCH   1  20
TORSDOF 7
ENDMDL
