MODEL 1
REMARK VINA RESULT:    -8.540      0.000      0.000
REMARK INTER + INTRA:         -14.080
REMARK INTER:                 -12.534
REMARK INTRA:                  -1.546
REMARK UNBOUND:                -1.546
REMARK  Name = 
REMARK  10 active torsions:
REMARK  status: ('A' for Active; 'I' for Inactive)
REMARK    1  A    between atoms: C_1  and  O_2
REMARK    2  A    between atoms: O_2  and  C_3
REMARK    3  A    between atoms: C_10  and  C_11
REMARK    4  A    between atoms: N_13  and  C_14
REMARK    5  A    between atoms: C_14  and  C_15
REMARK    6  A    between atoms: C_18  and  C_19
REMARK    7  A    between atoms: C_19  and  N_20
REMARK    8  A    between atoms: N_20  and  C_21
REMARK    9  A    between atoms: C_21  and  C_22
REMARK   10  A    between atoms: C_21  and  C_23
REMARK                            x       y       z     vdW  Elec       q    Type
REMARK                         _______ _______ _______ _____ _____    ______ ____
ROOT
ATOM      1  C   UNL     1      46.269   7.280  12.524  0.00  0.00    +0.000 A 
ATOM      2  C   UNL     1      44.932   7.058  12.878  0.00  0.00    +0.000 A 
ATOM      3  C   UNL     1      44.108   6.248  12.087  0.00  0.00    +0.000 A 
ATOM      4  C   UNL     1      44.602   5.634  10.926  0.00  0.00    +0.000 A 
ATOM      5  C   UNL     1      45.944   5.844  10.583  0.00  0.00    +0.000 A 
ATOM      6  C   UNL     1      46.769   6.654  11.374  0.00  0.00    +0.000 A 
ENDROOT
BRANCH   1   7
ATOM      7  C   UNL     1      47.165   8.128  13.392  0.00  0.00    +0.000 C 
BRANCH   7  10
ATOM      8  C   UNL     1      48.803   6.883  14.755  0.00  0.00    +0.000 C 
ATOM      9  O   UNL     1      49.667   6.996  13.887  0.00  0.00    +0.000 OA
ATOM     10  N   UNL     1      47.555   7.414  14.584  0.00  0.00    +0.000 N 
ATOM     11  H   UNL     1      46.850   7.294  15.299  0.00  0.00    +0.000 HD
BRANCH   8  19
ATOM     12  C   UNL     1      47.289   4.220  16.323  0.00  0.00    +0.000 A 
ATOM     13  N   UNL     1      46.919   3.195  17.117  0.00  0.00    +0.000 NA
ATOM     14  C   UNL     1      47.631   2.974  18.226  0.00  0.00    +0.000 A 
ATOM     15  N   UNL     1      48.681   3.665  18.656  0.00  0.00    +0.000 NA
ATOM     16  C   UNL     1      49.021   4.671  17.831  0.00  0.00    +0.000 A 
ATOM     17  S   UNL     1      50.339   5.667  18.223  0.00  0.00    +0.000 S 
ATOM     18  C   UNL     1      50.129   6.586  16.809  0.00  0.00    +0.000 A 
ATOM     19  C   UNL     1      49.069   6.163  16.013  0.00  0.00    +0.000 A 
ATOM     20  C   UNL     1      48.399   5.023  16.637  0.00  0.00    +0.000 A 
BRANCH  12  22
ATOM     21  C   UNL     1      47.043   3.661  14.064  0.00  0.00    +0.000 C 
ATOM     22  O   UNL     1      46.572   4.433  15.167  0.00  0.00    +0.000 OA
ENDBRANCH  12  22
ENDBRANCH   8  19
ENDBRANCH   7  10
ENDBRANCH   1   7
BRANCH   4  23
ATOM     23  C   UNL     1      43.718   4.731  10.091  0.00  0.00    +0.000 C 
BRANCH  23  24
ATOM     24  N   UNL     1      44.418   4.234   8.907  0.00  0.00    +0.000 NA
ATOM     25  H   UNL     1      45.096   4.939   8.617  0.00  0.00    +0.000 HD
BRANCH  24  26
ATOM     26  C   UNL     1      45.141   2.971   9.129  0.00  0.00    +0.000 C 
ATOM     27  C   UNL     1      44.208   1.780   9.390  0.00  0.00    +0.000 C 
BRANCH  26  28
ATOM     28  C   UNL     1      46.021   2.664   7.920  0.00  0.00    +0.000 A 
ATOM     29  C   UNL     1      46.204   3.618   6.905  0.00  0.00    +0.000 A 
ATOM     30  C   UNL     1      47.040   3.348   5.816  0.00  0.00    +0.000 A 
ATOM     31  C   UNL     1      47.701   2.125   5.727  0.00  0.00    +0.000 A 
ATOM     32  C   UNL     1      47.523   1.166   6.719  0.00  0.00    +0.000 A 
ATOM     33  C   UNL     1      46.686   1.432   7.805  0.00  0.00    +0.000 A 
ENDBRANCH  26  28
ENDBRANCH  24  26
ENDBRANCH  23  24
ENDBRANCH   4  23
TORSDOF 8
ENDMDL
MODEL 2
REMARK VINA RESULT:    -7.905      2.096      2.589
REMARK INTER + INTRA:         -13.148
REMARK INTER:                 -11.967
REMARK INTRA:                  -1.180
REMARK UNBOUND:                -1.546
REMARK  Name = 
REMARK  10 active torsions:
REMARK  status: ('A' for Active; 'I' for Inactive)
REMARK    1  A    between atoms: C_1  and  O_2
REMARK    2  A    between atoms: O_2  and  C_3
REMARK    3  A    between atoms: C_10  and  C_11
REMARK    4  A    between atoms: N_13  and  C_14
REMARK    5  A    between atoms: C_14  and  C_15
REMARK    6  A    between atoms: C_18  and  C_19
REMARK    7  A    between atoms: C_19  and  N_20
REMARK    8  A    between atoms: N_20  and  C_21
REMARK    9  A    between atoms: C_21  and  C_22
REMARK   10  A    between atoms: C_21  and  C_23
REMARK                            x       y       z     vdW  Elec       q    Type
REMARK                         _______ _______ _______ _____ _____    ______ ____
ROOT
ATOM      1  C   UNL     1      47.288   6.123  14.040  0.00  0.00    +0.000 A 
ATOM      2  C   UNL     1      47.268   4.744  14.287  0.00  0.00    +0.000 A 
ATOM      3  C   UNL     1      46.381   3.907  13.598  0.00  0.00    +0.000 A 
ATOM      4  C   UNL     1      45.497   4.428  12.641  0.00  0.00    +0.000 A 
ATOM      5  C   UNL     1      45.530   5.804  12.383  0.00  0.00    +0.000 A 
ATOM      6  C   UNL     1      46.418   6.642  13.072  0.00  0.00    +0.000 A 
ENDROOT
BRANCH   1   7
ATOM      7  C   UNL     1      48.264   7.020  14.759  0.00  0.00    +0.000 C 
BRANCH   7  10
ATOM      8  C   UNL     1      49.391   6.067  16.737  0.00  0.00    +0.000 C 
ATOM      9  O   UNL     1      48.557   6.557  17.495  0.00  0.00    +0.000 OA
ATOM     10  N   UNL     1      49.312   6.249  15.384  0.00  0.00    +0.000 N 
ATOM     11  H   UNL     1      50.019   5.857  14.777  0.00  0.00    +0.000 HD
BRANCH   8  19
ATOM     12  C   UNL     1      49.982   2.685  16.989  0.00  0.00    +0.000 A 
ATOM     13  N   UNL     1      50.476   1.444  17.169  0.00  0.00    +0.000 NA
ATOM     14  C   UNL     1      51.697   1.327  17.698  0.00  0.00    +0.000 A 
ATOM     15  N   UNL     1      52.500   2.312  18.085  0.00  0.00    +0.000 NA
ATOM     16  C   UNL     1      51.974   3.532  17.880  0.00  0.00    +0.000 A 
ATOM     17  S   UNL     1      52.859   4.912  18.320  0.00  0.00    +0.000 S 
ATOM     18  C   UNL     1      51.621   5.940  17.776  0.00  0.00    +0.000 A 
ATOM     19  C   UNL     1      50.521   5.271  17.250  0.00  0.00    +0.000 A 
ATOM     20  C   UNL     1      50.731   3.826  17.328  0.00  0.00    +0.000 A 
BRANCH  12  22
ATOM     21  C   UNL     1      47.681   2.858  17.382  0.00  0.00    +0.000 C 
ATOM     22  O   UNL     1      48.733   2.808  16.420  0.00  0.00    +0.000 OA
ENDBRANCH  12  22
ENDBRANCH   8  19
ENDBRANCH   7  10
ENDBRANCH   1   7
BRANCH   4  23
ATOM     23  C   UNL     1      44.562   3.514  11.873  0.00  0.00    +0.000 C 
BRANCH  23  24
ATOM     24  N   UNL     1      45.256   2.819  10.790  0.00  0.00    +0.000 NA
ATOM     25  H   UNL     1      45.286   1.824  11.016  0.00  0.00    +0.000 HD
BRANCH  24  26
ATOM     26  C   UNL     1      44.610   2.967   9.476  0.00  0.00    +0.000 C 
ATOM     27  C   UNL     1      44.073   4.384   9.225  0.00  0.00    +0.000 C 
BRANCH  26  28
ATOM     28  C   UNL     1      45.600   2.602   8.373  0.00  0.00    +0.000 A 
ATOM     29  C   UNL     1      46.025   3.565   7.444  0.00  0.00    +0.000 A 
ATOM     30  C   UNL     1      46.960   3.237   6.456  0.00  0.00    +0.000 A 
ATOM     31  C   UNL     1      47.479   1.946   6.383  0.00  0.00    +0.000 A 
ATOM     32  C   UNL     1      47.061   0.978   7.290  0.00  0.00    +0.000 A 
ATOM     33  C   UNL     1      46.125   1.302   8.275  0.00  0.00    +0.000 A 
ENDBRANCH  26  28
ENDBRANCH  24  26
ENDBRANCH  23  24
ENDBRANCH   4  23
TORSDOF 8
ENDMDL
MODEL 3
REMARK VINA RESULT:    -7.832      1.850      2.462
REMARK INTER + INTRA:         -13.040
REMARK INTER:                 -11.979
REMARK INTRA:                  -1.061
REMARK UNBOUND:                -1.546
REMARK  Name = 
REMARK  10 active torsions:
REMARK  status: ('A' for Active; 'I' for Inactive)
REMARK    1  A    between atoms: C_1  and  O_2
REMARK    2  A    between atoms: O_2  and  C_3
REMARK    3  A    between atoms: C_10  and  C_11
REMARK    4  A    between atoms: N_13  and  C_14
REMARK    5  A    between atoms: C_14  and  C_15
REMARK    6  A    between atoms: C_18  and  C_19
REMARK    7  A    between atoms: C_19  and  N_20
REMARK    8  A    between atoms: N_20  and  C_21
REMARK    9  A    between atoms: C_21  and  C_22
REMARK   10  A    between atoms: C_21  and  C_23
REMARK                            x       y       z     vdW  Elec       q    Type
REMARK                         _______ _______ _______ _____ _____    ______ ____
ROOT
ATOM      1  C   UNL     1      47.369   6.378  13.396  0.00  0.00    +0.000 A 
ATOM      2  C   UNL     1      47.116   5.167  14.052  0.00  0.00    +0.000 A 
ATOM      3  C   UNL     1      46.182   4.259  13.539  0.00  0.00    +0.000 A 
ATOM      4  C   UNL     1      45.483   4.536  12.354  0.00  0.00    +0.000 A 
ATOM      5  C   UNL     1      45.750   5.740  11.690  0.00  0.00    +0.000 A 
ATOM      6  C   UNL     1      46.685   6.649  12.203  0.00  0.00    +0.000 A 
ENDROOT
BRANCH   1   7
ATOM      7  C   UNL     1      48.398   7.344  13.930  0.00  0.00    +0.000 C 
BRANCH   7  10
ATOM      8  C   UNL     1      49.292   6.962  16.198  0.00  0.00    +0.000 C 
ATOM      9  O   UNL     1      50.301   6.422  15.750  0.00  0.00    +0.000 OA
ATOM     10  N   UNL     1      48.317   7.441  15.368  0.00  0.00    +0.000 N 
ATOM     11  H   UNL     1      47.484   7.863  15.754  0.00  0.00    +0.000 HD
BRANCH   8  19
ATOM     12  C   UNL     1      48.822   4.714  18.763  0.00  0.00    +0.000 A 
ATOM     13  N   UNL     1      48.658   4.067  19.935  0.00  0.00    +0.000 NA
ATOM     14  C   UNL     1      48.548   4.802  21.045  0.00  0.00    +0.000 A 
ATOM     15  N   UNL     1      48.573   6.127  21.135  0.00  0.00    +0.000 NA
ATOM     16  C   UNL     1      48.747   6.732  19.947  0.00  0.00    +0.000 A 
ATOM     17  S   UNL     1      48.799   8.427  19.870  0.00  0.00    +0.000 S 
ATOM     18  C   UNL     1      49.033   8.392  18.187  0.00  0.00    +0.000 A 
ATOM     19  C   UNL     1      49.081   7.110  17.650  0.00  0.00    +0.000 A 
ATOM     20  C   UNL     1      48.894   6.118  18.708  0.00  0.00    +0.000 A 
BRANCH  12  22
ATOM     21  C   UNL     1      47.792   3.209  17.297  0.00  0.00    +0.000 C 
ATOM     22  O   UNL     1      48.961   3.958  17.620  0.00  0.00    +0.000 OA
ENDBRANCH  12  22
ENDBRANCH   8  19
ENDBRANCH   7  10
ENDBRANCH   1   7
BRANCH   4  23
ATOM     23  C   UNL     1      44.498   3.535  11.784  0.00  0.00    +0.000 C 
BRANCH  23  24
ATOM     24  N   UNL     1      45.109   2.708  10.744  0.00  0.00    +0.000 NA
ATOM     25  H   UNL     1      44.990   1.729  11.003  0.00  0.00    +0.000 HD
BRANCH  24  26
ATOM     26  C   UNL     1      44.522   2.900   9.408  0.00  0.00    +0.000 C 
ATOM     27  C   UNL     1      44.003   4.327   9.177  0.00  0.00    +0.000 C 
BRANCH  26  28
ATOM     28  C   UNL     1      45.557   2.563   8.338  0.00  0.00    +0.000 A 
ATOM     29  C   UNL     1      46.146   1.288   8.286  0.00  0.00    +0.000 A 
ATOM     30  C   UNL     1      47.067   0.970   7.283  0.00  0.00    +0.000 A 
ATOM     31  C   UNL     1      47.412   1.918   6.322  0.00  0.00    +0.000 A 
ATOM     32  C   UNL     1      46.845   3.188   6.365  0.00  0.00    +0.000 A 
ATOM     33  C   UNL     1      45.928   3.509   7.368  0.00  0.00    +0.000 A 
ENDBRANCH  26  28
ENDBRANCH  24  26
ENDBRANCH  23  24
ENDBRANCH   4  23
TORSDOF 8
ENDMDL
MODEL 4
REMARK VINA RESULT:    -7.796      2.556      3.287
REMARK INTER + INTRA:         -12.987
REMARK INTER:                 -11.665
REMARK INTRA:                  -1.323
REMARK UNBOUND:                -1.546
REMARK  Name = 
REMARK  10 active torsions:
REMARK  status: ('A' for Active; 'I' for Inactive)
REMARK    1  A    between atoms: C_1  and  O_2
REMARK    2  A    between atoms: O_2  and  C_3
REMARK    3  A    between atoms: C_10  and  C_11
REMARK    4  A    between atoms: N_13  and  C_14
REMARK    5  A    between atoms: C_14  and  C_15
REMARK    6  A    between atoms: C_18  and  C_19
REMARK    7  A    between atoms: C_19  and  N_20
REMARK    8  A    between atoms: N_20  and  C_21
REMARK    9  A    between atoms: C_21  and  C_22
REMARK   10  A    between atoms: C_21  and  C_23
REMARK                            x       y       z     vdW  Elec       q    Type
REMARK                         _______ _______ _______ _____ _____    ______ ____
ROOT
ATOM      1  C   UNL     1      47.324   5.998  13.520  0.00  0.00    +0.000 A 
ATOM      2  C   UNL     1      46.909   4.781  14.074  0.00  0.00    +0.000 A 
ATOM      3  C   UNL     1      45.952   3.990  13.426  0.00  0.00    +0.000 A 
ATOM      4  C   UNL     1      45.391   4.394  12.205  0.00  0.00    +0.000 A 
ATOM      5  C   UNL     1      45.821   5.604  11.643  0.00  0.00    +0.000 A 
ATOM      6  C   UNL     1      46.779   6.395  12.291  0.00  0.00    +0.000 A 
ENDROOT
BRANCH   1   7
ATOM      7  C   UNL     1      48.377   6.836  14.202  0.00  0.00    +0.000 C 
BRANCH   7  10
ATOM      8  C   UNL     1      49.131   6.417  16.514  0.00  0.00    +0.000 C 
ATOM      9  O   UNL     1      50.216   5.993  16.123  0.00  0.00    +0.000 OA
ATOM     10  N   UNL     1      48.181   6.851  15.631  0.00  0.00    +0.000 N 
ATOM     11  H   UNL     1      47.286   7.176  15.969  0.00  0.00    +0.000 HD
BRANCH   8  19
ATOM     12  C   UNL     1      47.759   8.840  18.539  0.00  0.00    +0.000 A 
ATOM     13  N   UNL     1      47.220   9.579  19.529  0.00  0.00    +0.000 NA
ATOM     14  C   UNL     1      47.136   9.031  20.745  0.00  0.00    +0.000 A 
ATOM     15  N   UNL     1      47.539   7.818  21.106  0.00  0.00    +0.000 NA
ATOM     16  C   UNL     1      48.061   7.111  20.089  0.00  0.00    +0.000 A 
ATOM     17  S   UNL     1      48.633   5.538  20.367  0.00  0.00    +0.000 S 
ATOM     18  C   UNL     1      49.074   5.357  18.736  0.00  0.00    +0.000 A 
ATOM     19  C   UNL     1      48.799   6.470  17.950  0.00  0.00    +0.000 A 
ATOM     20  C   UNL     1      48.204   7.526  18.768  0.00  0.00    +0.000 A 
BRANCH  12  22
ATOM     21  C   UNL     1      48.751  10.471  17.186  0.00  0.00    +0.000 C 
ATOM     22  O   UNL     1      47.822   9.393  17.279  0.00  0.00    +0.000 OA
ENDBRANCH  12  22
ENDBRANCH   8  19
ENDBRANCH   7  10
ENDBRANCH   1   7
BRANCH   4  23
ATOM     23  C   UNL     1      44.381   3.519  11.489  0.00  0.00    +0.000 C 
BRANCH  23  24
ATOM     24  N   UNL     1      45.020   2.666  10.488  0.00  0.00    +0.000 NA
ATOM     25  H   UNL     1      44.842   1.693  10.737  0.00  0.00    +0.000 HD
BRANCH  24  26
ATOM     26  C   UNL     1      44.526   2.882   9.118  0.00  0.00    +0.000 C 
ATOM     27  C   UNL     1      44.054   4.322   8.869  0.00  0.00    +0.000 C 
BRANCH  26  28
ATOM     28  C   UNL     1      45.622   2.532   8.116  0.00  0.00    +0.000 A 
ATOM     29  C   UNL     1      46.046   3.469   7.159  0.00  0.00    +0.000 A 
ATOM     30  C   UNL     1      47.076   3.158   6.265  0.00  0.00    +0.000 A 
ATOM     31  C   UNL     1      47.693   1.910   6.315  0.00  0.00    +0.000 A 
ATOM     32  C   UNL     1      47.280   0.967   7.249  0.00  0.00    +0.000 A 
ATOM     33  C   UNL     1      46.249   1.274   8.141  0.00  0.00    +0.000 A 
ENDBRANCH  26  28
ENDBRANCH  24  26
ENDBRANCH  23  24
ENDBRANCH   4  23
TORSDOF 8
ENDMDL
MODEL 5
REMARK VINA RESULT:    -7.479      1.583      2.046
REMARK INTER + INTRA:         -12.523
REMARK INTER:                 -11.164
REMARK INTRA:                  -1.359
REMARK UNBOUND:                -1.546
REMARK  Name = 
REMARK  10 active torsions:
REMARK  status: ('A' for Active; 'I' for Inactive)
REMARK    1  A    between atoms: C_1  and  O_2
REMARK    2  A    between atoms: O_2  and  C_3
REMARK    3  A    between atoms: C_10  and  C_11
REMARK    4  A    between atoms: N_13  and  C_14
REMARK    5  A    between atoms: C_14  and  C_15
REMARK    6  A    between atoms: C_18  and  C_19
REMARK    7  A    between atoms: C_19  and  N_20
REMARK    8  A    between atoms: N_20  and  C_21
REMARK    9  A    between atoms: C_21  and  C_22
REMARK   10  A    between atoms: C_21  and  C_23
REMARK                            x       y       z     vdW  Elec       q    Type
REMARK                         _______ _______ _______ _____ _____    ______ ____
ROOT
ATOM      1  C   UNL     1      47.402   6.611  12.994  0.00  0.00    +0.000 A 
ATOM      2  C   UNL     1      46.521   5.684  13.564  0.00  0.00    +0.000 A 
ATOM      3  C   UNL     1      45.233   5.508  13.042  0.00  0.00    +0.000 A 
ATOM      4  C   UNL     1      44.798   6.250  11.933  0.00  0.00    +0.000 A 
ATOM      5  C   UNL     1      45.687   7.164  11.354  0.00  0.00    +0.000 A 
ATOM      6  C   UNL     1      46.975   7.341  11.876  0.00  0.00    +0.000 A 
ENDROOT
BRANCH   1   7
ATOM      7  C   UNL     1      48.800   6.780  13.536  0.00  0.00    +0.000 C 
BRANCH   7  10
ATOM      8  C   UNL     1      49.873   7.175  15.723  0.00  0.00    +0.000 C 
ATOM      9  O   UNL     1      50.904   7.576  15.186  0.00  0.00    +0.000 OA
ATOM     10  N   UNL     1      48.799   6.770  14.979  0.00  0.00    +0.000 N 
ATOM     11  H   UNL     1      47.968   6.423  15.436  0.00  0.00    +0.000 HD
BRANCH   8  19
ATOM     12  C   UNL     1      48.927   4.678  17.896  0.00  0.00    +0.000 A 
ATOM     13  N   UNL     1      48.640   3.887  18.949  0.00  0.00    +0.000 NA
ATOM     14  C   UNL     1      48.753   4.410  20.173  0.00  0.00    +0.000 A 
ATOM     15  N   UNL     1      49.115   5.649  20.486  0.00  0.00    +0.000 NA
ATOM     16  C   UNL     1      49.401   6.401  19.408  0.00  0.00    +0.000 A 
ATOM     17  S   UNL     1      49.878   8.017  19.616  0.00  0.00    +0.000 S 
ATOM     18  C   UNL     1      50.045   8.235  17.939  0.00  0.00    +0.000 A 
ATOM     19  C   UNL     1      49.750   7.101  17.190  0.00  0.00    +0.000 A 
ATOM     20  C   UNL     1      49.350   6.007  18.075  0.00  0.00    +0.000 A 
BRANCH  12  22
ATOM     21  C   UNL     1      47.882   3.078  16.546  0.00  0.00    +0.000 C 
ATOM     22  O   UNL     1      48.836   4.134  16.634  0.00  0.00    +0.000 OA
ENDBRANCH  12  22
ENDBRANCH   8  19
ENDBRANCH   7  10
ENDBRANCH   1   7
BRANCH   4  23
ATOM     23  C   UNL     1      43.416   6.031  11.350  0.00  0.00    +0.000 C 
BRANCH  23  24
ATOM     24  N   UNL     1      43.424   4.999  10.315  0.00  0.00    +0.000 NA
ATOM     25  H   UNL     1      43.788   5.411   9.455  0.00  0.00    +0.000 HD
BRANCH  24  26
ATOM     26  C   UNL     1      44.255   3.830  10.646  0.00  0.00    +0.000 C 
ATOM     27  C   UNL     1      43.436   2.630  11.144  0.00  0.00    +0.000 C 
BRANCH  26  28
ATOM     28  C   UNL     1      45.065   3.412   9.421  0.00  0.00    +0.000 A 
ATOM     29  C   UNL     1      45.629   4.377   8.571  0.00  0.00    +0.000 A 
ATOM     30  C   UNL     1      46.401   3.991   7.470  0.00  0.00    +0.000 A 
ATOM     31  C   UNL     1      46.618   2.641   7.204  0.00  0.00    +0.000 A 
ATOM     32  C   UNL     1      46.058   1.672   8.031  0.00  0.00    +0.000 A 
ATOM     33  C   UNL     1      45.283   2.054   9.129  0.00  0.00    +0.000 A 
ENDBRANCH  26  28
ENDBRANCH  24  26
ENDBRANCH  23  24
ENDBRANCH   4  23
TORSDOF 8
ENDMDL
MODEL 6
REMARK VINA RESULT:    -6.897      3.291      7.951
REMARK INTER + INTRA:         -11.668
REMARK INTER:                  -9.800
REMARK INTRA:                  -1.868
REMARK UNBOUND:                -1.546
REMARK  Name = 
REMARK  10 active torsions:
REMARK  status: ('A' for Active; 'I' for Inactive)
REMARK    1  A    between atoms: C_1  and  O_2
REMARK    2  A    between atoms: O_2  and  C_3
REMARK    3  A    between atoms: C_10  and  C_11
REMARK    4  A    between atoms: N_13  and  C_14
REMARK    5  A    between atoms: C_14  and  C_15
REMARK    6  A    between atoms: C_18  and  C_19
REMARK    7  A    between atoms: C_19  and  N_20
REMARK    8  A    between atoms: N_20  and  C_21
REMARK    9  A    between atoms: C_21  and  C_22
REMARK   10  A    between atoms: C_21  and  C_23
REMARK                            x       y       z     vdW  Elec       q    Type
REMARK                         _______ _______ _______ _____ _____    ______ ____
ROOT
ATOM      1  C   UNL     1      48.450   8.043  13.273  0.00  0.00    +0.000 A 
ATOM      2  C   UNL     1      48.025   9.115  14.068  0.00  0.00    +0.000 A 
ATOM      3  C   UNL     1      48.136   9.059  15.463  0.00  0.00    +0.000 A 
ATOM      4  C   UNL     1      48.681   7.932  16.097  0.00  0.00    +0.000 A 
ATOM      5  C   UNL     1      49.121   6.868  15.300  0.00  0.00    +0.000 A 
ATOM      6  C   UNL     1      49.010   6.924  13.904  0.00  0.00    +0.000 A 
ENDROOT
BRANCH   1   7
ATOM      7  C   UNL     1      48.359   8.115  11.769  0.00  0.00    +0.000 C 
BRANCH   7  10
ATOM      8  C   UNL     1      46.274   6.914  11.221  0.00  0.00    +0.000 C 
ATOM      9  O   UNL     1      45.585   7.834  11.657  0.00  0.00    +0.000 OA
ATOM     10  N   UNL     1      47.640   6.981  11.240  0.00  0.00    +0.000 N 
ATOM     11  H   UNL     1      48.190   6.206  10.898  0.00  0.00    +0.000 HD
BRANCH   8  19
ATOM     12  C   UNL     1      44.509   4.309  12.617  0.00  0.00    +0.000 A 
ATOM     13  N   UNL     1      43.779   3.209  12.890  0.00  0.00    +0.000 NA
ATOM     14  C   UNL     1      43.458   2.403  11.875  0.00  0.00    +0.000 A 
ATOM     15  N   UNL     1      43.788   2.553  10.597  0.00  0.00    +0.000 NA
ATOM     16  C   UNL     1      44.508   3.665  10.367  0.00  0.00    +0.000 A 
ATOM     17  S   UNL     1      45.023   4.018   8.788  0.00  0.00    +0.000 S 
ATOM     18  C   UNL     1      45.782   5.449   9.303  0.00  0.00    +0.000 A 
ATOM     19  C   UNL     1      45.662   5.692  10.667  0.00  0.00    +0.000 A 
ATOM     20  C   UNL     1      44.908   4.613  11.303  0.00  0.00    +0.000 A 
BRANCH  12  22
ATOM     21  C   UNL     1      46.103   4.903  14.224  0.00  0.00    +0.000 C 
ATOM     22  O   UNL     1      44.818   5.155  13.659  0.00  0.00    +0.000 OA
ENDBRANCH  12  22
ENDBRANCH   8  19
ENDBRANCH   7  10
ENDBRANCH   1   7
BRANCH   4  23
ATOM     23  C   UNL     1      48.832   7.889  17.605  0.00  0.00    +0.000 C 
BRANCH  23  24
ATOM     24  N   UNL     1      48.005   6.841  18.200  0.00  0.00    +0.000 NA
ATOM     25  H   UNL     1      47.515   6.355  17.448  0.00  0.00    +0.000 HD
BRANCH  24  26
ATOM     26  C   UNL     1      48.768   5.842  18.965  0.00  0.00    +0.000 C 
ATOM     27  C   UNL     1      48.122   5.495  20.315  0.00  0.00    +0.000 C 
BRANCH  26  28
ATOM     28  C   UNL     1      48.920   4.568  18.139  0.00  0.00    +0.000 A 
ATOM     29  C   UNL     1      50.133   3.860  18.129  0.00  0.00    +0.000 A 
ATOM     30  C   UNL     1      50.258   2.672  17.400  0.00  0.00    +0.000 A 
ATOM     31  C   UNL     1      49.177   2.179  16.672  0.00  0.00    +0.000 A 
ATOM     32  C   UNL     1      47.972   2.874  16.664  0.00  0.00    +0.000 A 
ATOM     33  C   UNL     1      47.845   4.061  17.388  0.00  0.00    +0.000 A 
ENDBRANCH  26  28
ENDBRANCH  24  26
ENDBRANCH  23  24
ENDBRANCH   4  23
TORSDOF 8
ENDMDL
MODEL 7
REMARK VINA RESULT:    -6.838      4.512      9.481
REMARK INTER + INTRA:         -11.581
REMARK INTER:                 -10.459
REMARK INTRA:                  -1.122
REMARK UNBOUND:                -1.546
REMARK  Name = 
REMARK  10 active torsions:
REMARK  status: ('A' for Active; 'I' for Inactive)
REMARK    1  A    between atoms: C_1  and  O_2
REMARK    2  A    between atoms: O_2  and  C_3
REMARK    3  A    between atoms: C_10  and  C_11
REMARK    4  A    between atoms: N_13  and  C_14
REMARK    5  A    between atoms: C_14  and  C_15
REMARK    6  A    between atoms: C_18  and  C_19
REMARK    7  A    between atoms: C_19  and  N_20
REMARK    8  A    between atoms: N_20  and  C_21
REMARK    9  A    between atoms: C_21  and  C_22
REMARK   10  A    between atoms: C_21  and  C_23
REMARK                            x       y       z     vdW  Elec       q    Type
REMARK                         _______ _______ _______ _____ _____    ______ ____
ROOT
ATOM      1  C   UNL     1      48.638   3.434  17.120  0.00  0.00    +0.000 A 
ATOM      2  C   UNL     1      49.440   2.287  17.064  0.00  0.00    +0.000 A 
ATOM      3  C   UNL     1      50.800   2.350  17.393  0.00  0.00    +0.000 A 
ATOM      4  C   UNL     1      51.389   3.560  17.792  0.00  0.00    +0.000 A 
ATOM      5  C   UNL     1      50.581   4.701  17.865  0.00  0.00    +0.000 A 
ATOM      6  C   UNL     1      49.220   4.639  17.536  0.00  0.00    +0.000 A 
ENDROOT
BRANCH   1   7
ATOM      7  C   UNL     1      47.166   3.361  16.795  0.00  0.00    +0.000 C 
BRANCH   7  10
ATOM      8  C   UNL     1      46.865   4.208  14.497  0.00  0.00    +0.000 C 
ATOM      9  O   UNL     1      47.253   3.146  14.015  0.00  0.00    +0.000 OA
ATOM     10  N   UNL     1      46.794   4.387  15.851  0.00  0.00    +0.000 N 
ATOM     11  H   UNL     1      46.494   5.274  16.231  0.00  0.00    +0.000 HD
BRANCH   8  19
ATOM     12  C   UNL     1      44.075   4.880  12.596  0.00  0.00    +0.000 A 
ATOM     13  N   UNL     1      43.105   5.400  11.819  0.00  0.00    +0.000 NA
ATOM     14  C   UNL     1      43.312   6.607  11.284  0.00  0.00    +0.000 A 
ATOM     15  N   UNL     1      44.389   7.371  11.423  0.00  0.00    +0.000 NA
ATOM     16  C   UNL     1      45.327   6.819  12.212  0.00  0.00    +0.000 A 
ATOM     17  S   UNL     1      46.778   7.653  12.500  0.00  0.00    +0.000 S 
ATOM     18  C   UNL     1      47.354   6.406  13.499  0.00  0.00    +0.000 A 
ATOM     19  C   UNL     1      46.471   5.342  13.641  0.00  0.00    +0.000 A 
ATOM     20  C   UNL     1      45.262   5.588  12.856  0.00  0.00    +0.000 A 
BRANCH  12  22
ATOM     21  C   UNL     1      43.526   2.636  12.218  0.00  0.00    +0.000 C 
ATOM     22  O   UNL     1      43.853   3.647  13.170  0.00  0.00    +0.000 OA
ENDBRANCH  12  22
ENDBRANCH   8  19
ENDBRANCH   7  10
ENDBRANCH   1   7
BRANCH   4  23
ATOM     23  C   UNL     1      52.853   3.616  18.181  0.00  0.00    +0.000 C 
BRANCH  23  24
ATOM     24  N   UNL     1      53.187   2.599  19.177  0.00  0.00    +0.000 NA
ATOM     25  H   UNL     1      52.627   1.768  18.985  0.00  0.00    +0.000 HD
BRANCH  24  26
ATOM     26  C   UNL     1      54.605   2.203  19.172  0.00  0.00    +0.000 C 
ATOM     27  C   UNL     1      55.114   1.772  20.555  0.00  0.00    +0.000 C 
BRANCH  26  28
ATOM     28  C   UNL     1      54.816   1.062  18.181  0.00  0.00    +0.000 A 
ATOM     29  C   UNL     1      54.520  -0.264  18.539  0.00  0.00    +0.000 A 
ATOM     30  C   UNL     1      54.680  -1.303  17.617  0.00  0.00    +0.000 A 
ATOM     31  C   UNL     1      55.138  -1.033  16.329  0.00  0.00    +0.000 A 
ATOM     32  C   UNL     1      55.445   0.273  15.961  0.00  0.00    +0.000 A 
ATOM     33  C   UNL     1      55.289   1.312  16.881  0.00  0.00    +0.000 A 
ENDBRANCH  26  28
ENDBRANCH  24  26
ENDBRANCH  23  24
ENDBRANCH   4  23
TORSDOF 8
ENDMDL
MODEL 8
REMARK VINA RESULT:    -6.793      3.725      8.982
REMARK INTER + INTRA:         -11.516
REMARK INTER:                 -10.017
REMARK INTRA:                  -1.498
REMARK UNBOUND:                -1.546
REMARK  Name = 
REMARK  10 active torsions:
REMARK  status: ('A' for Active; 'I' for Inactive)
REMARK    1  A    between atoms: C_1  and  O_2
REMARK    2  A    between atoms: O_2  and  C_3
REMARK    3  A    between atoms: C_10  and  C_11
REMARK    4  A    between atoms: N_13  and  C_14
REMARK    5  A    between atoms: C_14  and  C_15
REMARK    6  A    between atoms: C_18  and  C_19
REMARK    7  A    between atoms: C_19  and  N_20
REMARK    8  A    between atoms: N_20  and  C_21
REMARK    9  A    between atoms: C_21  and  C_22
REMARK   10  A    between atoms: C_21  and  C_23
REMARK                            x       y       z     vdW  Elec       q    Type
REMARK                         _______ _______ _______ _____ _____    ______ ____
ROOT
ATOM      1  C   UNL     1      48.862   3.305  17.260  0.00  0.00    +0.000 A 
ATOM      2  C   UNL     1      49.492   2.092  16.956  0.00  0.00    +0.000 A 
ATOM      3  C   UNL     1      50.864   1.923  17.181  0.00  0.00    +0.000 A 
ATOM      4  C   UNL     1      51.638   2.961  17.723  0.00  0.00    +0.000 A 
ATOM      5  C   UNL     1      51.003   4.167  18.043  0.00  0.00    +0.000 A 
ATOM      6  C   UNL     1      49.630   4.337  17.818  0.00  0.00    +0.000 A 
ENDROOT
BRANCH   1   7
ATOM      7  C   UNL     1      47.379   3.478  17.047  0.00  0.00    +0.000 C 
BRANCH   7  10
ATOM      8  C   UNL     1      47.095   4.239  14.717  0.00  0.00    +0.000 C 
ATOM      9  O   UNL     1      47.301   3.108  14.282  0.00  0.00    +0.000 OA
ATOM     10  N   UNL     1      47.114   4.497  16.060  0.00  0.00    +0.000 N 
ATOM     11  H   UNL     1      46.964   5.437  16.398  0.00  0.00    +0.000 HD
BRANCH   8  19
ATOM     12  C   UNL     1      44.419   5.102  12.729  0.00  0.00    +0.000 A 
ATOM     13  N   UNL     1      43.519   5.683  11.911  0.00  0.00    +0.000 NA
ATOM     14  C   UNL     1      43.852   6.843  11.339  0.00  0.00    +0.000 A 
ATOM     15  N   UNL     1      44.995   7.506  11.476  0.00  0.00    +0.000 NA
ATOM     16  C   UNL     1      45.860   6.898  12.306  0.00  0.00    +0.000 A 
ATOM     17  S   UNL     1      47.377   7.600  12.597  0.00  0.00    +0.000 S 
ATOM     18  C   UNL     1      47.812   6.342  13.653  0.00  0.00    +0.000 A 
ATOM     19  C   UNL     1      46.828   5.372  13.812  0.00  0.00    +0.000 A 
ATOM     20  C   UNL     1      45.664   5.703  12.991  0.00  0.00    +0.000 A 
BRANCH  12  22
ATOM     21  C   UNL     1      43.654   2.912  12.419  0.00  0.00    +0.000 C 
ATOM     22  O   UNL     1      44.069   3.918  13.341  0.00  0.00    +0.000 OA
ENDBRANCH  12  22
ENDBRANCH   8  19
ENDBRANCH   7  10
ENDBRANCH   1   7
BRANCH   4  23
ATOM     23  C   UNL     1      53.115   2.762  17.998  0.00  0.00    +0.000 C 
BRANCH  23  24
ATOM     24  N   UNL     1      53.761   4.010  18.403  0.00  0.00    +0.000 NA
ATOM     25  H   UNL     1      54.024   3.930  19.386  0.00  0.00    +0.000 HD
BRANCH  24  26
ATOM     26  C   UNL     1      54.974   4.331  17.633  0.00  0.00    +0.000 C 
ATOM     27  C   UNL     1      55.613   3.099  16.976  0.00  0.00    +0.000 C 
BRANCH  26  28
ATOM     28  C   UNL     1      54.643   5.360  16.556  0.00  0.00    +0.000 A 
ATOM     29  C   UNL     1      53.562   6.243  16.716  0.00  0.00    +0.000 A 
ATOM     30  C   UNL     1      53.283   7.209  15.744  0.00  0.00    +0.000 A 
ATOM     31  C   UNL     1      54.076   7.306  14.604  0.00  0.00    +0.000 A 
ATOM     32  C   UNL     1      55.145   6.433  14.425  0.00  0.00    +0.000 A 
ATOM     33  C   UNL     1      55.424   5.464  15.392  0.00  0.00    +0.000 A 
ENDBRANCH  26  28
ENDBRANCH  24  26
ENDBRANCH  23  24
ENDBRANCH   4  23
TORSDOF 8
ENDMDL
MODEL 9
REMARK VINA RESULT:    -6.620      3.601      8.939
REMARK INTER + INTRA:         -11.262
REMARK INTER:                  -9.025
REMARK INTRA:                  -2.237
REMARK UNBOUND:                -1.546
REMARK  Name = 
REMARK  10 active torsions:
REMARK  status: ('A' for Active; 'I' for Inactive)
REMARK    1  A    between atoms: C_1  and  O_2
REMARK    2  A    between atoms: O_2  and  C_3
REMARK    3  A    between atoms: C_10  and  C_11
REMARK    4  A    between atoms: N_13  and  C_14
REMARK    5  A    between atoms: C_14  and  C_15
REMARK    6  A    between atoms: C_18  and  C_19
REMARK    7  A    between atoms: C_19  and  N_20
REMARK    8  A    between atoms: N_20  and  C_21
REMARK    9  A    between atoms: C_21  and  C_22
REMARK   10  A    between atoms: C_21  and  C_23
REMARK                            x       y       z     vdW  Elec       q    Type
REMARK                         _______ _______ _______ _____ _____    ______ ____
ROOT
ATOM      1  C   UNL     1      48.515   3.537  17.626  0.00  0.00    +0.000 A 
ATOM      2  C   UNL     1      48.675   4.435  18.689  0.00  0.00    +0.000 A 
ATOM      3  C   UNL     1      49.942   4.680  19.233  0.00  0.00    +0.000 A 
ATOM      4  C   UNL     1      51.081   4.039  18.722  0.00  0.00    +0.000 A 
ATOM      5  C   UNL     1      50.921   3.155  17.647  0.00  0.00    +0.000 A 
ATOM      6  C   UNL     1      49.654   2.910  17.102  0.00  0.00    +0.000 A 
ENDROOT
BRANCH   1   7
ATOM      7  C   UNL     1      47.155   3.296  17.019  0.00  0.00    +0.000 C 
BRANCH   7  10
ATOM      8  C   UNL     1      47.018   4.166  14.714  0.00  0.00    +0.000 C 
ATOM      9  O   UNL     1      47.480   3.124  14.253  0.00  0.00    +0.000 OA
ATOM     10  N   UNL     1      46.827   4.322  16.060  0.00  0.00    +0.000 N 
ATOM     11  H   UNL     1      46.467   5.193  16.423  0.00  0.00    +0.000 HD
BRANCH   8  19
ATOM     12  C   UNL     1      44.466   4.703  12.466  0.00  0.00    +0.000 A 
ATOM     13  N   UNL     1      43.573   5.180  11.576  0.00  0.00    +0.000 NA
ATOM     14  C   UNL     1      43.758   6.417  11.107  0.00  0.00    +0.000 A 
ATOM     15  N   UNL     1      44.745   7.251  11.412  0.00  0.00    +0.000 NA
ATOM     16  C   UNL     1      45.607   6.740  12.308  0.00  0.00    +0.000 A 
ATOM     17  S   UNL     1      46.938   7.666  12.813  0.00  0.00    +0.000 S 
ATOM     18  C   UNL     1      47.467   6.428  13.850  0.00  0.00    +0.000 A 
ATOM     19  C   UNL     1      46.657   5.298  13.841  0.00  0.00    +0.000 A 
ATOM     20  C   UNL     1      45.550   5.484  12.904  0.00  0.00    +0.000 A 
BRANCH  12  22
ATOM     21  C   UNL     1      43.397   2.643  12.164  0.00  0.00    +0.000 C 
ATOM     22  O   UNL     1      44.263   3.437  12.972  0.00  0.00    +0.000 OA
ENDBRANCH  12  22
ENDBRANCH   8  19
ENDBRANCH   7  10
ENDBRANCH   1   7
BRANCH   4  23
ATOM     23  C   UNL     1      52.455   4.333  19.290  0.00  0.00    +0.000 C 
BRANCH  23  24
ATOM     24  N   UNL     1      52.638   5.761  19.549  0.00  0.00    +0.000 NA
ATOM     25  H   UNL     1      53.324   5.865  20.297  0.00  0.00    +0.000 HD
BRANCH  24  26
ATOM     26  C   UNL     1      53.118   6.521  18.383  0.00  0.00    +0.000 C 
ATOM     27  C   UNL     1      53.988   5.683  17.434  0.00  0.00    +0.000 C 
BRANCH  26  28
ATOM     28  C   UNL     1      51.928   7.082  17.610  0.00  0.00    +0.000 A 
ATOM     29  C   UNL     1      51.088   8.048  18.189  0.00  0.00    +0.000 A 
ATOM     30  C   UNL     1      50.020   8.588  17.465  0.00  0.00    +0.000 A 
ATOM     31  C   UNL     1      49.777   8.171  16.158  0.00  0.00    +0.000 A 
ATOM     32  C   UNL     1      50.593   7.208  15.574  0.00  0.00    +0.000 A 
ATOM     33  C   UNL     1      51.658   6.664  16.295  0.00  0.00    +0.000 A 
ENDBRANCH  26  28
ENDBRANCH  24  26
ENDBRANCH  23  24
ENDBRANCH   4  23
TORSDOF 8
ENDMDL
