MODEL 1
REMARK VINA RESULT:    -8.428      0.000      0.000
REMARK INTER + INTRA:         -12.459
REMARK INTER:                 -11.877
REMARK INTRA:                  -0.583
REMARK UNBOUND:                -0.583
REMARK  Name = 
REMARK  7 active torsions:
REMARK  status: ('A' for Active; 'I' for Inactive)
REMARK    1  A    between atoms: C_2  and  C_4
REMARK    2  A    between atoms: N_8  and  C_9
REMARK    3  A    between atoms: C_9  and  C_10
REMARK    4  A    between atoms: C_10  and  C_12
REMARK    5  A    between atoms: C_10  and  C_14
REMARK    6  A    between atoms: C_18  and  O_19
REMARK    7  A    between atoms: O_19  and  C_20
REMARK                            x       y       z     vdW  Elec       q    Type
REMARK                         _______ _______ _______ _____ _____    ______ ____
ROOT
ATOM      1  C   UNL     1      43.286   5.416  12.226  0.00  0.00    +0.000 C 
ATOM      2  F   UNL     1      42.644   4.757  13.255  0.00  0.00    +0.000 F 
ENDROOT
BRANCH   1   3
ATOM      3  C   UNL     1      44.718   5.762  12.647  0.00  0.00    +0.000 A 
ATOM      4  C   UNL     1      45.285   7.037  12.464  0.00  0.00    +0.000 A 
ATOM      5  C   UNL     1      46.543   7.344  12.986  0.00  0.00    +0.000 A 
ATOM      6  C   UNL     1      47.268   6.378  13.678  0.00  0.00    +0.000 A 
ATOM      7  C   UNL     1      46.753   5.092  13.834  0.00  0.00    +0.000 A 
ATOM      8  C   UNL     1      45.493   4.789  13.304  0.00  0.00    +0.000 A 
ATOM      9  F   UNL     1      45.002   3.547  13.417  0.00  0.00    +0.000 F 
BRANCH   7  10
ATOM     10  O   UNL     1      47.587   4.231  14.505  0.00  0.00    +0.000 OA
BRANCH  10  11
ATOM     11  C   UNL     1      47.413   4.036  15.926  0.00  0.00    +0.000 C 
ATOM     12  C   UNL     1      48.239   4.901  16.887  0.00  0.00    +0.000 C 
ATOM     13  O   UNL     1      48.778   3.734  17.557  0.00  0.00    +0.000 OA
ATOM     14  C   UNL     1      48.228   2.881  16.526  0.00  0.00    +0.000 C 
ENDBRANCH  10  11
ENDBRANCH   7  10
ENDBRANCH   1   3
BRANCH   1  15
ATOM     15  C   UNL     1      42.430   6.670  11.983  0.00  0.00    +0.000 C 
ATOM     16  F   UNL     1      42.719   7.250  10.787  0.00  0.00    +0.000 F 
ENDBRANCH   1  15
BRANCH   1  17
ATOM     17  C   UNL     1      43.252   4.489  10.978  0.00  0.00    +0.000 C 
BRANCH  17  22
ATOM     18  C   UNL     1      46.328   2.086   7.859  0.00  0.00    +0.000 A 
ATOM     19  C   UNL     1      46.465   3.425   7.506  0.00  0.00    +0.000 A 
ATOM     20  C   UNL     1      45.692   4.377   8.169  0.00  0.00    +0.000 A 
ATOM     21  C   UNL     1      44.814   3.977   9.180  0.00  0.00    +0.000 A 
ATOM     22  N   UNL     1      44.125   4.975   9.886  0.00  0.00    +0.000 N 
ATOM     23  N   UNL     1      44.629   2.678   9.481  0.00  0.00    +0.000 NA
ATOM     24  C   UNL     1      45.377   1.762   8.814  0.00  0.00    +0.000 A 
ATOM     25  H   UNL     1      44.812   5.656  10.195  0.00  0.00    +0.000 HD
BRANCH  18  27
ATOM     26  N   UNL     1      46.848  -0.271   7.652  0.00  0.00    +0.000 N 
ATOM     27  C   UNL     1      47.160   1.011   7.288  0.00  0.00    +0.000 C 
ATOM     28  O   UNL     1      48.042   1.244   6.476  0.00  0.00    +0.000 OA
ATOM     29  H   UNL     1      47.321  -1.006   7.143  0.00  0.00    +0.000 HD
ATOM     30  H   UNL     1      45.971  -0.508   8.101  0.00  0.00    +0.000 HD
ENDBRANCH  18  27
ENDBRANCH  17  22
ENDBRANCH   1  17
TORSDOF 7
ENDMDL
MODEL 2
REMARK VINA RESULT:    -8.215      1.903      2.275
REMARK INTER + INTRA:         -12.159
REMARK INTER:                 -11.481
REMARK INTRA:                  -0.678
REMARK UNBOUND:                -0.583
REMARK  Name = 
REMARK  7 active torsions:
REMARK  status: ('A' for Active; 'I' for Inactive)
REMARK    1  A    between atoms: C_2  and  C_4
REMARK    2  A    between atoms: N_8  and  C_9
REMARK    3  A    between atoms: C_9  and  C_10
REMARK    4  A    between atoms: C_10  and  C_12
REMARK    5  A    between atoms: C_10  and  C_14
REMARK    6  A    between atoms: C_18  and  O_19
REMARK    7  A    between atoms: O_19  and  C_20
REMARK                            x       y       z     vdW  Elec       q    Type
REMARK                         _______ _______ _______ _____ _____    ______ ____
ROOT
ATOM      1  C   UNL     1      44.153   4.653  12.196  0.00  0.00    +0.000 C 
ATOM      2  F   UNL     1      44.210   3.457  12.882  0.00  0.00    +0.000 F 
ENDROOT
BRANCH   1   3
ATOM      3  C   UNL     1      45.503   5.372  12.296  0.00  0.00    +0.000 A 
ATOM      4  C   UNL     1      45.973   6.263  11.314  0.00  0.00    +0.000 A 
ATOM      5  C   UNL     1      47.144   6.996  11.512  0.00  0.00    +0.000 A 
ATOM      6  C   UNL     1      47.880   6.837  12.683  0.00  0.00    +0.000 A 
ATOM      7  C   UNL     1      47.465   5.926  13.654  0.00  0.00    +0.000 A 
ATOM      8  C   UNL     1      46.292   5.190  13.447  0.00  0.00    +0.000 A 
ATOM      9  F   UNL     1      45.901   4.286  14.357  0.00  0.00    +0.000 F 
BRANCH   7  10
ATOM     10  O   UNL     1      48.301   5.845  14.741  0.00  0.00    +0.000 OA
BRANCH  10  11
ATOM     11  C   UNL     1      48.852   7.054  15.307  0.00  0.00    +0.000 C 
ATOM     12  C   UNL     1      50.371   7.137  15.509  0.00  0.00    +0.000 C 
ATOM     13  O   UNL     1      50.218   7.445  16.917  0.00  0.00    +0.000 OA
ATOM     14  C   UNL     1      48.808   7.130  16.840  0.00  0.00    +0.000 C 
ENDBRANCH  10  11
ENDBRANCH   7  10
ENDBRANCH   1   3
BRANCH   1  15
ATOM     15  C   UNL     1      43.024   5.435  12.887  0.00  0.00    +0.000 C 
ATOM     16  F   UNL     1      41.949   5.589  12.068  0.00  0.00    +0.000 F 
ENDBRANCH   1  15
BRANCH   1  17
ATOM     17  C   UNL     1      43.768   4.334  10.724  0.00  0.00    +0.000 C 
BRANCH  17  22
ATOM     18  C   UNL     1      46.733   2.424   7.184  0.00  0.00    +0.000 A 
ATOM     19  C   UNL     1      46.175   1.307   7.797  0.00  0.00    +0.000 A 
ATOM     20  C   UNL     1      45.316   1.495   8.880  0.00  0.00    +0.000 A 
ATOM     21  C   UNL     1      45.019   2.789   9.315  0.00  0.00    +0.000 A 
ATOM     22  N   UNL     1      44.078   2.937  10.346  0.00  0.00    +0.000 N 
ATOM     23  N   UNL     1      45.606   3.870   8.768  0.00  0.00    +0.000 NA
ATOM     24  C   UNL     1      46.454   3.670   7.727  0.00  0.00    +0.000 A 
ATOM     25  H   UNL     1      43.255   2.401  10.084  0.00  0.00    +0.000 HD
BRANCH  18  27
ATOM     26  N   UNL     1      47.397   3.317   5.033  0.00  0.00    +0.000 N 
ATOM     27  C   UNL     1      47.578   2.346   5.979  0.00  0.00    +0.000 C 
ATOM     28  O   UNL     1      48.447   1.496   5.858  0.00  0.00    +0.000 OA
ATOM     29  H   UNL     1      48.078   3.345   4.286  0.00  0.00    +0.000 HD
ATOM     30  H   UNL     1      46.885   4.171   5.223  0.00  0.00    +0.000 HD
ENDBRANCH  18  27
ENDBRANCH  17  22
ENDBRANCH   1  17
TORSDOF 7
ENDMDL
MODEL 3
REMARK VINA RESULT:    -7.983      3.019      7.519
REMARK INTER + INTRA:         -11.832
REMARK INTER:                 -11.263
REMARK INTRA:                  -0.569
REMARK UNBOUND:                -0.583
REMARK  Name = 
REMARK  7 active torsions:
REMARK  status: ('A' for Active; 'I' for Inactive)
REMARK    1  A    between atoms: C_2  and  C_4
REMARK    2  A    between atoms: N_8  and  C_9
REMARK    3  A    between atoms: C_9  and  C_10
REMARK    4  A    between atoms: C_10  and  C_12
REMARK    5  A    between atoms: C_10  and  C_14
REMARK    6  A    between atoms: C_18  and  O_19
REMARK    7  A    between atoms: O_19  and  C_20
REMARK                            x       y       z     vdW  Elec       q    Type
REMARK                         _______ _______ _______ _____ _____    ______ ____
ROOT
ATOM      1  C   UNL     1      45.439   5.906  11.601  0.00  0.00    +0.000 C 
ATOM      2  F   UNL     1      46.659   6.461  11.271  0.00  0.00    +0.000 F 
ENDROOT
BRANCH   1   3
ATOM      3  C   UNL     1      45.174   4.679  10.722  0.00  0.00    +0.000 A 
ATOM      4  C   UNL     1      44.453   3.556  11.168  0.00  0.00    +0.000 A 
ATOM      5  C   UNL     1      44.121   2.522  10.290  0.00  0.00    +0.000 A 
ATOM      6  C   UNL     1      44.521   2.579   8.959  0.00  0.00    +0.000 A 
ATOM      7  C   UNL     1      45.278   3.656   8.498  0.00  0.00    +0.000 A 
ATOM      8  C   UNL     1      45.612   4.687   9.384  0.00  0.00    +0.000 A 
ATOM      9  F   UNL     1      46.368   5.711   8.963  0.00  0.00    +0.000 F 
BRANCH   7  10
ATOM     10  O   UNL     1      45.634   3.567   7.175  0.00  0.00    +0.000 OA
BRANCH  10  11
ATOM     11  C   UNL     1      47.007   3.287   6.824  0.00  0.00    +0.000 C 
ATOM     12  C   UNL     1      47.312   2.808   5.398  0.00  0.00    +0.000 C 
ATOM     13  O   UNL     1      47.985   1.621   5.886  0.00  0.00    +0.000 OA
ATOM     14  C   UNL     1      47.506   1.891   7.225  0.00  0.00    +0.000 C 
ENDBRANCH  10  11
ENDBRANCH   7  10
ENDBRANCH   1   3
BRANCH   1  15
ATOM     15  C   UNL     1      44.425   7.034  11.347  0.00  0.00    +0.000 C 
ATOM     16  F   UNL     1      43.149   6.565  11.327  0.00  0.00    +0.000 F 
ENDBRANCH   1  15
BRANCH   1  17
ATOM     17  C   UNL     1      45.479   5.544  13.112  0.00  0.00    +0.000 C 
BRANCH  17  22
ATOM     18  C   UNL     1      48.483   3.994  16.792  0.00  0.00    +0.000 A 
ATOM     19  C   UNL     1      48.893   5.301  16.547  0.00  0.00    +0.000 A 
ATOM     20  C   UNL     1      48.273   6.019  15.525  0.00  0.00    +0.000 A 
ATOM     21  C   UNL     1      47.249   5.427  14.782  0.00  0.00    +0.000 A 
ATOM     22  N   UNL     1      46.589   6.215  13.826  0.00  0.00    +0.000 N 
ATOM     23  N   UNL     1      46.893   4.142  14.970  0.00  0.00    +0.000 NA
ATOM     24  C   UNL     1      47.518   3.451  15.958  0.00  0.00    +0.000 A 
ATOM     25  H   UNL     1      46.308   7.076  14.287  0.00  0.00    +0.000 HD
BRANCH  18  27
ATOM     26  N   UNL     1      48.278   3.177  19.063  0.00  0.00    +0.000 N 
ATOM     27  C   UNL     1      49.004   3.178  17.904  0.00  0.00    +0.000 C 
ATOM     28  O   UNL     1      49.999   2.481  17.777  0.00  0.00    +0.000 OA
ATOM     29  H   UNL     1      48.557   2.503  19.763  0.00  0.00    +0.000 HD
ATOM     30  H   UNL     1      47.327   3.523  19.107  0.00  0.00    +0.000 HD
ENDBRANCH  18  27
ENDBRANCH  17  22
ENDBRANCH   1  17
TORSDOF 7
ENDMDL
MODEL 4
REMARK VINA RESULT:    -7.791      2.315      3.454
REMARK INTER + INTRA:         -11.562
REMARK INTER:                 -10.809
REMARK INTRA:                  -0.753
REMARK UNBOUND:                -0.583
REMARK  Name = 
REMARK  7 active torsions:
REMARK  status: ('A' for Active; 'I' for Inactive)
REMARK    1  A    between atoms: C_2  and  C_4
REMARK    2  A    between atoms: N_8  and  C_9
REMARK    3  A    between atoms: C_9  and  C_10
REMARK    4  A    between atoms: C_10  and  C_12
REMARK    5  A    between atoms: C_10  and  C_14
REMARK    6  A    between atoms: C_18  and  O_19
REMARK    7  A    between atoms: O_19  and  C_20
REMARK                            x       y       z     vdW  Elec       q    Type
REMARK                         _______ _______ _______ _____ _____    ______ ____
ROOT
ATOM      1  C   UNL     1      43.620   4.404  12.302  0.00  0.00    +0.000 C 
ATOM      2  F   UNL     1      43.365   3.225  12.974  0.00  0.00    +0.000 F 
ENDROOT
BRANCH   1   3
ATOM      3  C   UNL     1      45.008   4.928  12.686  0.00  0.00    +0.000 A 
ATOM      4  C   UNL     1      45.883   4.233  13.540  0.00  0.00    +0.000 A 
ATOM      5  C   UNL     1      47.187   4.683  13.752  0.00  0.00    +0.000 A 
ATOM      6  C   UNL     1      47.635   5.847  13.134  0.00  0.00    +0.000 A 
ATOM      7  C   UNL     1      46.776   6.585  12.320  0.00  0.00    +0.000 A 
ATOM      8  C   UNL     1      45.467   6.130  12.115  0.00  0.00    +0.000 A 
ATOM      9  F   UNL     1      44.621   6.847  11.362  0.00  0.00    +0.000 F 
BRANCH   7  10
ATOM     10  O   UNL     1      47.335   7.728  11.803  0.00  0.00    +0.000 OA
BRANCH  10  11
ATOM     11  C   UNL     1      48.529   8.272  12.408  0.00  0.00    +0.000 C 
ATOM     12  C   UNL     1      48.375   9.406  13.430  0.00  0.00    +0.000 C 
ATOM     13  O   UNL     1      49.270  10.269  12.684  0.00  0.00    +0.000 OA
ATOM     14  C   UNL     1      49.248   9.342  11.573  0.00  0.00    +0.000 C 
ENDBRANCH  10  11
ENDBRANCH   7  10
ENDBRANCH   1   3
BRANCH   1  15
ATOM     15  C   UNL     1      42.494   5.350  12.753  0.00  0.00    +0.000 C 
ATOM     16  F   UNL     1      41.860   5.913  11.690  0.00  0.00    +0.000 F 
ENDBRANCH   1  15
BRANCH   1  17
ATOM     17  C   UNL     1      43.505   4.113  10.779  0.00  0.00    +0.000 C 
BRANCH  17  22
ATOM     18  C   UNL     1      46.663   2.646   7.196  0.00  0.00    +0.000 A 
ATOM     19  C   UNL     1      46.309   1.464   7.840  0.00  0.00    +0.000 A 
ATOM     20  C   UNL     1      45.456   1.530   8.940  0.00  0.00    +0.000 A 
ATOM     21  C   UNL     1      44.961   2.766   9.363  0.00  0.00    +0.000 A 
ATOM     22  N   UNL     1      44.031   2.778  10.416  0.00  0.00    +0.000 N 
ATOM     23  N   UNL     1      45.350   3.917   8.786  0.00  0.00    +0.000 NA
ATOM     24  C   UNL     1      46.196   3.839   7.726  0.00  0.00    +0.000 A 
ATOM     25  H   UNL     1      43.302   2.110  10.182  0.00  0.00    +0.000 HD
BRANCH  18  27
ATOM     26  N   UNL     1      48.772   2.240   6.076  0.00  0.00    +0.000 N 
ATOM     27  C   UNL     1      47.483   2.684   5.971  0.00  0.00    +0.000 C 
ATOM     28  O   UNL     1      47.016   3.031   4.897  0.00  0.00    +0.000 OA
ATOM     29  H   UNL     1      49.277   2.127   5.207  0.00  0.00    +0.000 HD
ATOM     30  H   UNL     1      49.098   1.705   6.873  0.00  0.00    +0.000 HD
ENDBRANCH  18  27
ENDBRANCH  17  22
ENDBRANCH   1  17
TORSDOF 7
ENDMDL
MODEL 5
REMARK VINA RESULT:    -7.612      2.610      3.227
REMARK INTER + INTRA:         -11.310
REMARK INTER:                 -10.593
REMARK INTRA:                  -0.716
REMARK UNBOUND:                -0.583
REMARK  Name = 
REMARK  7 active torsions:
REMARK  status: ('A' for Active; 'I' for Inactive)
REMARK    1  A    between atoms: C_2  and  C_4
REMARK    2  A    between atoms: N_8  and  C_9
REMARK    3  A    between atoms: C_9  and  C_10
REMARK    4  A    between atoms: C_10  and  C_12
REMARK    5  A    between atoms: C_10  and  C_14
REMARK    6  A    between atoms: C_18  and  O_19
REMARK    7  A    between atoms: O_19  and  C_20
REMARK                            x       y       z     vdW  Elec       q    Type
REMARK                         _______ _______ _______ _____ _____    ______ ____
ROOT
ATOM      1  C   UNL     1      44.334   4.979  12.088  0.00  0.00    +0.000 C 
ATOM      2  F   UNL     1      45.415   4.149  12.302  0.00  0.00    +0.000 F 
ENDROOT
BRANCH   1   3
ATOM      3  C   UNL     1      44.800   6.438  12.054  0.00  0.00    +0.000 A 
ATOM      4  C   UNL     1      44.207   7.414  11.233  0.00  0.00    +0.000 A 
ATOM      5  C   UNL     1      44.575   8.757  11.334  0.00  0.00    +0.000 A 
ATOM      6  C   UNL     1      45.556   9.147  12.241  0.00  0.00    +0.000 A 
ATOM      7  C   UNL     1      46.197   8.196  13.034  0.00  0.00    +0.000 A 
ATOM      8  C   UNL     1      45.827   6.850  12.924  0.00  0.00    +0.000 A 
ATOM      9  F   UNL     1      46.457   5.921  13.656  0.00  0.00    +0.000 F 
BRANCH   7  10
ATOM     10  O   UNL     1      47.167   8.712  13.857  0.00  0.00    +0.000 OA
BRANCH  10  11
ATOM     11  C   UNL     1      48.543   8.723  13.416  0.00  0.00    +0.000 C 
ATOM     12  C   UNL     1      48.845   8.332  11.963  0.00  0.00    +0.000 C 
ATOM     13  O   UNL     1      49.775   7.302  12.380  0.00  0.00    +0.000 OA
ATOM     14  C   UNL     1      49.340   7.454  13.751  0.00  0.00    +0.000 C 
ENDBRANCH  10  11
ENDBRANCH   7  10
ENDBRANCH   1   3
BRANCH   1  15
ATOM     15  C   UNL     1      43.395   4.694  13.273  0.00  0.00    +0.000 C 
ATOM     16  F   UNL     1      42.281   5.473  13.227  0.00  0.00    +0.000 F 
ENDBRANCH   1  15
BRANCH   1  17
ATOM     17  C   UNL     1      43.665   4.547  10.753  0.00  0.00    +0.000 C 
BRANCH  17  22
ATOM     18  C   UNL     1      46.651   2.713   7.191  0.00  0.00    +0.000 A 
ATOM     19  C   UNL     1      46.124   1.583   7.806  0.00  0.00    +0.000 A 
ATOM     20  C   UNL     1      45.267   1.748   8.894  0.00  0.00    +0.000 A 
ATOM     21  C   UNL     1      44.943   3.034   9.334  0.00  0.00    +0.000 A 
ATOM     22  N   UNL     1      44.005   3.158  10.371  0.00  0.00    +0.000 N 
ATOM     23  N   UNL     1      45.500   4.129   8.785  0.00  0.00    +0.000 NA
ATOM     24  C   UNL     1      46.346   3.951   7.737  0.00  0.00    +0.000 A 
ATOM     25  H   UNL     1      43.194   2.603  10.114  0.00  0.00    +0.000 HD
BRANCH  18  27
ATOM     26  N   UNL     1      48.784   2.244   6.143  0.00  0.00    +0.000 N 
ATOM     27  C   UNL     1      47.490   2.657   5.980  0.00  0.00    +0.000 C 
ATOM     28  O   UNL     1      47.037   2.902   4.873  0.00  0.00    +0.000 OA
ATOM     29  H   UNL     1      49.304   2.064   5.295  0.00  0.00    +0.000 HD
ATOM     30  H   UNL     1      49.104   1.786   6.989  0.00  0.00    +0.000 HD
ENDBRANCH  18  27
ENDBRANCH  17  22
ENDBRANCH   1  17
TORSDOF 7
ENDMDL
MODEL 6
REMARK VINA RESULT:    -7.380      3.693      7.063
REMARK INTER + INTRA:         -10.982
REMARK INTER:                 -10.118
REMARK INTRA:                  -0.865
REMARK UNBOUND:                -0.583
REMARK  Name = 
REMARK  7 active torsions:
REMARK  status: ('A' for Active; 'I' for Inactive)
REMARK    1  A    between atoms: C_2  and  C_4
REMARK    2  A    between atoms: N_8  and  C_9
REMARK    3  A    between atoms: C_9  and  C_10
REMARK    4  A    between atoms: C_10  and  C_12
REMARK    5  A    between atoms: C_10  and  C_14
REMARK    6  A    between atoms: C_18  and  O_19
REMARK    7  A    between atoms: O_19  and  C_20
REMARK                            x       y       z     vdW  Elec       q    Type
REMARK                         _______ _______ _______ _____ _____    ______ ____
ROOT
ATOM      1  C   UNL     1      44.103   5.674  11.677  0.00  0.00    +0.000 C 
ATOM      2  F   UNL     1      43.768   6.762  10.897  0.00  0.00    +0.000 F 
ENDROOT
BRANCH   1   3
ATOM      3  C   UNL     1      44.446   4.480  10.780  0.00  0.00    +0.000 A 
ATOM      4  C   UNL     1      43.892   3.200  10.961  0.00  0.00    +0.000 A 
ATOM      5  C   UNL     1      44.129   2.179  10.039  0.00  0.00    +0.000 A 
ATOM      6  C   UNL     1      44.942   2.409   8.933  0.00  0.00    +0.000 A 
ATOM      7  C   UNL     1      45.545   3.654   8.753  0.00  0.00    +0.000 A 
ATOM      8  C   UNL     1      45.307   4.673   9.683  0.00  0.00    +0.000 A 
ATOM      9  F   UNL     1      45.907   5.862   9.540  0.00  0.00    +0.000 F 
BRANCH   7  10
ATOM     10  O   UNL     1      46.348   3.733   7.641  0.00  0.00    +0.000 OA
BRANCH  10  11
ATOM     11  C   UNL     1      46.572   2.552   6.840  0.00  0.00    +0.000 C 
ATOM     12  C   UNL     1      47.881   1.775   7.037  0.00  0.00    +0.000 C 
ATOM     13  O   UNL     1      48.212   1.873   5.630  0.00  0.00    +0.000 OA
ATOM     14  C   UNL     1      47.134   2.819   5.436  0.00  0.00    +0.000 C 
ENDBRANCH  10  11
ENDBRANCH   7  10
ENDBRANCH   1   3
BRANCH   1  15
ATOM     15  C   UNL     1      42.852   5.419  12.534  0.00  0.00    +0.000 C 
ATOM     16  F   UNL     1      41.710   5.668  11.838  0.00  0.00    +0.000 F 
ENDBRANCH   1  15
BRANCH   1  17
ATOM     17  C   UNL     1      45.299   6.091  12.578  0.00  0.00    +0.000 C 
BRANCH  17  22
ATOM     18  C   UNL     1      49.676   8.457  12.116  0.00  0.00    +0.000 A 
ATOM     19  C   UNL     1      48.736   9.483  12.127  0.00  0.00    +0.000 A 
ATOM     20  C   UNL     1      47.384   9.153  12.202  0.00  0.00    +0.000 A 
ATOM     21  C   UNL     1      46.999   7.812  12.280  0.00  0.00    +0.000 A 
ATOM     22  N   UNL     1      45.634   7.527  12.448  0.00  0.00    +0.000 N 
ATOM     23  N   UNL     1      47.899   6.814  12.204  0.00  0.00    +0.000 NA
ATOM     24  C   UNL     1      49.211   7.151  12.114  0.00  0.00    +0.000 A 
ATOM     25  H   UNL     1      45.302   8.089  13.227  0.00  0.00    +0.000 HD
BRANCH  18  27
ATOM     26  N   UNL     1      51.918   7.751  11.532  0.00  0.00    +0.000 N 
ATOM     27  C   UNL     1      51.131   8.694  12.133  0.00  0.00    +0.000 C 
ATOM     28  O   UNL     1      51.610   9.717  12.600  0.00  0.00    +0.000 OA
ATOM     29  H   UNL     1      52.893   7.993  11.415  0.00  0.00    +0.000 HD
ATOM     30  H   UNL     1      51.539   7.044  10.913  0.00  0.00    +0.000 HD
ENDBRANCH  18  27
ENDBRANCH  17  22
ENDBRANCH   1  17
TORSDOF 7
ENDMDL
MODEL 7
REMARK VINA RESULT:    -7.220      3.189      7.939
REMARK INTER + INTRA:         -10.757
REMARK INTER:                 -10.060
REMARK INTRA:                  -0.697
REMARK UNBOUND:                -0.583
REMARK  Name = 
REMARK  7 active torsions:
REMARK  status: ('A' for Active; 'I' for Inactive)
REMARK    1  A    between atoms: C_2  and  C_4
REMARK    2  A    between atoms: N_8  and  C_9
REMARK    3  A    between atoms: C_9  and  C_10
REMARK    4  A    between atoms: C_10  and  C_12
REMARK    5  A    between atoms: C_10  and  C_14
REMARK    6  A    between atoms: C_18  and  O_19
REMARK    7  A    between atoms: O_19  and  C_20
REMARK                            x       y       z     vdW  Elec       q    Type
REMARK                         _______ _______ _______ _____ _____    ______ ____
ROOT
ATOM      1  C   UNL     1      45.274   5.981  11.507  0.00  0.00    +0.000 C 
ATOM      2  F   UNL     1      44.757   7.086  10.862  0.00  0.00    +0.000 F 
ENDROOT
BRANCH   1   3
ATOM      3  C   UNL     1      45.083   4.735  10.635  0.00  0.00    +0.000 A 
ATOM      4  C   UNL     1      44.374   3.599  11.064  0.00  0.00    +0.000 A 
ATOM      5  C   UNL     1      44.110   2.545  10.188  0.00  0.00    +0.000 A 
ATOM      6  C   UNL     1      44.569   2.595   8.875  0.00  0.00    +0.000 A 
ATOM      7  C   UNL     1      45.316   3.686   8.434  0.00  0.00    +0.000 A 
ATOM      8  C   UNL     1      45.582   4.738   9.318  0.00  0.00    +0.000 A 
ATOM      9  F   UNL     1      46.327   5.777   8.917  0.00  0.00    +0.000 F 
BRANCH   7  10
ATOM     10  O   UNL     1      45.734   3.589   7.129  0.00  0.00    +0.000 OA
BRANCH  10  11
ATOM     11  C   UNL     1      47.108   3.242   6.845  0.00  0.00    +0.000 C 
ATOM     12  C   UNL     1      47.466   2.792   5.423  0.00  0.00    +0.000 C 
ATOM     13  O   UNL     1      48.044   1.553   5.906  0.00  0.00    +0.000 OA
ATOM     14  C   UNL     1      47.505   1.809   7.224  0.00  0.00    +0.000 C 
ENDBRANCH  10  11
ENDBRANCH   7  10
ENDBRANCH   1   3
BRANCH   1  15
ATOM     15  C   UNL     1      44.480   5.900  12.821  0.00  0.00    +0.000 C 
ATOM     16  F   UNL     1      45.163   5.214  13.777  0.00  0.00    +0.000 F 
ENDBRANCH   1  15
BRANCH   1  17
ATOM     17  C   UNL     1      46.775   6.265  11.799  0.00  0.00    +0.000 C 
BRANCH  17  22
ATOM     18  C   UNL     1      48.864   7.563  16.147  0.00  0.00    +0.000 A 
ATOM     19  C   UNL     1      48.456   8.773  15.594  0.00  0.00    +0.000 A 
ATOM     20  C   UNL     1      47.862   8.766  14.332  0.00  0.00    +0.000 A 
ATOM     21  C   UNL     1      47.674   7.557  13.659  0.00  0.00    +0.000 A 
ATOM     22  N   UNL     1      46.989   7.585  12.434  0.00  0.00    +0.000 N 
ATOM     23  N   UNL     1      48.125   6.392  14.160  0.00  0.00    +0.000 NA
ATOM     24  C   UNL     1      48.717   6.417  15.382  0.00  0.00    +0.000 A 
ATOM     25  H   UNL     1      46.127   8.104  12.581  0.00  0.00    +0.000 HD
BRANCH  18  27
ATOM     26  N   UNL     1      48.700   8.022  18.521  0.00  0.00    +0.000 N 
ATOM     27  C   UNL     1      49.417   7.444  17.509  0.00  0.00    +0.000 C 
ATOM     28  O   UNL     1      50.432   6.803  17.736  0.00  0.00    +0.000 OA
ATOM     29  H   UNL     1      49.003   7.808  19.461  0.00  0.00    +0.000 HD
ATOM     30  H   UNL     1      47.739   8.320  18.401  0.00  0.00    +0.000 HD
ENDBRANCH  18  27
ENDBRANCH  17  22
ENDBRANCH   1  17
TORSDOF 7
ENDMDL
MODEL 8
REMARK VINA RESULT:    -6.895      3.679      8.057
REMARK INTER + INTRA:         -10.299
REMARK INTER:                  -9.993
REMARK INTRA:                  -0.306
REMARK UNBOUND:                -0.583
REMARK  Name = 
REMARK  7 active torsions:
REMARK  status: ('A' for Active; 'I' for Inactive)
REMARK    1  A    between atoms: C_2  and  C_4
REMARK    2  A    between atoms: N_8  and  C_9
REMARK    3  A    between atoms: C_9  and  C_10
REMARK    4  A    between atoms: C_10  and  C_12
REMARK    5  A    between atoms: C_10  and  C_14
REMARK    6  A    between atoms: C_18  and  O_19
REMARK    7  A    between atoms: O_19  and  C_20
REMARK                            x       y       z     vdW  Elec       q    Type
REMARK                         _______ _______ _______ _____ _____    ______ ____
ROOT
ATOM      1  C   UNL     1      46.663   6.424  12.606  0.00  0.00    +0.000 C 
ATOM      2  F   UNL     1      47.523   6.723  11.569  0.00  0.00    +0.000 F 
ENDROOT
BRANCH   1   3
ATOM      3  C   UNL     1      45.558   5.485  12.107  0.00  0.00    +0.000 A 
ATOM      4  C   UNL     1      44.652   4.841  12.969  0.00  0.00    +0.000 A 
ATOM      5  C   UNL     1      43.580   4.104  12.461  0.00  0.00    +0.000 A 
ATOM      6  C   UNL     1      43.406   3.978  11.086  0.00  0.00    +0.000 A 
ATOM      7  C   UNL     1      44.316   4.565  10.207  0.00  0.00    +0.000 A 
ATOM      8  C   UNL     1      45.392   5.299  10.722  0.00  0.00    +0.000 A 
ATOM      9  F   UNL     1      46.292   5.839   9.889  0.00  0.00    +0.000 F 
BRANCH   7  10
ATOM     10  O   UNL     1      44.045   4.332   8.881  0.00  0.00    +0.000 OA
BRANCH  10  11
ATOM     11  C   UNL     1      44.523   3.119   8.259  0.00  0.00    +0.000 C 
ATOM     12  C   UNL     1      45.440   2.196   9.073  0.00  0.00    +0.000 C 
ATOM     13  O   UNL     1      46.466   2.229   8.050  0.00  0.00    +0.000 OA
ATOM     14  C   UNL     1      45.760   3.291   7.367  0.00  0.00    +0.000 C 
ENDBRANCH  10  11
ENDBRANCH   7  10
ENDBRANCH   1   3
BRANCH   1  15
ATOM     15  C   UNL     1      46.111   7.789  13.050  0.00  0.00    +0.000 C 
ATOM     16  F   UNL     1      45.319   8.344  12.093  0.00  0.00    +0.000 F 
ENDBRANCH   1  15
BRANCH   1  17
ATOM     17  C   UNL     1      47.503   5.784  13.746  0.00  0.00    +0.000 C 
BRANCH  17  22
ATOM     18  C   UNL     1      49.256   5.287  18.398  0.00  0.00    +0.000 A 
ATOM     19  C   UNL     1      49.262   6.661  18.179  0.00  0.00    +0.000 A 
ATOM     20  C   UNL     1      48.864   7.143  16.933  0.00  0.00    +0.000 A 
ATOM     21  C   UNL     1      48.454   6.250  15.940  0.00  0.00    +0.000 A 
ATOM     22  N   UNL     1      47.972   6.781  14.734  0.00  0.00    +0.000 N 
ATOM     23  N   UNL     1      48.507   4.917  16.124  0.00  0.00    +0.000 NA
ATOM     24  C   UNL     1      48.913   4.463  17.338  0.00  0.00    +0.000 A 
ATOM     25  H   UNL     1      47.268   7.475  14.968  0.00  0.00    +0.000 HD
BRANCH  18  27
ATOM     26  N   UNL     1      48.570   3.959  20.305  0.00  0.00    +0.000 N 
ATOM     27  C   UNL     1      49.568   4.676  19.703  0.00  0.00    +0.000 C 
ATOM     28  O   UNL     1      50.684   4.747  20.195  0.00  0.00    +0.000 OA
ATOM     29  H   UNL     1      48.836   3.422  21.119  0.00  0.00    +0.000 HD
ATOM     30  H   UNL     1      47.740   3.663  19.806  0.00  0.00    +0.000 HD
ENDBRANCH  18  27
ENDBRANCH  17  22
ENDBRANCH   1  17
TORSDOF 7
ENDMDL
MODEL 9
REMARK VINA RESULT:    -6.844      4.102      6.497
REMARK INTER + INTRA:         -10.228
REMARK INTER:                  -9.596
REMARK INTRA:                  -0.632
REMARK UNBOUND:                -0.583
REMARK  Name = 
REMARK  7 active torsions:
REMARK  status: ('A' for Active; 'I' for Inactive)
REMARK    1  A    between atoms: C_2  and  C_4
REMARK    2  A    between atoms: N_8  and  C_9
REMARK    3  A    between atoms: C_9  and  C_10
REMARK    4  A    between atoms: C_10  and  C_12
REMARK    5  A    between atoms: C_10  and  C_14
REMARK    6  A    between atoms: C_18  and  O_19
REMARK    7  A    between atoms: O_19  and  C_20
REMARK                            x       y       z     vdW  Elec       q    Type
REMARK                         _______ _______ _______ _____ _____    ______ ____
ROOT
ATOM      1  C   UNL     1      48.047   3.886  17.276  0.00  0.00    +0.000 C 
ATOM      2  F   UNL     1      47.386   3.041  18.145  0.00  0.00    +0.000 F 
ENDROOT
BRANCH   1   3
ATOM      3  C   UNL     1      49.557   3.647  17.368  0.00  0.00    +0.000 A 
ATOM      4  C   UNL     1      50.474   4.656  17.717  0.00  0.00    +0.000 A 
ATOM      5  C   UNL     1      51.823   4.359  17.920  0.00  0.00    +0.000 A 
ATOM      6  C   UNL     1      52.286   3.057  17.758  0.00  0.00    +0.000 A 
ATOM      7  C   UNL     1      51.410   2.045  17.366  0.00  0.00    +0.000 A 
ATOM      8  C   UNL     1      50.059   2.349  17.159  0.00  0.00    +0.000 A 
ATOM      9  F   UNL     1      49.214   1.393  16.749  0.00  0.00    +0.000 F 
BRANCH   7  10
ATOM     10  O   UNL     1      52.006   0.817  17.210  0.00  0.00    +0.000 OA
BRANCH  10  11
ATOM     11  C   UNL     1      53.427   0.682  17.430  0.00  0.00    +0.000 C 
ATOM     12  C   UNL     1      54.248  -0.123  16.414  0.00  0.00    +0.000 C 
ATOM     13  O   UNL     1      54.769  -0.995  17.448  0.00  0.00    +0.000 OA
ATOM     14  C   UNL     1      53.829  -0.440  18.398  0.00  0.00    +0.000 C 
ENDBRANCH  10  11
ENDBRANCH   7  10
ENDBRANCH   1   3
BRANCH   1  15
ATOM     15  C   UNL     1      47.650   5.297  17.742  0.00  0.00    +0.000 C 
ATOM     16  F   UNL     1      46.494   5.280  18.459  0.00  0.00    +0.000 F 
ENDBRANCH   1  15
BRANCH   1  17
ATOM     17  C   UNL     1      47.498   3.614  15.847  0.00  0.00    +0.000 C 
BRANCH  17  22
ATOM     18  C   UNL     1      45.177   4.414  11.495  0.00  0.00    +0.000 A 
ATOM     19  C   UNL     1      45.526   5.688  11.932  0.00  0.00    +0.000 A 
ATOM     20  C   UNL     1      46.163   5.823  13.165  0.00  0.00    +0.000 A 
ATOM     21  C   UNL     1      46.453   4.688  13.926  0.00  0.00    +0.000 A 
ATOM     22  N   UNL     1      47.178   4.861  15.116  0.00  0.00    +0.000 N 
ATOM     23  N   UNL     1      46.060   3.460  13.539  0.00  0.00    +0.000 NA
ATOM     24  C   UNL     1      45.425   3.346  12.344  0.00  0.00    +0.000 A 
ATOM     25  H   UNL     1      47.998   5.417  14.892  0.00  0.00    +0.000 HD
BRANCH  18  27
ATOM     26  N   UNL     1      44.994   4.946   9.139  0.00  0.00    +0.000 N 
ATOM     27  C   UNL     1      44.585   4.148  10.171  0.00  0.00    +0.000 C 
ATOM     28  O   UNL     1      43.816   3.216   9.987  0.00  0.00    +0.000 OA
ATOM     29  H   UNL     1      44.702   4.663   8.214  0.00  0.00    +0.000 HD
ATOM     30  H   UNL     1      45.814   5.538   9.205  0.00  0.00    +0.000 HD
ENDBRANCH  18  27
ENDBRANCH  17  22
ENDBRANCH   1  17
TORSDOF 7
ENDMDL
