MODEL 1
REMARK VINA RESULT:    -8.379      0.000      0.000
REMARK INTER + INTRA:         -11.340
REMARK INTER:                 -10.583
REMARK INTRA:                  -0.756
REMARK UNBOUND:                -0.756
REMARK  Name = 
REMARK  5 active torsions:
REMARK  status: ('A' for Active; 'I' for Inactive)
REMARK    1  A    between atoms: N_1  and  C_2
REMARK    2  A    between atoms: C_2  and  C_3
REMARK    3  A    between atoms: C_6  and  C_7
REMARK    4  A    between atoms: C_7  and  C_8
REMARK    5  A    between atoms: C_14  and  C_15
REMARK                            x       y       z     vdW  Elec       q    Type
REMARK                         _______ _______ _______ _____ _____    ______ ____
ROOT
ATOM      1  C   UNL     1      44.115   4.322  11.194  0.00  0.00    +0.000 A 
ATOM      2  C   UNL     1      43.417   3.526  12.086  0.00  0.00    +0.000 A 
ATOM      3  N   UNL     1      44.042   3.588  13.303  0.00  0.00    +0.000 N 
ATOM      4  C   UNL     1      45.134   4.420  13.236  0.00  0.00    +0.000 A 
ATOM      5  C   UNL     1      46.075   4.751  14.218  0.00  0.00    +0.000 A 
ATOM      6  C   UNL     1      47.107   5.624  13.858  0.00  0.00    +0.000 A 
ATOM      7  C   UNL     1      47.190   6.169  12.569  0.00  0.00    +0.000 A 
ATOM      8  C   UNL     1      46.217   5.828  11.610  0.00  0.00    +0.000 A 
ATOM      9  C   UNL     1      45.187   4.922  11.938  0.00  0.00    +0.000 A 
ATOM     10  H   UNL     1      43.754   3.086  14.132  0.00  0.00    +0.000 HD
ENDROOT
BRANCH   7  11
ATOM     11  C   UNL     1      48.322   7.087  12.182  0.00  0.00    +0.000 C 
ATOM     12  F   UNL     1      48.392   7.330  10.841  0.00  0.00    +0.000 F 
ATOM     13  F   UNL     1      48.229   8.313  12.771  0.00  0.00    +0.000 F 
ATOM     14  F   UNL     1      49.542   6.596  12.531  0.00  0.00    +0.000 F 
ENDBRANCH   7  11
BRANCH   1  15
ATOM     15  C   UNL     1      43.804   4.533   9.745  0.00  0.00    +0.000 C 
BRANCH  15  19
ATOM     16  C   UNL     1      46.639   2.300   7.440  0.00  0.00    +0.000 A 
ATOM     17  C   UNL     1      45.862   1.636   8.395  0.00  0.00    +0.000 A 
ATOM     18  C   UNL     1      44.942   2.352   9.158  0.00  0.00    +0.000 A 
ATOM     19  C   UNL     1      44.814   3.729   8.959  0.00  0.00    +0.000 A 
ATOM     20  N   UNL     1      45.557   4.390   8.035  0.00  0.00    +0.000 NA
ATOM     21  C   UNL     1      46.447   3.671   7.312  0.00  0.00    +0.000 A 
BRANCH  16  22
ATOM     22  C   UNL     1      47.632   1.567   6.589  0.00  0.00    +0.000 C 
BRANCH  22  23
ATOM     23  N   UNL     1      48.664   2.468   6.077  0.00  0.00    +0.000 NA
ATOM     24  H   UNL     1      48.598   3.362   6.557  0.00  0.00    +0.000 HD
ATOM     25  H   UNL     1      48.477   2.655   5.092  0.00  0.00    +0.000 HD
ENDBRANCH  22  23
ENDBRANCH  16  22
ENDBRANCH  15  19
ENDBRANCH   1  15
TORSDOF 5
ENDMDL
MODEL 2
REMARK VINA RESULT:    -7.627      2.566      2.952
REMARK INTER + INTRA:         -10.390
REMARK INTER:                  -9.753
REMARK INTRA:                  -0.637
REMARK UNBOUND:                -0.756
REMARK  Name = 
REMARK  5 active torsions:
REMARK  status: ('A' for Active; 'I' for Inactive)
REMARK    1  A    between atoms: N_1  and  C_2
REMARK    2  A    between atoms: C_2  and  C_3
REMARK    3  A    between atoms: C_6  and  C_7
REMARK    4  A    between atoms: C_7  and  C_8
REMARK    5  A    between atoms: C_14  and  C_15
REMARK                            x       y       z     vdW  Elec       q    Type
REMARK                         _______ _______ _______ _____ _____    ______ ____
ROOT
ATOM      1  C   UNL     1      44.813   5.004  11.439  0.00  0.00    +0.000 A 
ATOM      2  C   UNL     1      45.601   4.313  12.343  0.00  0.00    +0.000 A 
ATOM      3  N   UNL     1      46.262   5.223  13.125  0.00  0.00    +0.000 N 
ATOM      4  C   UNL     1      45.917   6.503  12.762  0.00  0.00    +0.000 A 
ATOM      5  C   UNL     1      46.367   7.732  13.259  0.00  0.00    +0.000 A 
ATOM      6  C   UNL     1      45.846   8.895  12.680  0.00  0.00    +0.000 A 
ATOM      7  C   UNL     1      44.892   8.838  11.654  0.00  0.00    +0.000 A 
ATOM      8  C   UNL     1      44.449   7.586  11.189  0.00  0.00    +0.000 A 
ATOM      9  C   UNL     1      44.985   6.399  11.732  0.00  0.00    +0.000 A 
ATOM     10  H   UNL     1      46.922   4.993  13.856  0.00  0.00    +0.000 HD
ENDROOT
BRANCH   7  11
ATOM     11  C   UNL     1      44.357  10.097  11.017  0.00  0.00    +0.000 C 
ATOM     12  F   UNL     1      43.659   9.871   9.867  0.00  0.00    +0.000 F 
ATOM     13  F   UNL     1      43.505  10.778  11.834  0.00  0.00    +0.000 F 
ATOM     14  F   UNL     1      45.340  10.977  10.684  0.00  0.00    +0.000 F 
ENDBRANCH   7  11
BRANCH   1  15
ATOM     15  C   UNL     1      43.937   4.415  10.377  0.00  0.00    +0.000 C 
BRANCH  15  19
ATOM     16  C   UNL     1      46.488   2.506   7.517  0.00  0.00    +0.000 A 
ATOM     17  C   UNL     1      45.803   1.721   8.450  0.00  0.00    +0.000 A 
ATOM     18  C   UNL     1      44.976   2.330   9.392  0.00  0.00    +0.000 A 
ATOM     19  C   UNL     1      44.849   3.722   9.392  0.00  0.00    +0.000 A 
ATOM     20  N   UNL     1      45.503   4.499   8.491  0.00  0.00    +0.000 NA
ATOM     21  C   UNL     1      46.303   3.883   7.592  0.00  0.00    +0.000 A 
BRANCH  16  22
ATOM     22  C   UNL     1      47.378   1.892   6.478  0.00  0.00    +0.000 C 
BRANCH  22  23
ATOM     23  N   UNL     1      48.699   2.518   6.470  0.00  0.00    +0.000 NA
ATOM     24  H   UNL     1      48.597   3.518   6.319  0.00  0.00    +0.000 HD
ATOM     25  H   UNL     1      49.227   2.159   5.675  0.00  0.00    +0.000 HD
ENDBRANCH  22  23
ENDBRANCH  16  22
ENDBRANCH  15  19
ENDBRANCH   1  15
TORSDOF 5
ENDMDL
MODEL 3
REMARK VINA RESULT:    -7.152      3.180      5.919
REMARK INTER + INTRA:          -9.790
REMARK INTER:                  -9.388
REMARK INTRA:                  -0.402
REMARK UNBOUND:                -0.756
REMARK  Name = 
REMARK  5 active torsions:
REMARK  status: ('A' for Active; 'I' for Inactive)
REMARK    1  A    between atoms: N_1  and  C_2
REMARK    2  A    between atoms: C_2  and  C_3
REMARK    3  A    between atoms: C_6  and  C_7
REMARK    4  A    between atoms: C_7  and  C_8
REMARK    5  A    between atoms: C_14  and  C_15
REMARK                            x       y       z     vdW  Elec       q    Type
REMARK                         _______ _______ _______ _____ _____    ______ ____
ROOT
ATOM      1  C   UNL     1      43.861   5.374  11.094  0.00  0.00    +0.000 A 
ATOM      2  C   UNL     1      43.013   4.697  11.954  0.00  0.00    +0.000 A 
ATOM      3  N   UNL     1      43.025   3.369  11.617  0.00  0.00    +0.000 N 
ATOM      4  C   UNL     1      43.874   3.154  10.557  0.00  0.00    +0.000 A 
ATOM      5  C   UNL     1      44.169   1.973   9.866  0.00  0.00    +0.000 A 
ATOM      6  C   UNL     1      45.074   2.055   8.801  0.00  0.00    +0.000 A 
ATOM      7  C   UNL     1      45.681   3.268   8.447  0.00  0.00    +0.000 A 
ATOM      8  C   UNL     1      45.373   4.434   9.174  0.00  0.00    +0.000 A 
ATOM      9  C   UNL     1      44.439   4.385  10.229  0.00  0.00    +0.000 A 
ATOM     10  H   UNL     1      42.480   2.648  12.069  0.00  0.00    +0.000 HD
ENDROOT
BRANCH   7  11
ATOM     11  C   UNL     1      46.632   3.352   7.279  0.00  0.00    +0.000 C 
ATOM     12  F   UNL     1      47.628   2.420   7.320  0.00  0.00    +0.000 F 
ATOM     13  F   UNL     1      46.011   3.170   6.080  0.00  0.00    +0.000 F 
ATOM     14  F   UNL     1      47.260   4.557   7.197  0.00  0.00    +0.000 F 
ENDBRANCH   7  11
BRANCH   1  15
ATOM     15  C   UNL     1      44.138   6.845  11.080  0.00  0.00    +0.000 C 
BRANCH  15  19
ATOM     16  C   UNL     1      47.548   7.576  13.565  0.00  0.00    +0.000 A 
ATOM     17  C   UNL     1      47.393   6.319  12.973  0.00  0.00    +0.000 A 
ATOM     18  C   UNL     1      46.283   6.065  12.169  0.00  0.00    +0.000 A 
ATOM     19  C   UNL     1      45.337   7.073  11.971  0.00  0.00    +0.000 A 
ATOM     20  N   UNL     1      45.473   8.301  12.535  0.00  0.00    +0.000 NA
ATOM     21  C   UNL     1      46.556   8.520  13.315  0.00  0.00    +0.000 A 
BRANCH  16  22
ATOM     22  C   UNL     1      48.732   7.898  14.427  0.00  0.00    +0.000 C 
BRANCH  22  23
ATOM     23  N   UNL     1      49.836   6.971  14.184  0.00  0.00    +0.000 NA
ATOM     24  H   UNL     1      50.664   7.497  13.914  0.00  0.00    +0.000 HD
ATOM     25  H   UNL     1      49.599   6.379  13.388  0.00  0.00    +0.000 HD
ENDBRANCH  22  23
ENDBRANCH  16  22
ENDBRANCH  15  19
ENDBRANCH   1  15
TORSDOF 5
ENDMDL
MODEL 4
REMARK VINA RESULT:    -6.629      3.779      6.815
REMARK INTER + INTRA:          -9.130
REMARK INTER:                  -8.608
REMARK INTRA:                  -0.522
REMARK UNBOUND:                -0.756
REMARK  Name = 
REMARK  5 active torsions:
REMARK  status: ('A' for Active; 'I' for Inactive)
REMARK    1  A    between atoms: N_1  and  C_2
REMARK    2  A    between atoms: C_2  and  C_3
REMARK    3  A    between atoms: C_6  and  C_7
REMARK    4  A    between atoms: C_7  and  C_8
REMARK    5  A    between atoms: C_14  and  C_15
REMARK                            x       y       z     vdW  Elec       q    Type
REMARK                         _______ _______ _______ _____ _____    ______ ____
ROOT
ATOM      1  C   UNL     1      46.549   6.998  12.504  0.00  0.00    +0.000 A 
ATOM      2  C   UNL     1      45.943   8.201  12.820  0.00  0.00    +0.000 A 
ATOM      3  N   UNL     1      44.647   8.163  12.378  0.00  0.00    +0.000 N 
ATOM      4  C   UNL     1      44.381   6.951  11.786  0.00  0.00    +0.000 A 
ATOM      5  C   UNL     1      43.212   6.488  11.171  0.00  0.00    +0.000 A 
ATOM      6  C   UNL     1      43.233   5.197  10.631  0.00  0.00    +0.000 A 
ATOM      7  C   UNL     1      44.372   4.384  10.718  0.00  0.00    +0.000 A 
ATOM      8  C   UNL     1      45.525   4.876  11.358  0.00  0.00    +0.000 A 
ATOM      9  C   UNL     1      45.542   6.187  11.879  0.00  0.00    +0.000 A 
ATOM     10  H   UNL     1      43.981   8.918  12.461  0.00  0.00    +0.000 HD
ENDROOT
BRANCH   7  11
ATOM     11  C   UNL     1      44.394   3.005  10.108  0.00  0.00    +0.000 C 
ATOM     12  F   UNL     1      43.564   2.120  10.732  0.00  0.00    +0.000 F 
ATOM     13  F   UNL     1      44.014   3.003   8.799  0.00  0.00    +0.000 F 
ATOM     14  F   UNL     1      45.630   2.435  10.139  0.00  0.00    +0.000 F 
ENDBRANCH   7  11
BRANCH   1  15
ATOM     15  C   UNL     1      47.969   6.607  12.776  0.00  0.00    +0.000 C 
BRANCH  15  19
ATOM     16  C   UNL     1      47.904   4.539  16.524  0.00  0.00    +0.000 A 
ATOM     17  C   UNL     1      48.514   5.795  16.449  0.00  0.00    +0.000 A 
ATOM     18  C   UNL     1      48.550   6.475  15.233  0.00  0.00    +0.000 A 
ATOM     19  C   UNL     1      47.978   5.886  14.103  0.00  0.00    +0.000 A 
ATOM     20  N   UNL     1      47.378   4.669  14.158  0.00  0.00    +0.000 NA
ATOM     21  C   UNL     1      47.362   4.028  15.350  0.00  0.00    +0.000 A 
BRANCH  16  22
ATOM     22  C   UNL     1      47.832   3.778  17.814  0.00  0.00    +0.000 C 
BRANCH  22  23
ATOM     23  N   UNL     1      46.722   2.826  17.811  0.00  0.00    +0.000 NA
ATOM     24  H   UNL     1      46.102   3.036  17.032  0.00  0.00    +0.000 HD
ATOM     25  H   UNL     1      46.173   2.960  18.660  0.00  0.00    +0.000 HD
ENDBRANCH  22  23
ENDBRANCH  16  22
ENDBRANCH  15  19
ENDBRANCH   1  15
TORSDOF 5
ENDMDL
MODEL 5
REMARK VINA RESULT:    -6.358      4.682      7.526
REMARK INTER + INTRA:          -8.787
REMARK INTER:                  -8.434
REMARK INTRA:                  -0.354
REMARK UNBOUND:                -0.756
REMARK  Name = 
REMARK  5 active torsions:
REMARK  status: ('A' for Active; 'I' for Inactive)
REMARK    1  A    between atoms: N_1  and  C_2
REMARK    2  A    between atoms: C_2  and  C_3
REMARK    3  A    between atoms: C_6  and  C_7
REMARK    4  A    between atoms: C_7  and  C_8
REMARK    5  A    between atoms: C_14  and  C_15
REMARK                            x       y       z     vdW  Elec       q    Type
REMARK                         _______ _______ _______ _____ _____    ______ ____
ROOT
ATOM      1  C   UNL     1      47.374   5.018  15.230  0.00  0.00    +0.000 A 
ATOM      2  C   UNL     1      48.279   6.065  15.206  0.00  0.00    +0.000 A 
ATOM      3  N   UNL     1      48.189   6.689  13.990  0.00  0.00    +0.000 N 
ATOM      4  C   UNL     1      47.232   6.081  13.212  0.00  0.00    +0.000 A 
ATOM      5  C   UNL     1      46.830   6.357  11.900  0.00  0.00    +0.000 A 
ATOM      6  C   UNL     1      45.828   5.552  11.347  0.00  0.00    +0.000 A 
ATOM      7  C   UNL     1      45.230   4.518  12.081  0.00  0.00    +0.000 A 
ATOM      8  C   UNL     1      45.647   4.278  13.404  0.00  0.00    +0.000 A 
ATOM      9  C   UNL     1      46.680   5.052  13.973  0.00  0.00    +0.000 A 
ATOM     10  H   UNL     1      48.751   7.475  13.695  0.00  0.00    +0.000 HD
ENDROOT
BRANCH   7  11
ATOM     11  C   UNL     1      44.170   3.638  11.467  0.00  0.00    +0.000 C 
ATOM     12  F   UNL     1      43.435   2.947  12.386  0.00  0.00    +0.000 F 
ATOM     13  F   UNL     1      43.266   4.340  10.728  0.00  0.00    +0.000 F 
ATOM     14  F   UNL     1      44.688   2.697  10.629  0.00  0.00    +0.000 F 
ENDBRANCH   7  11
BRANCH   1  15
ATOM     15  C   UNL     1      47.146   4.052  16.350  0.00  0.00    +0.000 C 
BRANCH  15  19
ATOM     16  C   UNL     1      50.931   2.338  17.385  0.00  0.00    +0.000 A 
ATOM     17  C   UNL     1      50.556   3.557  17.957  0.00  0.00    +0.000 A 
ATOM     18  C   UNL     1      49.331   4.131  17.622  0.00  0.00    +0.000 A 
ATOM     19  C   UNL     1      48.496   3.477  16.712  0.00  0.00    +0.000 A 
ATOM     20  N   UNL     1      48.842   2.290  16.150  0.00  0.00    +0.000 NA
ATOM     21  C   UNL     1      50.039   1.759  16.488  0.00  0.00    +0.000 A 
BRANCH  16  22
ATOM     22  C   UNL     1      52.234   1.679  17.726  0.00  0.00    +0.000 C 
BRANCH  22  23
ATOM     23  N   UNL     1      52.038   0.293  18.148  0.00  0.00    +0.000 NA
ATOM     24  H   UNL     1      51.124  -0.027  17.836  0.00  0.00    +0.000 HD
ATOM     25  H   UNL     1      52.021   0.259  19.167  0.00  0.00    +0.000 HD
ENDBRANCH  22  23
ENDBRANCH  16  22
ENDBRANCH  15  19
ENDBRANCH   1  15
TORSDOF 5
ENDMDL
MODEL 6
REMARK VINA RESULT:    -6.256      3.469      6.620
REMARK INTER + INTRA:          -8.658
REMARK INTER:                  -8.465
REMARK INTRA:                  -0.193
REMARK UNBOUND:                -0.756
REMARK  Name = 
REMARK  5 active torsions:
REMARK  status: ('A' for Active; 'I' for Inactive)
REMARK    1  A    between atoms: N_1  and  C_2
REMARK    2  A    between atoms: C_2  and  C_3
REMARK    3  A    between atoms: C_6  and  C_7
REMARK    4  A    between atoms: C_7  and  C_8
REMARK    5  A    between atoms: C_14  and  C_15
REMARK                            x       y       z     vdW  Elec       q    Type
REMARK                         _______ _______ _______ _____ _____    ______ ____
ROOT
ATOM      1  C   UNL     1      44.792   3.653  11.339  0.00  0.00    +0.000 A 
ATOM      2  C   UNL     1      43.879   4.691  11.275  0.00  0.00    +0.000 A 
ATOM      3  N   UNL     1      43.625   4.964   9.957  0.00  0.00    +0.000 N 
ATOM      4  C   UNL     1      44.344   4.118   9.148  0.00  0.00    +0.000 A 
ATOM      5  C   UNL     1      44.422   4.057   7.752  0.00  0.00    +0.000 A 
ATOM      6  C   UNL     1      45.261   3.088   7.191  0.00  0.00    +0.000 A 
ATOM      7  C   UNL     1      45.984   2.193   7.992  0.00  0.00    +0.000 A 
ATOM      8  C   UNL     1      45.871   2.271   9.393  0.00  0.00    +0.000 A 
ATOM      9  C   UNL     1      45.059   3.262   9.984  0.00  0.00    +0.000 A 
ATOM     10  H   UNL     1      43.009   5.692   9.621  0.00  0.00    +0.000 HD
ENDROOT
BRANCH   7  11
ATOM     11  C   UNL     1      46.908   1.170   7.379  0.00  0.00    +0.000 C 
ATOM     12  F   UNL     1      48.230   1.478   7.517  0.00  0.00    +0.000 F 
ATOM     13  F   UNL     1      46.761  -0.068   7.930  0.00  0.00    +0.000 F 
ATOM     14  F   UNL     1      46.705   1.011   6.042  0.00  0.00    +0.000 F 
ENDBRANCH   7  11
BRANCH   1  15
ATOM     15  C   UNL     1      45.373   3.042  12.576  0.00  0.00    +0.000 C 
BRANCH  15  19
ATOM     16  C   UNL     1      47.820   6.012  14.455  0.00  0.00    +0.000 A 
ATOM     17  C   UNL     1      47.375   6.224  13.147  0.00  0.00    +0.000 A 
ATOM     18  C   UNL     1      46.585   5.261  12.520  0.00  0.00    +0.000 A 
ATOM     19  C   UNL     1      46.254   4.093  13.211  0.00  0.00    +0.000 A 
ATOM     20  N   UNL     1      46.674   3.872  14.484  0.00  0.00    +0.000 NA
ATOM     21  C   UNL     1      47.443   4.820  15.066  0.00  0.00    +0.000 A 
BRANCH  16  22
ATOM     22  C   UNL     1      48.661   7.026  15.172  0.00  0.00    +0.000 C 
BRANCH  22  23
ATOM     23  N   UNL     1      49.874   6.421  15.720  0.00  0.00    +0.000 NA
ATOM     24  H   UNL     1      49.797   6.373  16.733  0.00  0.00    +0.000 HD
ATOM     25  H   UNL     1      50.664   7.034  15.521  0.00  0.00    +0.000 HD
ENDBRANCH  22  23
ENDBRANCH  16  22
ENDBRANCH  15  19
ENDBRANCH   1  15
TORSDOF 5
ENDMDL
MODEL 7
REMARK VINA RESULT:    -5.964      3.596      6.702
REMARK INTER + INTRA:          -8.290
REMARK INTER:                  -8.101
REMARK INTRA:                  -0.189
REMARK UNBOUND:                -0.756
REMARK  Name = 
REMARK  5 active torsions:
REMARK  status: ('A' for Active; 'I' for Inactive)
REMARK    1  A    between atoms: N_1  and  C_2
REMARK    2  A    between atoms: C_2  and  C_3
REMARK    3  A    between atoms: C_6  and  C_7
REMARK    4  A    between atoms: C_7  and  C_8
REMARK    5  A    between atoms: C_14  and  C_15
REMARK                            x       y       z     vdW  Elec       q    Type
REMARK                         _______ _______ _______ _____ _____    ______ ____
ROOT
ATOM      1  C   UNL     1      46.272   7.127  11.886  0.00  0.00    +0.000 A 
ATOM      2  C   UNL     1      45.337   7.567  12.808  0.00  0.00    +0.000 A 
ATOM      3  N   UNL     1      44.157   6.911  12.575  0.00  0.00    +0.000 N 
ATOM      4  C   UNL     1      44.297   6.036  11.524  0.00  0.00    +0.000 A 
ATOM      5  C   UNL     1      43.355   5.193  10.923  0.00  0.00    +0.000 A 
ATOM      6  C   UNL     1      43.781   4.413   9.842  0.00  0.00    +0.000 A 
ATOM      7  C   UNL     1      45.106   4.454   9.386  0.00  0.00    +0.000 A 
ATOM      8  C   UNL     1      46.032   5.301  10.024  0.00  0.00    +0.000 A 
ATOM      9  C   UNL     1      45.619   6.124  11.092  0.00  0.00    +0.000 A 
ATOM     10  H   UNL     1      43.299   7.054  13.090  0.00  0.00    +0.000 HD
ENDROOT
BRANCH   7  11
ATOM     11  C   UNL     1      45.549   3.630   8.202  0.00  0.00    +0.000 C 
ATOM     12  F   UNL     1      45.996   2.386   8.541  0.00  0.00    +0.000 F 
ATOM     13  F   UNL     1      44.548   3.426   7.300  0.00  0.00    +0.000 F 
ATOM     14  F   UNL     1      46.566   4.210   7.508  0.00  0.00    +0.000 F 
ENDBRANCH   7  11
BRANCH   1  15
ATOM     15  C   UNL     1      47.689   7.590  11.754  0.00  0.00    +0.000 C 
BRANCH  15  19
ATOM     16  C   UNL     1      49.693   6.797  15.454  0.00  0.00    +0.000 A 
ATOM     17  C   UNL     1      48.529   6.086  15.143  0.00  0.00    +0.000 A 
ATOM     18  C   UNL     1      47.862   6.341  13.946  0.00  0.00    +0.000 A 
ATOM     19  C   UNL     1      48.367   7.309  13.075  0.00  0.00    +0.000 A 
ATOM     20  N   UNL     1      49.497   8.006  13.358  0.00  0.00    +0.000 NA
ATOM     21  C   UNL     1      50.122   7.744  14.529  0.00  0.00    +0.000 A 
BRANCH  16  22
ATOM     22  C   UNL     1      50.449   6.547  16.724  0.00  0.00    +0.000 C 
BRANCH  22  23
ATOM     23  N   UNL     1      50.570   5.116  17.002  0.00  0.00    +0.000 NA
ATOM     24  H   UNL     1      50.589   4.969  18.008  0.00  0.00    +0.000 HD
ATOM     25  H   UNL     1      51.467   4.788  16.646  0.00  0.00    +0.000 HD
ENDBRANCH  22  23
ENDBRANCH  16  22
ENDBRANCH  15  19
ENDBRANCH   1  15
TORSDOF 5
ENDMDL
MODEL 8
REMARK VINA RESULT:    -5.813      4.280      7.680
REMARK INTER + INTRA:          -8.099
REMARK INTER:                  -7.346
REMARK INTRA:                  -0.753
REMARK UNBOUND:                -0.756
REMARK  Name = 
REMARK  5 active torsions:
REMARK  status: ('A' for Active; 'I' for Inactive)
REMARK    1  A    between atoms: N_1  and  C_2
REMARK    2  A    between atoms: C_2  and  C_3
REMARK    3  A    between atoms: C_6  and  C_7
REMARK    4  A    between atoms: C_7  and  C_8
REMARK    5  A    between atoms: C_14  and  C_15
REMARK                            x       y       z     vdW  Elec       q    Type
REMARK                         _______ _______ _______ _____ _____    ______ ____
ROOT
ATOM      1  C   UNL     1      47.780   7.613  13.262  0.00  0.00    +0.000 A 
ATOM      2  C   UNL     1      47.366   8.923  13.092  0.00  0.00    +0.000 A 
ATOM      3  N   UNL     1      46.107   8.912  12.551  0.00  0.00    +0.000 N 
ATOM      4  C   UNL     1      45.676   7.619  12.371  0.00  0.00    +0.000 A 
ATOM      5  C   UNL     1      44.483   7.137  11.822  0.00  0.00    +0.000 A 
ATOM      6  C   UNL     1      44.318   5.749  11.748  0.00  0.00    +0.000 A 
ATOM      7  C   UNL     1      45.301   4.869  12.222  0.00  0.00    +0.000 A 
ATOM      8  C   UNL     1      46.483   5.388  12.783  0.00  0.00    +0.000 A 
ATOM      9  C   UNL     1      46.688   6.783  12.837  0.00  0.00    +0.000 A 
ATOM     10  H   UNL     1      45.572   9.734  12.305  0.00  0.00    +0.000 HD
ENDROOT
BRANCH   7  11
ATOM     11  C   UNL     1      45.127   3.374  12.112  0.00  0.00    +0.000 C 
ATOM     12  F   UNL     1      45.220   2.908  10.833  0.00  0.00    +0.000 F 
ATOM     13  F   UNL     1      46.062   2.683  12.822  0.00  0.00    +0.000 F 
ATOM     14  F   UNL     1      43.918   2.949  12.572  0.00  0.00    +0.000 F 
ENDBRANCH   7  11
BRANCH   1  15
ATOM     15  C   UNL     1      49.098   7.150  13.800  0.00  0.00    +0.000 C 
BRANCH  15  19
ATOM     16  C   UNL     1      48.412   6.124  17.900  0.00  0.00    +0.000 A 
ATOM     17  C   UNL     1      48.644   7.461  17.562  0.00  0.00    +0.000 A 
ATOM     18  C   UNL     1      48.877   7.808  16.232  0.00  0.00    +0.000 A 
ATOM     19  C   UNL     1      48.881   6.809  15.255  0.00  0.00    +0.000 A 
ATOM     20  N   UNL     1      48.655   5.506  15.565  0.00  0.00    +0.000 NA
ATOM     21  C   UNL     1      48.437   5.196  16.864  0.00  0.00    +0.000 A 
BRANCH  16  22
ATOM     22  C   UNL     1      48.145   5.708  19.316  0.00  0.00    +0.000 C 
BRANCH  22  23
ATOM     23  N   UNL     1      46.717   5.499  19.550  0.00  0.00    +0.000 NA
ATOM     24  H   UNL     1      46.183   6.062  18.893  0.00  0.00    +0.000 HD
ATOM     25  H   UNL     1      46.483   5.845  20.480  0.00  0.00    +0.000 HD
ENDBRANCH  22  23
ENDBRANCH  16  22
ENDBRANCH  15  19
ENDBRANCH   1  15
TORSDOF 5
ENDMDL
MODEL 9
REMARK VINA RESULT:    -5.559      3.282      5.400
REMARK INTER + INTRA:          -7.778
REMARK INTER:                  -7.296
REMARK INTRA:                  -0.482
REMARK UNBOUND:                -0.756
REMARK  Name = 
REMARK  5 active torsions:
REMARK  status: ('A' for Active; 'I' for Inactive)
REMARK    1  A    between atoms: N_1  and  C_2
REMARK    2  A    between atoms: C_2  and  C_3
REMARK    3  A    between atoms: C_6  and  C_7
REMARK    4  A    between atoms: C_7  and  C_8
REMARK    5  A    between atoms: C_14  and  C_15
REMARK                            x       y       z     vdW  Elec       q    Type
REMARK                         _______ _______ _______ _____ _____    ______ ____
ROOT
ATOM      1  C   UNL     1      47.210   7.948  13.022  0.00  0.00    +0.000 A 
ATOM      2  C   UNL     1      46.083   8.744  13.132  0.00  0.00    +0.000 A 
ATOM      3  N   UNL     1      46.347   9.952  12.543  0.00  0.00    +0.000 N 
ATOM      4  C   UNL     1      47.624   9.966  12.035  0.00  0.00    +0.000 A 
ATOM      5  C   UNL     1      48.323  10.990  11.387  0.00  0.00    +0.000 A 
ATOM      6  C   UNL     1      49.637  10.724  10.986  0.00  0.00    +0.000 A 
ATOM      7  C   UNL     1      50.230   9.473  11.203  0.00  0.00    +0.000 A 
ATOM      8  C   UNL     1      49.492   8.459  11.843  0.00  0.00    +0.000 A 
ATOM      9  C   UNL     1      48.179   8.713  12.289  0.00  0.00    +0.000 A 
ATOM     10  H   UNL     1      45.704  10.731  12.497  0.00  0.00    +0.000 HD
ENDROOT
BRANCH   7  11
ATOM     11  C   UNL     1      51.657   9.204  10.792  0.00  0.00    +0.000 C 
ATOM     12  F   UNL     1      52.005   9.795   9.613  0.00  0.00    +0.000 F 
ATOM     13  F   UNL     1      52.561   9.654  11.707  0.00  0.00    +0.000 F 
ATOM     14  F   UNL     1      51.917   7.878  10.630  0.00  0.00    +0.000 F 
ENDBRANCH   7  11
BRANCH   1  15
ATOM     15  C   UNL     1      47.381   6.556  13.545  0.00  0.00    +0.000 C 
BRANCH  15  19
ATOM     16  C   UNL     1      44.709   3.989  11.397  0.00  0.00    +0.000 A 
ATOM     17  C   UNL     1      45.323   5.051  10.725  0.00  0.00    +0.000 A 
ATOM     18  C   UNL     1      46.188   5.899  11.414  0.00  0.00    +0.000 A 
ATOM     19  C   UNL     1      46.425   5.677  12.773  0.00  0.00    +0.000 A 
ATOM     20  N   UNL     1      45.841   4.649  13.441  0.00  0.00    +0.000 NA
ATOM     21  C   UNL     1      45.001   3.845  12.750  0.00  0.00    +0.000 A 
BRANCH  16  22
ATOM     22  C   UNL     1      43.782   3.045  10.693  0.00  0.00    +0.000 C 
BRANCH  22  23
ATOM     23  N   UNL     1      43.046   2.212  11.642  0.00  0.00    +0.000 NA
ATOM     24  H   UNL     1      43.498   1.304  11.714  0.00  0.00    +0.000 HD
ATOM     25  H   UNL     1      42.112   2.039  11.271  0.00  0.00    +0.000 HD
ENDBRANCH  22  23
ENDBRANCH  16  22
ENDBRANCH  15  19
ENDBRANCH   1  15
TORSDOF 5
ENDMDL
