MODEL 1
REMARK VINA RESULT:    -6.154      0.000      0.000
REMARK INTER + INTRA:          -8.302
REMARK INTER:                  -7.593
REMARK INTRA:                  -0.710
REMARK UNBOUND:                -0.710
REMARK  Name = 
REMARK  5 active torsions:
REMARK  status: ('A' for Active; 'I' for Inactive)
REMARK    1  A    between atoms: C_1  and  C_2
REMARK    2  A    between atoms: C_2  and  C_3
REMARK    3  A    between atoms: C_7  and  C_8
REMARK    4  A    between atoms: C_9  and  C_10
REMARK    5  A    between atoms: C_13  and  C_14
REMARK                            x       y       z     vdW  Elec       q    Type
REMARK                         _______ _______ _______ _____ _____    ______ ____
ROOT
ATOM      1  C   UNL     1      48.087   7.259  11.689  0.00  0.00    +0.000 C 
ATOM      2  C   UNL     1      49.378   7.363  12.050  0.00  0.00    +0.000 C 
ENDROOT
BRANCH   1   7
ATOM      3  C   UNL     1      44.975   5.142  12.060  0.00  0.00    +0.000 A 
ATOM      4  C   UNL     1      45.245   4.515  13.293  0.00  0.00    +0.000 A 
ATOM      5  C   UNL     1      46.405   4.797  14.017  0.00  0.00    +0.000 A 
ATOM      6  C   UNL     1      47.332   5.709  13.523  0.00  0.00    +0.000 A 
ATOM      7  C   UNL     1      47.094   6.369  12.314  0.00  0.00    +0.000 A 
ATOM      8  C   UNL     1      45.910   6.088  11.605  0.00  0.00    +0.000 A 
BRANCH   3  10
ATOM      9  C   UNL     1      42.592   5.671  11.550  0.00  0.00    +0.000 C 
ATOM     10  C   UNL     1      43.751   4.706  11.237  0.00  0.00    +0.000 C 
ATOM     11  C   UNL     1      44.076   4.657   9.740  0.00  0.00    +0.000 C 
ATOM     12  C   UNL     1      44.426   3.202   9.462  0.00  0.00    +0.000 C 
ATOM     13  O   UNL     1      44.078   2.434  10.619  0.00  0.00    +0.000 OA
ATOM     14  C   UNL     1      43.259   3.265  11.447  0.00  0.00    +0.000 C 
ENDBRANCH   3  10
ENDBRANCH   1   7
BRANCH   2  15
ATOM     15  C   UNL     1      50.346   8.248  11.381  0.00  0.00    +0.000 A 
ATOM     16  C   UNL     1      50.219   9.645  11.391  0.00  0.00    +0.000 A 
ATOM     17  C   UNL     1      51.159  10.453  10.745  0.00  0.00    +0.000 A 
ATOM     18  C   UNL     1      52.258   9.880  10.102  0.00  0.00    +0.000 A 
ATOM     19  C   UNL     1      52.404   8.489  10.097  0.00  0.00    +0.000 A 
ATOM     20  C   UNL     1      51.454   7.682  10.737  0.00  0.00    +0.000 A 
BRANCH  18  21
ATOM     21  C   UNL     1      53.218  10.788   9.420  0.00  0.00    +0.000 C 
ATOM     22  N   UNL     1      52.864  11.276   8.194  0.00  0.00    +0.000 N 
ATOM     23  O   UNL     1      54.303  11.065   9.916  0.00  0.00    +0.000 OA
ATOM     24  H   UNL     1      52.103  10.896   7.653  0.00  0.00    +0.000 HD
ATOM     25  H   UNL     1      53.579  11.799   7.703  0.00  0.00    +0.000 HD
ENDBRANCH  18  21
ENDBRANCH   2  15
TORSDOF 4
ENDMDL
MODEL 2
REMARK VINA RESULT:    -6.041      5.047      8.372
REMARK INTER + INTRA:          -8.164
REMARK INTER:                  -7.454
REMARK INTRA:                  -0.710
REMARK UNBOUND:                -0.710
REMARK  Name = 
REMARK  5 active torsions:
REMARK  status: ('A' for Active; 'I' for Inactive)
REMARK    1  A    between atoms: C_1  and  C_2
REMARK    2  A    between atoms: C_2  and  C_3
REMARK    3  A    between atoms: C_7  and  C_8
REMARK    4  A    between atoms: C_9  and  C_10
REMARK    5  A    between atoms: C_13  and  C_14
REMARK                            x       y       z     vdW  Elec       q    Type
REMARK                         _______ _______ _______ _____ _____    ______ ____
ROOT
ATOM      1  C   UNL     1      47.472   4.007  15.236  0.00  0.00    +0.000 C 
ATOM      2  C   UNL     1      46.704   4.924  14.622  0.00  0.00    +0.000 C 
ENDROOT
BRANCH   1   7
ATOM      3  C   UNL     1      48.392   5.488  18.591  0.00  0.00    +0.000 A 
ATOM      4  C   UNL     1      48.548   4.311  19.350  0.00  0.00    +0.000 A 
ATOM      5  C   UNL     1      48.391   3.047  18.777  0.00  0.00    +0.000 A 
ATOM      6  C   UNL     1      48.066   2.927  17.429  0.00  0.00    +0.000 A 
ATOM      7  C   UNL     1      47.922   4.068  16.636  0.00  0.00    +0.000 A 
ATOM      8  C   UNL     1      48.102   5.335  17.224  0.00  0.00    +0.000 A 
BRANCH   3  10
ATOM      9  C   UNL     1      47.513   6.808  20.516  0.00  0.00    +0.000 C 
ATOM     10  C   UNL     1      48.446   6.856  19.291  0.00  0.00    +0.000 C 
ATOM     11  C   UNL     1      49.883   7.230  19.673  0.00  0.00    +0.000 C 
ATOM     12  C   UNL     1      50.375   8.111  18.533  0.00  0.00    +0.000 C 
ATOM     13  O   UNL     1      49.251   8.438  17.709  0.00  0.00    +0.000 OA
ATOM     14  C   UNL     1      48.073   8.080  18.440  0.00  0.00    +0.000 C 
ENDBRANCH   3  10
ENDBRANCH   1   7
BRANCH   2  15
ATOM     15  C   UNL     1      46.298   4.838  13.209  0.00  0.00    +0.000 A 
ATOM     16  C   UNL     1      45.686   3.696  12.671  0.00  0.00    +0.000 A 
ATOM     17  C   UNL     1      45.313   3.651  11.325  0.00  0.00    +0.000 A 
ATOM     18  C   UNL     1      45.518   4.758  10.499  0.00  0.00    +0.000 A 
ATOM     19  C   UNL     1      46.113   5.909  11.027  0.00  0.00    +0.000 A 
ATOM     20  C   UNL     1      46.495   5.946  12.374  0.00  0.00    +0.000 A 
BRANCH  18  21
ATOM     21  C   UNL     1      45.114   4.649   9.073  0.00  0.00    +0.000 C 
ATOM     22  N   UNL     1      43.812   4.329   8.808  0.00  0.00    +0.000 N 
ATOM     23  O   UNL     1      45.919   4.804   8.163  0.00  0.00    +0.000 OA
ATOM     24  H   UNL     1      43.184   3.967   9.509  0.00  0.00    +0.000 HD
ATOM     25  H   UNL     1      43.589   4.151   7.836  0.00  0.00    +0.000 HD
ENDBRANCH  18  21
ENDBRANCH   2  15
TORSDOF 4
ENDMDL
MODEL 3
REMARK VINA RESULT:    -6.013      3.238      8.878
REMARK INTER + INTRA:          -8.129
REMARK INTER:                  -7.376
REMARK INTRA:                  -0.754
REMARK UNBOUND:                -0.710
REMARK  Name = 
REMARK  5 active torsions:
REMARK  status: ('A' for Active; 'I' for Inactive)
REMARK    1  A    between atoms: C_1  and  C_2
REMARK    2  A    between atoms: C_2  and  C_3
REMARK    3  A    between atoms: C_7  and  C_8
REMARK    4  A    between atoms: C_9  and  C_10
REMARK    5  A    between atoms: C_13  and  C_14
REMARK                            x       y       z     vdW  Elec       q    Type
REMARK                         _______ _______ _______ _____ _____    ______ ____
ROOT
ATOM      1  C   UNL     1      49.140   7.762  11.538  0.00  0.00    +0.000 C 
ATOM      2  C   UNL     1      48.651   6.869  12.416  0.00  0.00    +0.000 C 
ENDROOT
BRANCH   1   7
ATOM      3  C   UNL     1      52.721   7.854  10.326  0.00  0.00    +0.000 A 
ATOM      4  C   UNL     1      53.178   9.011  10.986  0.00  0.00    +0.000 A 
ATOM      5  C   UNL     1      52.350   9.739  11.842  0.00  0.00    +0.000 A 
ATOM      6  C   UNL     1      51.036   9.332  12.056  0.00  0.00    +0.000 A 
ATOM      7  C   UNL     1      50.548   8.178  11.437  0.00  0.00    +0.000 A 
ATOM      8  C   UNL     1      51.402   7.444  10.591  0.00  0.00    +0.000 A 
BRANCH   3  10
ATOM      9  C   UNL     1      54.439   6.073  10.021  0.00  0.00    +0.000 C 
ATOM     10  C   UNL     1      53.625   7.159   9.294  0.00  0.00    +0.000 C 
ATOM     11  C   UNL     1      52.806   6.588   8.131  0.00  0.00    +0.000 C 
ATOM     12  C   UNL     1      52.868   7.654   7.046  0.00  0.00    +0.000 C 
ATOM     13  O   UNL     1      53.847   8.625   7.435  0.00  0.00    +0.000 OA
ATOM     14  C   UNL     1      54.597   8.059   8.514  0.00  0.00    +0.000 C 
ENDBRANCH   3  10
ENDBRANCH   1   7
BRANCH   2  15
ATOM     15  C   UNL     1      47.229   6.499  12.503  0.00  0.00    +0.000 A 
ATOM     16  C   UNL     1      46.784   5.393  13.243  0.00  0.00    +0.000 A 
ATOM     17  C   UNL     1      45.424   5.074  13.303  0.00  0.00    +0.000 A 
ATOM     18  C   UNL     1      44.483   5.870  12.648  0.00  0.00    +0.000 A 
ATOM     19  C   UNL     1      44.912   6.984  11.919  0.00  0.00    +0.000 A 
ATOM     20  C   UNL     1      46.277   7.295  11.852  0.00  0.00    +0.000 A 
BRANCH  18  21
ATOM     21  C   UNL     1      43.053   5.474  12.735  0.00  0.00    +0.000 C 
ATOM     22  N   UNL     1      42.185   6.040  11.843  0.00  0.00    +0.000 N 
ATOM     23  O   UNL     1      42.651   4.698  13.593  0.00  0.00    +0.000 OA
ATOM     24  H   UNL     1      42.422   6.845  11.285  0.00  0.00    +0.000 HD
ATOM     25  H   UNL     1      41.203   5.841  11.994  0.00  0.00    +0.000 HD
ENDBRANCH  18  21
ENDBRANCH   2  15
TORSDOF 4
ENDMDL
MODEL 4
REMARK VINA RESULT:    -5.727      5.379      8.840
REMARK INTER + INTRA:          -7.776
REMARK INTER:                  -7.066
REMARK INTRA:                  -0.710
REMARK UNBOUND:                -0.710
REMARK  Name = 
REMARK  5 active torsions:
REMARK  status: ('A' for Active; 'I' for Inactive)
REMARK    1  A    between atoms: C_1  and  C_2
REMARK    2  A    between atoms: C_2  and  C_3
REMARK    3  A    between atoms: C_7  and  C_8
REMARK    4  A    between atoms: C_9  and  C_10
REMARK    5  A    between atoms: C_13  and  C_14
REMARK                            x       y       z     vdW  Elec       q    Type
REMARK                         _______ _______ _______ _____ _____    ______ ____
ROOT
ATOM      1  C   UNL     1      48.119   6.017  15.076  0.00  0.00    +0.000 C 
ATOM      2  C   UNL     1      47.844   6.476  13.843  0.00  0.00    +0.000 C 
ENDROOT
BRANCH   1   7
ATOM      3  C   UNL     1      49.668   7.049  18.368  0.00  0.00    +0.000 A 
ATOM      4  C   UNL     1      50.918   7.520  17.920  0.00  0.00    +0.000 A 
ATOM      5  C   UNL     1      51.248   7.536  16.563  0.00  0.00    +0.000 A 
ATOM      6  C   UNL     1      50.338   7.074  15.617  0.00  0.00    +0.000 A 
ATOM      7  C   UNL     1      49.079   6.618  16.017  0.00  0.00    +0.000 A 
ATOM      8  C   UNL     1      48.754   6.626  17.388  0.00  0.00    +0.000 A 
BRANCH   3  10
ATOM      9  C   UNL     1      49.190   8.346  20.444  0.00  0.00    +0.000 C 
ATOM     10  C   UNL     1      49.398   6.929  19.877  0.00  0.00    +0.000 C 
ATOM     11  C   UNL     1      48.201   6.013  20.157  0.00  0.00    +0.000 C 
ATOM     12  C   UNL     1      48.811   4.648  20.446  0.00  0.00    +0.000 C 
ATOM     13  O   UNL     1      50.226   4.817  20.586  0.00  0.00    +0.000 OA
ATOM     14  C   UNL     1      50.474   6.220  20.715  0.00  0.00    +0.000 C 
ENDBRANCH   3  10
ENDBRANCH   1   7
BRANCH   2  15
ATOM     15  C   UNL     1      46.896   5.829  12.921  0.00  0.00    +0.000 A 
ATOM     16  C   UNL     1      46.218   4.645  13.250  0.00  0.00    +0.000 A 
ATOM     17  C   UNL     1      45.323   4.059  12.349  0.00  0.00    +0.000 A 
ATOM     18  C   UNL     1      45.068   4.662  11.116  0.00  0.00    +0.000 A 
ATOM     19  C   UNL     1      45.726   5.851  10.782  0.00  0.00    +0.000 A 
ATOM     20  C   UNL     1      46.630   6.429  11.684  0.00  0.00    +0.000 A 
BRANCH  18  21
ATOM     21  C   UNL     1      44.118   3.988  10.194  0.00  0.00    +0.000 C 
ATOM     22  N   UNL     1      44.073   4.428   8.900  0.00  0.00    +0.000 N 
ATOM     23  O   UNL     1      43.374   3.094  10.577  0.00  0.00    +0.000 OA
ATOM     24  H   UNL     1      44.487   5.298   8.604  0.00  0.00    +0.000 HD
ATOM     25  H   UNL     1      43.343   4.030   8.323  0.00  0.00    +0.000 HD
ENDBRANCH  18  21
ENDBRANCH   2  15
TORSDOF 4
ENDMDL
MODEL 5
REMARK VINA RESULT:    -5.504      5.050      6.100
REMARK INTER + INTRA:          -7.501
REMARK INTER:                  -6.781
REMARK INTRA:                  -0.720
REMARK UNBOUND:                -0.710
REMARK  Name = 
REMARK  5 active torsions:
REMARK  status: ('A' for Active; 'I' for Inactive)
REMARK    1  A    between atoms: C_1  and  C_2
REMARK    2  A    between atoms: C_2  and  C_3
REMARK    3  A    between atoms: C_7  and  C_8
REMARK    4  A    between atoms: C_9  and  C_10
REMARK    5  A    between atoms: C_13  and  C_14
REMARK                            x       y       z     vdW  Elec       q    Type
REMARK                         _______ _______ _______ _____ _____    ______ ____
ROOT
ATOM      1  C   UNL     1      47.944   6.175  14.455  0.00  0.00    +0.000 C 
ATOM      2  C   UNL     1      48.944   6.917  14.959  0.00  0.00    +0.000 C 
ENDROOT
BRANCH   1   7
ATOM      3  C   UNL     1      45.561   5.861  11.535  0.00  0.00    +0.000 A 
ATOM      4  C   UNL     1      45.150   7.202  11.402  0.00  0.00    +0.000 A 
ATOM      5  C   UNL     1      45.663   8.207  12.224  0.00  0.00    +0.000 A 
ATOM      6  C   UNL     1      46.595   7.896  13.210  0.00  0.00    +0.000 A 
ATOM      7  C   UNL     1      47.044   6.582  13.362  0.00  0.00    +0.000 A 
ATOM      8  C   UNL     1      46.532   5.582  12.512  0.00  0.00    +0.000 A 
BRANCH   3  10
ATOM      9  C   UNL     1      45.488   4.792   9.283  0.00  0.00    +0.000 C 
ATOM     10  C   UNL     1      44.876   4.769  10.696  0.00  0.00    +0.000 C 
ATOM     11  C   UNL     1      45.004   3.394  11.360  0.00  0.00    +0.000 C 
ATOM     12  C   UNL     1      43.708   3.211  12.137  0.00  0.00    +0.000 C 
ATOM     13  O   UNL     1      42.806   4.252  11.746  0.00  0.00    +0.000 OA
ATOM     14  C   UNL     1      43.347   4.857  10.568  0.00  0.00    +0.000 C 
ENDBRANCH   3  10
ENDBRANCH   1   7
BRANCH   2  15
ATOM     15  C   UNL     1      49.805   6.483  16.072  0.00  0.00    +0.000 A 
ATOM     16  C   UNL     1      49.384   5.541  17.024  0.00  0.00    +0.000 A 
ATOM     17  C   UNL     1      50.230   5.153  18.067  0.00  0.00    +0.000 A 
ATOM     18  C   UNL     1      51.521   5.676  18.161  0.00  0.00    +0.000 A 
ATOM     19  C   UNL     1      51.958   6.605  17.210  0.00  0.00    +0.000 A 
ATOM     20  C   UNL     1      51.103   7.000  16.172  0.00  0.00    +0.000 A 
BRANCH  18  21
ATOM     21  C   UNL     1      52.371   5.237  19.298  0.00  0.00    +0.000 C 
ATOM     22  N   UNL     1      53.117   6.189  19.934  0.00  0.00    +0.000 N 
ATOM     23  O   UNL     1      52.433   4.061  19.637  0.00  0.00    +0.000 OA
ATOM     24  H   UNL     1      53.276   7.106  19.548  0.00  0.00    +0.000 HD
ATOM     25  H   UNL     1      53.769   5.848  20.630  0.00  0.00    +0.000 HD
ENDBRANCH  18  21
ENDBRANCH   2  15
TORSDOF 4
ENDMDL
MODEL 6
REMARK VINA RESULT:    -5.440      3.194      9.143
REMARK INTER + INTRA:          -7.422
REMARK INTER:                  -6.697
REMARK INTRA:                  -0.725
REMARK UNBOUND:                -0.710
REMARK  Name = 
REMARK  5 active torsions:
REMARK  status: ('A' for Active; 'I' for Inactive)
REMARK    1  A    between atoms: C_1  and  C_2
REMARK    2  A    between atoms: C_2  and  C_3
REMARK    3  A    between atoms: C_7  and  C_8
REMARK    4  A    between atoms: C_9  and  C_10
REMARK    5  A    between atoms: C_13  and  C_14
REMARK                            x       y       z     vdW  Elec       q    Type
REMARK                         _______ _______ _______ _____ _____    ______ ____
ROOT
ATOM      1  C   UNL     1      49.107   7.303  11.739  0.00  0.00    +0.000 C 
ATOM      2  C   UNL     1      47.783   7.515  11.831  0.00  0.00    +0.000 C 
ENDROOT
BRANCH   1   7
ATOM      3  C   UNL     1      52.306   9.085  10.793  0.00  0.00    +0.000 A 
ATOM      4  C   UNL     1      52.073  10.345  11.380  0.00  0.00    +0.000 A 
ATOM      5  C   UNL     1      50.909  10.609  12.105  0.00  0.00    +0.000 A 
ATOM      6  C   UNL     1      49.941   9.620  12.255  0.00  0.00    +0.000 A 
ATOM      7  C   UNL     1      50.141   8.351  11.706  0.00  0.00    +0.000 A 
ATOM      8  C   UNL     1      51.329   8.094  10.994  0.00  0.00    +0.000 A 
BRANCH   3  10
ATOM      9  C   UNL     1      53.281   9.589   8.554  0.00  0.00    +0.000 C 
ATOM     10  C   UNL     1      53.539   8.880   9.897  0.00  0.00    +0.000 C 
ATOM     11  C   UNL     1      54.814   9.384  10.582  0.00  0.00    +0.000 C 
ATOM     12  C   UNL     1      55.429   8.149  11.225  0.00  0.00    +0.000 C 
ATOM     13  O   UNL     1      54.728   7.000  10.735  0.00  0.00    +0.000 OA
ATOM     14  C   UNL     1      53.949   7.427   9.613  0.00  0.00    +0.000 C 
ENDBRANCH   3  10
ENDBRANCH   1   7
BRANCH   2  15
ATOM     15  C   UNL     1      46.780   6.438  11.833  0.00  0.00    +0.000 A 
ATOM     16  C   UNL     1      46.575   5.604  12.943  0.00  0.00    +0.000 A 
ATOM     17  C   UNL     1      45.612   4.592  12.909  0.00  0.00    +0.000 A 
ATOM     18  C   UNL     1      44.815   4.414  11.776  0.00  0.00    +0.000 A 
ATOM     19  C   UNL     1      44.998   5.249  10.668  0.00  0.00    +0.000 A 
ATOM     20  C   UNL     1      45.972   6.256  10.702  0.00  0.00    +0.000 A 
BRANCH  18  21
ATOM     21  C   UNL     1      43.816   3.314  11.791  0.00  0.00    +0.000 C 
ATOM     22  N   UNL     1      43.885   2.412  12.816  0.00  0.00    +0.000 N 
ATOM     23  O   UNL     1      42.981   3.191  10.904  0.00  0.00    +0.000 OA
ATOM     24  H   UNL     1      44.684   2.337  13.426  0.00  0.00    +0.000 HD
ATOM     25  H   UNL     1      43.268   1.613  12.744  0.00  0.00    +0.000 HD
ENDBRANCH  18  21
ENDBRANCH   2  15
TORSDOF 4
ENDMDL
MODEL 7
REMARK VINA RESULT:    -5.336      4.982      8.941
REMARK INTER + INTRA:          -7.294
REMARK INTER:                  -6.513
REMARK INTRA:                  -0.781
REMARK UNBOUND:                -0.710
REMARK  Name = 
REMARK  5 active torsions:
REMARK  status: ('A' for Active; 'I' for Inactive)
REMARK    1  A    between atoms: C_1  and  C_2
REMARK    2  A    between atoms: C_2  and  C_3
REMARK    3  A    between atoms: C_7  and  C_8
REMARK    4  A    between atoms: C_9  and  C_10
REMARK    5  A    between atoms: C_13  and  C_14
REMARK                            x       y       z     vdW  Elec       q    Type
REMARK                         _______ _______ _______ _____ _____    ______ ____
ROOT
ATOM      1  C   UNL     1      48.660   7.247  13.811  0.00  0.00    +0.000 C 
ATOM      2  C   UNL     1      47.944   6.138  14.068  0.00  0.00    +0.000 C 
ENDROOT
BRANCH   1   7
ATOM      3  C   UNL     1      51.469   7.425  16.336  0.00  0.00    +0.000 A 
ATOM      4  C   UNL     1      51.783   8.796  16.266  0.00  0.00    +0.000 A 
ATOM      5  C   UNL     1      51.072   9.666  15.436  0.00  0.00    +0.000 A 
ATOM      6  C   UNL     1      50.032   9.183  14.646  0.00  0.00    +0.000 A 
ATOM      7  C   UNL     1      49.676   7.833  14.701  0.00  0.00    +0.000 A 
ATOM      8  C   UNL     1      50.389   6.973  15.558  0.00  0.00    +0.000 A 
BRANCH   3  10
ATOM      9  C   UNL     1      53.687   6.287  16.409  0.00  0.00    +0.000 C 
ATOM     10  C   UNL     1      52.360   6.483  17.164  0.00  0.00    +0.000 C 
ATOM     11  C   UNL     1      52.576   7.025  18.582  0.00  0.00    +0.000 C 
ATOM     12  C   UNL     1      51.528   6.322  19.434  0.00  0.00    +0.000 C 
ATOM     13  O   UNL     1      50.944   5.279  18.647  0.00  0.00    +0.000 OA
ATOM     14  C   UNL     1      51.778   5.100  17.497  0.00  0.00    +0.000 C 
ENDBRANCH   3  10
ENDBRANCH   1   7
BRANCH   2  15
ATOM     15  C   UNL     1      46.917   5.599  13.161  0.00  0.00    +0.000 A 
ATOM     16  C   UNL     1      46.341   4.333  13.347  0.00  0.00    +0.000 A 
ATOM     17  C   UNL     1      45.368   3.854  12.466  0.00  0.00    +0.000 A 
ATOM     18  C   UNL     1      44.931   4.644  11.400  0.00  0.00    +0.000 A 
ATOM     19  C   UNL     1      45.486   5.914  11.213  0.00  0.00    +0.000 A 
ATOM     20  C   UNL     1      46.469   6.386  12.092  0.00  0.00    +0.000 A 
BRANCH  18  21
ATOM     21  C   UNL     1      43.903   4.078  10.488  0.00  0.00    +0.000 C 
ATOM     22  N   UNL     1      43.955   4.444   9.172  0.00  0.00    +0.000 N 
ATOM     23  O   UNL     1      43.017   3.337  10.897  0.00  0.00    +0.000 OA
ATOM     24  H   UNL     1      44.509   5.219   8.842  0.00  0.00    +0.000 HD
ATOM     25  H   UNL     1      43.182   4.136   8.596  0.00  0.00    +0.000 HD
ENDBRANCH  18  21
ENDBRANCH   2  15
TORSDOF 4
ENDMDL
MODEL 8
REMARK VINA RESULT:    -5.194     13.118     14.587
REMARK INTER + INTRA:          -7.119
REMARK INTER:                  -6.330
REMARK INTRA:                  -0.789
REMARK UNBOUND:                -0.710
REMARK  Name = 
REMARK  5 active torsions:
REMARK  status: ('A' for Active; 'I' for Inactive)
REMARK    1  A    between atoms: C_1  and  C_2
REMARK    2  A    between atoms: C_2  and  C_3
REMARK    3  A    between atoms: C_7  and  C_8
REMARK    4  A    between atoms: C_9  and  C_10
REMARK    5  A    between atoms: C_13  and  C_14
REMARK                            x       y       z     vdW  Elec       q    Type
REMARK                         _______ _______ _______ _____ _____    ______ ____
ROOT
ATOM      1  C   UNL     1      38.766  -1.236  15.591  0.00  0.00    +0.000 C 
ATOM      2  C   UNL     1      39.963  -1.365  16.189  0.00  0.00    +0.000 C 
ENDROOT
BRANCH   1   7
ATOM      3  C   UNL     1      37.330   2.069  16.739  0.00  0.00    +0.000 A 
ATOM      4  C   UNL     1      36.603   2.438  15.591  0.00  0.00    +0.000 A 
ATOM      5  C   UNL     1      36.547   1.613  14.466  0.00  0.00    +0.000 A 
ATOM      6  C   UNL     1      37.225   0.398  14.456  0.00  0.00    +0.000 A 
ATOM      7  C   UNL     1      37.941  -0.016  15.582  0.00  0.00    +0.000 A 
ATOM      8  C   UNL     1      37.973   0.819  16.716  0.00  0.00    +0.000 A 
BRANCH   3  10
ATOM      9  C   UNL     1      38.566   4.082  17.538  0.00  0.00    +0.000 C 
ATOM     10  C   UNL     1      37.470   3.064  17.903  0.00  0.00    +0.000 C 
ATOM     11  C   UNL     1      36.133   3.743  18.219  0.00  0.00    +0.000 C 
ATOM     12  C   UNL     1      35.539   2.929  19.360  0.00  0.00    +0.000 C 
ATOM     13  O   UNL     1      36.550   2.035  19.839  0.00  0.00    +0.000 OA
ATOM     14  C   UNL     1      37.795   2.469  19.283  0.00  0.00    +0.000 C 
ENDBRANCH   3  10
ENDBRANCH   1   7
BRANCH   2  15
ATOM     15  C   UNL     1      40.744  -2.613  16.197  0.00  0.00    +0.000 A 
ATOM     16  C   UNL     1      41.383  -3.091  17.350  0.00  0.00    +0.000 A 
ATOM     17  C   UNL     1      42.115  -4.282  17.321  0.00  0.00    +0.000 A 
ATOM     18  C   UNL     1      42.197  -5.030  16.145  0.00  0.00    +0.000 A 
ATOM     19  C   UNL     1      41.552  -4.572  14.991  0.00  0.00    +0.000 A 
ATOM     20  C   UNL     1      40.828  -3.372  15.022  0.00  0.00    +0.000 A 
BRANCH  18  21
ATOM     21  C   UNL     1      43.000  -6.280  16.168  0.00  0.00    +0.000 C 
ATOM     22  N   UNL     1      43.630  -6.606  17.337  0.00  0.00    +0.000 N 
ATOM     23  O   UNL     1      43.128  -6.981  15.172  0.00  0.00    +0.000 OA
ATOM     24  H   UNL     1      43.745  -5.952  18.096  0.00  0.00    +0.000 HD
ATOM     25  H   UNL     1      44.258  -7.399  17.295  0.00  0.00    +0.000 HD
ENDBRANCH  18  21
ENDBRANCH   2  15
TORSDOF 4
ENDMDL
MODEL 9
REMARK VINA RESULT:    -5.075      3.377      9.073
REMARK INTER + INTRA:          -6.972
REMARK INTER:                  -6.251
REMARK INTRA:                  -0.720
REMARK UNBOUND:                -0.710
REMARK  Name = 
REMARK  5 active torsions:
REMARK  status: ('A' for Active; 'I' for Inactive)
REMARK    1  A    between atoms: C_1  and  C_2
REMARK    2  A    between atoms: C_2  and  C_3
REMARK    3  A    between atoms: C_7  and  C_8
REMARK    4  A    between atoms: C_9  and  C_10
REMARK    5  A    between atoms: C_13  and  C_14
REMARK                            x       y       z     vdW  Elec       q    Type
REMARK                         _______ _______ _______ _____ _____    ______ ____
ROOT
ATOM      1  C   UNL     1      48.758   6.935  13.117  0.00  0.00    +0.000 C 
ATOM      2  C   UNL     1      47.425   7.053  12.991  0.00  0.00    +0.000 C 
ENDROOT
BRANCH   1   7
ATOM      3  C   UNL     1      51.580   9.452  13.149  0.00  0.00    +0.000 A 
ATOM      4  C   UNL     1      51.315  10.109  14.366  0.00  0.00    +0.000 A 
ATOM      5  C   UNL     1      50.255   9.723  15.189  0.00  0.00    +0.000 A 
ATOM      6  C   UNL     1      49.425   8.672  14.811  0.00  0.00    +0.000 A 
ATOM      7  C   UNL     1      49.665   7.980  13.621  0.00  0.00    +0.000 A 
ATOM      8  C   UNL     1      50.750   8.369  12.812  0.00  0.00    +0.000 A 
BRANCH   3  10
ATOM      9  C   UNL     1      52.001  10.837  11.119  0.00  0.00    +0.000 C 
ATOM     10  C   UNL     1      52.676   9.993  12.216  0.00  0.00    +0.000 C 
ATOM     11  C   UNL     1      53.727  10.792  12.996  0.00  0.00    +0.000 C 
ATOM     12  C   UNL     1      54.848   9.801  13.272  0.00  0.00    +0.000 C 
ATOM     13  O   UNL     1      54.598   8.622  12.499  0.00  0.00    +0.000 OA
ATOM     14  C   UNL     1      53.584   8.951  11.544  0.00  0.00    +0.000 C 
ENDBRANCH   3  10
ENDBRANCH   1   7
BRANCH   2  15
ATOM     15  C   UNL     1      46.556   5.991  12.456  0.00  0.00    +0.000 A 
ATOM     16  C   UNL     1      45.950   6.081  11.194  0.00  0.00    +0.000 A 
ATOM     17  C   UNL     1      45.132   5.052  10.719  0.00  0.00    +0.000 A 
ATOM     18  C   UNL     1      44.928   3.902  11.484  0.00  0.00    +0.000 A 
ATOM     19  C   UNL     1      45.539   3.794  12.738  0.00  0.00    +0.000 A 
ATOM     20  C   UNL     1      46.350   4.832  13.215  0.00  0.00    +0.000 A 
BRANCH  18  21
ATOM     21  C   UNL     1      44.038   2.847  10.934  0.00  0.00    +0.000 C 
ATOM     22  N   UNL     1      44.484   2.147   9.848  0.00  0.00    +0.000 N 
ATOM     23  O   UNL     1      42.930   2.629  11.408  0.00  0.00    +0.000 OA
ATOM     24  H   UNL     1      45.269   2.444   9.291  0.00  0.00    +0.000 HD
ATOM     25  H   UNL     1      43.816   1.513   9.425  0.00  0.00    +0.000 HD
ENDBRANCH  18  21
ENDBRANCH   2  15
TORSDOF 4
ENDMDL
