MODEL 1
REMARK VINA RESULT:    -8.683      0.000      0.000
REMARK INTER + INTRA:         -12.294
REMARK INTER:                 -11.221
REMARK INTRA:                  -1.073
REMARK UNBOUND:                -1.073
REMARK  Name = 
REMARK  5 active torsions:
REMARK  status: ('A' for Active; 'I' for Inactive)
REMARK    1  A    between atoms: C_2  and  C_4
REMARK    2  A    between atoms: C_7  and  N_8
REMARK    3  A    between atoms: N_8  and  C_9
REMARK    4  A    between atoms: C_9  and  C_10
REMARK    5  A    between atoms: C_14  and  C_15
REMARK                            x       y       z     vdW  Elec       q    Type
REMARK                         _______ _______ _______ _____ _____    ______ ____
ROOT
ATOM      1  C   UNL     1      43.580   4.599  11.310  0.00  0.00    +0.000 C 
ENDROOT
BRANCH   1   2
ATOM      2  C   UNL     1      44.826   4.974  12.079  0.00  0.00    +0.000 A 
ATOM      3  C   UNL     1      45.416   4.067  12.966  0.00  0.00    +0.000 A 
ATOM      4  C   UNL     1      46.601   4.399  13.617  0.00  0.00    +0.000 A 
ATOM      5  C   UNL     1      47.206   5.638  13.389  0.00  0.00    +0.000 A 
ATOM      6  C   UNL     1      46.655   6.578  12.501  0.00  0.00    +0.000 A 
ATOM      7  C   UNL     1      45.443   6.225  11.873  0.00  0.00    +0.000 A 
BRANCH   6   8
ATOM      8  C   UNL     1      47.333   7.870  12.217  0.00  0.00    +0.000 A 
ATOM      9  C   UNL     1      48.644   7.912  11.697  0.00  0.00    +0.000 A 
ATOM     10  C   UNL     1      49.290   9.127  11.442  0.00  0.00    +0.000 A 
ATOM     11  C   UNL     1      48.630  10.322  11.691  0.00  0.00    +0.000 A 
ATOM     12  F   UNL     1      49.249  11.484  11.439  0.00  0.00    +0.000 F 
ATOM     13  C   UNL     1      47.344  10.328  12.198  0.00  0.00    +0.000 A 
ATOM     14  C   UNL     1      46.714   9.114  12.463  0.00  0.00    +0.000 A 
ATOM     15  F   UNL     1      45.479   9.171  12.986  0.00  0.00    +0.000 F 
ENDBRANCH   6   8
ENDBRANCH   1   2
BRANCH   1  16
ATOM     16  N   UNL     1      43.753   4.833   9.879  0.00  0.00    +0.000 N 
ATOM     17  H   UNL     1      42.869   5.016   9.412  0.00  0.00    +0.000 HD
BRANCH  16  21
ATOM     18  C   UNL     1      46.356   2.303   7.817  0.00  0.00    +0.000 A 
ATOM     19  C   UNL     1      45.462   1.727   8.705  0.00  0.00    +0.000 A 
ATOM     20  C   UNL     1      44.577   2.561   9.389  0.00  0.00    +0.000 A 
ATOM     21  C   UNL     1      44.567   3.942   9.163  0.00  0.00    +0.000 A 
ATOM     22  C   UNL     1      45.542   4.411   8.270  0.00  0.00    +0.000 A 
ATOM     23  N   UNL     1      46.423   3.640   7.578  0.00  0.00    +0.000 NA
BRANCH  18  25
ATOM     24  N   UNL     1      48.418   2.061   6.557  0.00  0.00    +0.000 N 
ATOM     25  C   UNL     1      47.322   1.427   7.075  0.00  0.00    +0.000 C 
ATOM     26  O   UNL     1      47.153   0.221   6.942  0.00  0.00    +0.000 OA
ATOM     27  H   UNL     1      49.117   1.524   6.064  0.00  0.00    +0.000 HD
ATOM     28  H   UNL     1      48.534   3.057   6.704  0.00  0.00    +0.000 HD
ENDBRANCH  18  25
ENDBRANCH  16  21
ENDBRANCH   1  16
TORSDOF 5
ENDMDL
MODEL 2
REMARK VINA RESULT:    -8.253      2.551      4.139
REMARK INTER + INTRA:         -11.738
REMARK INTER:                 -11.207
REMARK INTRA:                  -0.532
REMARK UNBOUND:                -1.073
REMARK  Name = 
REMARK  5 active torsions:
REMARK  status: ('A' for Active; 'I' for Inactive)
REMARK    1  A    between atoms: C_2  and  C_4
REMARK    2  A    between atoms: C_7  and  N_8
REMARK    3  A    between atoms: N_8  and  C_9
REMARK    4  A    between atoms: C_9  and  C_10
REMARK    5  A    between atoms: C_14  and  C_15
REMARK                            x       y       z     vdW  Elec       q    Type
REMARK                         _______ _______ _______ _____ _____    ______ ____
ROOT
ATOM      1  C   UNL     1      43.903   4.784  11.476  0.00  0.00    +0.000 C 
ENDROOT
BRANCH   1   2
ATOM      2  C   UNL     1      45.208   5.351  11.988  0.00  0.00    +0.000 A 
ATOM      3  C   UNL     1      45.826   6.421  11.331  0.00  0.00    +0.000 A 
ATOM      4  C   UNL     1      46.991   6.978  11.851  0.00  0.00    +0.000 A 
ATOM      5  C   UNL     1      47.549   6.473  13.029  0.00  0.00    +0.000 A 
ATOM      6  C   UNL     1      46.959   5.405  13.728  0.00  0.00    +0.000 A 
ATOM      7  C   UNL     1      45.793   4.845  13.167  0.00  0.00    +0.000 A 
BRANCH   6   8
ATOM      8  C   UNL     1      47.522   4.910  15.011  0.00  0.00    +0.000 A 
ATOM      9  C   UNL     1      47.342   3.573  15.425  0.00  0.00    +0.000 A 
ATOM     10  C   UNL     1      47.859   3.109  16.640  0.00  0.00    +0.000 A 
ATOM     11  C   UNL     1      48.576   3.971  17.457  0.00  0.00    +0.000 A 
ATOM     12  F   UNL     1      49.075   3.522  18.617  0.00  0.00    +0.000 F 
ATOM     13  C   UNL     1      48.777   5.290  17.091  0.00  0.00    +0.000 A 
ATOM     14  C   UNL     1      48.247   5.747  15.887  0.00  0.00    +0.000 A 
ATOM     15  F   UNL     1      48.439   7.042  15.591  0.00  0.00    +0.000 F 
ENDBRANCH   6   8
ENDBRANCH   1   2
BRANCH   1  16
ATOM     16  N   UNL     1      43.833   4.854  10.020  0.00  0.00    +0.000 N 
ATOM     17  H   UNL     1      42.873   4.902   9.685  0.00  0.00    +0.000 HD
BRANCH  16  21
ATOM     18  C   UNL     1      46.351   2.296   7.888  0.00  0.00    +0.000 A 
ATOM     19  C   UNL     1      45.468   1.729   8.792  0.00  0.00    +0.000 A 
ATOM     20  C   UNL     1      44.611   2.572   9.500  0.00  0.00    +0.000 A 
ATOM     21  C   UNL     1      44.617   3.955   9.281  0.00  0.00    +0.000 A 
ATOM     22  C   UNL     1      45.579   4.414   8.370  0.00  0.00    +0.000 A 
ATOM     23  N   UNL     1      46.433   3.634   7.655  0.00  0.00    +0.000 NA
BRANCH  18  25
ATOM     24  N   UNL     1      48.361   2.037   6.549  0.00  0.00    +0.000 N 
ATOM     25  C   UNL     1      47.288   1.411   7.120  0.00  0.00    +0.000 C 
ATOM     26  O   UNL     1      47.114   0.202   7.011  0.00  0.00    +0.000 OA
ATOM     27  H   UNL     1      49.040   1.493   6.037  0.00  0.00    +0.000 HD
ATOM     28  H   UNL     1      48.483   3.035   6.677  0.00  0.00    +0.000 HD
ENDBRANCH  18  25
ENDBRANCH  16  21
ENDBRANCH   1  16
TORSDOF 5
ENDMDL
MODEL 3
REMARK VINA RESULT:    -7.842      2.012      2.747
REMARK INTER + INTRA:         -11.206
REMARK INTER:                 -10.180
REMARK INTRA:                  -1.026
REMARK UNBOUND:                -1.073
REMARK  Name = 
REMARK  5 active torsions:
REMARK  status: ('A' for Active; 'I' for Inactive)
REMARK    1  A    between atoms: C_2  and  C_4
REMARK    2  A    between atoms: C_7  and  N_8
REMARK    3  A    between atoms: N_8  and  C_9
REMARK    4  A    between atoms: C_9  and  C_10
REMARK    5  A    between atoms: C_14  and  C_15
REMARK                            x       y       z     vdW  Elec       q    Type
REMARK                         _______ _______ _______ _____ _____    ______ ____
ROOT
ATOM      1  C   UNL     1      44.262   4.023  11.821  0.00  0.00    +0.000 C 
ENDROOT
BRANCH   1   2
ATOM      2  C   UNL     1      44.818   5.429  11.852  0.00  0.00    +0.000 A 
ATOM      3  C   UNL     1      44.036   6.514  11.441  0.00  0.00    +0.000 A 
ATOM      4  C   UNL     1      44.535   7.810  11.538  0.00  0.00    +0.000 A 
ATOM      5  C   UNL     1      45.819   8.034  12.044  0.00  0.00    +0.000 A 
ATOM      6  C   UNL     1      46.638   6.976  12.476  0.00  0.00    +0.000 A 
ATOM      7  C   UNL     1      46.116   5.673  12.345  0.00  0.00    +0.000 A 
BRANCH   6   8
ATOM      8  C   UNL     1      47.978   7.223  13.069  0.00  0.00    +0.000 A 
ATOM      9  C   UNL     1      48.205   7.087  14.455  0.00  0.00    +0.000 A 
ATOM     10  C   UNL     1      49.463   7.333  15.017  0.00  0.00    +0.000 A 
ATOM     11  C   UNL     1      50.520   7.708  14.200  0.00  0.00    +0.000 A 
ATOM     12  F   UNL     1      51.725   7.936  14.741  0.00  0.00    +0.000 F 
ATOM     13  C   UNL     1      50.344   7.851  12.836  0.00  0.00    +0.000 A 
ATOM     14  C   UNL     1      49.085   7.618  12.287  0.00  0.00    +0.000 A 
ATOM     15  F   UNL     1      48.955   7.804  10.964  0.00  0.00    +0.000 F 
ENDBRANCH   6   8
ENDBRANCH   1   2
BRANCH   1  16
ATOM     16  N   UNL     1      43.800   3.668  10.483  0.00  0.00    +0.000 N 
ATOM     17  H   UNL     1      43.058   2.972  10.507  0.00  0.00    +0.000 HD
BRANCH  16  21
ATOM     18  C   UNL     1      46.542   2.682   7.494  0.00  0.00    +0.000 A 
ATOM     19  C   UNL     1      46.190   4.014   7.635  0.00  0.00    +0.000 A 
ATOM     20  C   UNL     1      45.286   4.358   8.640  0.00  0.00    +0.000 A 
ATOM     21  C   UNL     1      44.769   3.389   9.507  0.00  0.00    +0.000 A 
ATOM     22  C   UNL     1      45.169   2.071   9.242  0.00  0.00    +0.000 A 
ATOM     23  N   UNL     1      46.049   1.686   8.279  0.00  0.00    +0.000 NA
BRANCH  18  25
ATOM     24  N   UNL     1      47.396   2.975   5.239  0.00  0.00    +0.000 N 
ATOM     25  C   UNL     1      47.507   2.286   6.415  0.00  0.00    +0.000 C 
ATOM     26  O   UNL     1      48.347   1.407   6.572  0.00  0.00    +0.000 OA
ATOM     27  H   UNL     1      48.031   2.769   4.481  0.00  0.00    +0.000 HD
ATOM     28  H   UNL     1      46.702   3.708   5.153  0.00  0.00    +0.000 HD
ENDBRANCH  18  25
ENDBRANCH  16  21
ENDBRANCH   1  16
TORSDOF 5
ENDMDL
MODEL 4
REMARK VINA RESULT:    -7.679      4.452      7.366
REMARK INTER + INTRA:         -10.996
REMARK INTER:                 -10.498
REMARK INTRA:                  -0.498
REMARK UNBOUND:                -1.073
REMARK  Name = 
REMARK  5 active torsions:
REMARK  status: ('A' for Active; 'I' for Inactive)
REMARK    1  A    between atoms: C_2  and  C_4
REMARK    2  A    between atoms: C_7  and  N_8
REMARK    3  A    between atoms: N_8  and  C_9
REMARK    4  A    between atoms: C_9  and  C_10
REMARK    5  A    between atoms: C_14  and  C_15
REMARK                            x       y       z     vdW  Elec       q    Type
REMARK                         _______ _______ _______ _____ _____    ______ ____
ROOT
ATOM      1  C   UNL     1      46.268   7.482  12.167  0.00  0.00    +0.000 C 
ENDROOT
BRANCH   1   2
ATOM      2  C   UNL     1      45.377   6.471  11.481  0.00  0.00    +0.000 A 
ATOM      3  C   UNL     1      44.002   6.444  11.736  0.00  0.00    +0.000 A 
ATOM      4  C   UNL     1      43.183   5.554  11.047  0.00  0.00    +0.000 A 
ATOM      5  C   UNL     1      43.729   4.683  10.100  0.00  0.00    +0.000 A 
ATOM      6  C   UNL     1      45.103   4.679   9.805  0.00  0.00    +0.000 A 
ATOM      7  C   UNL     1      45.913   5.575  10.534  0.00  0.00    +0.000 A 
BRANCH   6   8
ATOM      8  C   UNL     1      45.671   3.793   8.755  0.00  0.00    +0.000 A 
ATOM      9  C   UNL     1      46.323   4.323   7.622  0.00  0.00    +0.000 A 
ATOM     10  C   UNL     1      46.846   3.491   6.624  0.00  0.00    +0.000 A 
ATOM     11  C   UNL     1      46.735   2.113   6.750  0.00  0.00    +0.000 A 
ATOM     12  F   UNL     1      47.243   1.319   5.797  0.00  0.00    +0.000 F 
ATOM     13  C   UNL     1      46.105   1.551   7.845  0.00  0.00    +0.000 A 
ATOM     14  C   UNL     1      45.576   2.387   8.826  0.00  0.00    +0.000 A 
ATOM     15  F   UNL     1      44.944   1.796   9.852  0.00  0.00    +0.000 F 
ENDBRANCH   6   8
ENDBRANCH   1   2
BRANCH   1  16
ATOM     16  N   UNL     1      47.528   6.876  12.587  0.00  0.00    +0.000 N 
ATOM     17  H   UNL     1      48.027   6.454  11.808  0.00  0.00    +0.000 HD
BRANCH  16  21
ATOM     18  C   UNL     1      47.582   4.274  15.851  0.00  0.00    +0.000 A 
ATOM     19  C   UNL     1      48.142   5.529  16.016  0.00  0.00    +0.000 A 
ATOM     20  C   UNL     1      48.117   6.414  14.937  0.00  0.00    +0.000 A 
ATOM     21  C   UNL     1      47.513   6.056  13.726  0.00  0.00    +0.000 A 
ATOM     22  C   UNL     1      47.014   4.747  13.667  0.00  0.00    +0.000 A 
ATOM     23  N   UNL     1      47.012   3.850  14.690  0.00  0.00    +0.000 NA
BRANCH  18  25
ATOM     24  N   UNL     1      48.845   2.935  17.437  0.00  0.00    +0.000 N 
ATOM     25  C   UNL     1      47.604   3.302  16.994  0.00  0.00    +0.000 C 
ATOM     26  O   UNL     1      46.581   2.865  17.509  0.00  0.00    +0.000 OA
ATOM     27  H   UNL     1      48.927   2.300  18.217  0.00  0.00    +0.000 HD
ATOM     28  H   UNL     1      49.668   3.332  16.999  0.00  0.00    +0.000 HD
ENDBRANCH  18  25
ENDBRANCH  16  21
ENDBRANCH   1  16
TORSDOF 5
ENDMDL
MODEL 5
REMARK VINA RESULT:    -7.664      4.386      7.053
REMARK INTER + INTRA:         -10.977
REMARK INTER:                 -10.373
REMARK INTRA:                  -0.605
REMARK UNBOUND:                -1.073
REMARK  Name = 
REMARK  5 active torsions:
REMARK  status: ('A' for Active; 'I' for Inactive)
REMARK    1  A    between atoms: C_2  and  C_4
REMARK    2  A    between atoms: C_7  and  N_8
REMARK    3  A    between atoms: N_8  and  C_9
REMARK    4  A    between atoms: C_9  and  C_10
REMARK    5  A    between atoms: C_14  and  C_15
REMARK                            x       y       z     vdW  Elec       q    Type
REMARK                         _______ _______ _______ _____ _____    ______ ____
ROOT
ATOM      1  C   UNL     1      43.895   6.397  11.597  0.00  0.00    +0.000 C 
ENDROOT
BRANCH   1   2
ATOM      2  C   UNL     1      44.040   4.964  11.136  0.00  0.00    +0.000 A 
ATOM      3  C   UNL     1      43.296   3.943  11.738  0.00  0.00    +0.000 A 
ATOM      4  C   UNL     1      43.387   2.639  11.259  0.00  0.00    +0.000 A 
ATOM      5  C   UNL     1      44.221   2.343  10.177  0.00  0.00    +0.000 A 
ATOM      6  C   UNL     1      44.980   3.337   9.535  0.00  0.00    +0.000 A 
ATOM      7  C   UNL     1      44.886   4.644  10.055  0.00  0.00    +0.000 A 
BRANCH   6   8
ATOM      8  C   UNL     1      45.819   3.028   8.348  0.00  0.00    +0.000 A 
ATOM      9  C   UNL     1      46.309   4.051   7.509  0.00  0.00    +0.000 A 
ATOM     10  C   UNL     1      47.087   3.762   6.382  0.00  0.00    +0.000 A 
ATOM     11  C   UNL     1      47.399   2.444   6.081  0.00  0.00    +0.000 A 
ATOM     12  F   UNL     1      48.150   2.171   5.005  0.00  0.00    +0.000 F 
ATOM     13  C   UNL     1      46.942   1.409   6.877  0.00  0.00    +0.000 A 
ATOM     14  C   UNL     1      46.156   1.705   7.988  0.00  0.00    +0.000 A 
ATOM     15  F   UNL     1      45.707   0.666   8.710  0.00  0.00    +0.000 F 
ENDBRANCH   6   8
ENDBRANCH   1   2
BRANCH   1  16
ATOM     16  N   UNL     1      44.582   6.614  12.867  0.00  0.00    +0.000 N 
ATOM     17  H   UNL     1      44.048   7.213  13.492  0.00  0.00    +0.000 HD
BRANCH  16  21
ATOM     18  C   UNL     1      48.672   7.420  12.645  0.00  0.00    +0.000 A 
ATOM     19  C   UNL     1      47.798   8.363  12.132  0.00  0.00    +0.000 A 
ATOM     20  C   UNL     1      46.428   8.112  12.213  0.00  0.00    +0.000 A 
ATOM     21  C   UNL     1      45.943   6.952  12.827  0.00  0.00    +0.000 A 
ATOM     22  C   UNL     1      46.924   6.055  13.275  0.00  0.00    +0.000 A 
ATOM     23  N   UNL     1      48.268   6.255  13.222  0.00  0.00    +0.000 NA
BRANCH  18  25
ATOM     24  N   UNL     1      50.733   7.367  11.361  0.00  0.00    +0.000 N 
ATOM     25  C   UNL     1      50.150   7.663  12.563  0.00  0.00    +0.000 C 
ATOM     26  O   UNL     1      50.800   8.104  13.504  0.00  0.00    +0.000 OA
ATOM     27  H   UNL     1      51.722   7.529  11.235  0.00  0.00    +0.000 HD
ATOM     28  H   UNL     1      50.160   7.023  10.600  0.00  0.00    +0.000 HD
ENDBRANCH  18  25
ENDBRANCH  16  21
ENDBRANCH   1  16
TORSDOF 5
ENDMDL
MODEL 6
REMARK VINA RESULT:    -7.463      4.005      6.930
REMARK INTER + INTRA:         -10.718
REMARK INTER:                 -10.166
REMARK INTRA:                  -0.551
REMARK UNBOUND:                -1.073
REMARK  Name = 
REMARK  5 active torsions:
REMARK  status: ('A' for Active; 'I' for Inactive)
REMARK    1  A    between atoms: C_2  and  C_4
REMARK    2  A    between atoms: C_7  and  N_8
REMARK    3  A    between atoms: N_8  and  C_9
REMARK    4  A    between atoms: C_9  and  C_10
REMARK    5  A    between atoms: C_14  and  C_15
REMARK                            x       y       z     vdW  Elec       q    Type
REMARK                         _______ _______ _______ _____ _____    ______ ____
ROOT
ATOM      1  C   UNL     1      43.800   6.436  11.645  0.00  0.00    +0.000 C 
ENDROOT
BRANCH   1   2
ATOM      2  C   UNL     1      43.947   4.977  11.277  0.00  0.00    +0.000 A 
ATOM      3  C   UNL     1      43.191   3.998  11.931  0.00  0.00    +0.000 A 
ATOM      4  C   UNL     1      43.285   2.666  11.536  0.00  0.00    +0.000 A 
ATOM      5  C   UNL     1      44.134   2.300  10.489  0.00  0.00    +0.000 A 
ATOM      6  C   UNL     1      44.907   3.249   9.798  0.00  0.00    +0.000 A 
ATOM      7  C   UNL     1      44.810   4.587  10.233  0.00  0.00    +0.000 A 
BRANCH   6   8
ATOM      8  C   UNL     1      45.764   2.865   8.646  0.00  0.00    +0.000 A 
ATOM      9  C   UNL     1      46.032   1.512   8.350  0.00  0.00    +0.000 A 
ATOM     10  C   UNL     1      46.850   1.147   7.274  0.00  0.00    +0.000 A 
ATOM     11  C   UNL     1      47.405   2.131   6.468  0.00  0.00    +0.000 A 
ATOM     12  F   UNL     1      48.183   1.779   5.434  0.00  0.00    +0.000 F 
ATOM     13  C   UNL     1      47.168   3.470   6.720  0.00  0.00    +0.000 A 
ATOM     14  C   UNL     1      46.364   3.824   7.801  0.00  0.00    +0.000 A 
ATOM     15  F   UNL     1      46.190   5.136   8.027  0.00  0.00    +0.000 F 
ENDBRANCH   6   8
ENDBRANCH   1   2
BRANCH   1  16
ATOM     16  N   UNL     1      44.490   6.737  12.896  0.00  0.00    +0.000 N 
ATOM     17  H   UNL     1      43.940   7.344  13.499  0.00  0.00    +0.000 HD
BRANCH  16  21
ATOM     18  C   UNL     1      48.533   7.711  12.543  0.00  0.00    +0.000 A 
ATOM     19  C   UNL     1      47.604   8.711  12.309  0.00  0.00    +0.000 A 
ATOM     20  C   UNL     1      46.250   8.402  12.439  0.00  0.00    +0.000 A 
ATOM     21  C   UNL     1      45.837   7.122  12.826  0.00  0.00    +0.000 A 
ATOM     22  C   UNL     1      46.866   6.186  12.998  0.00  0.00    +0.000 A 
ATOM     23  N   UNL     1      48.198   6.438  12.887  0.00  0.00    +0.000 NA
BRANCH  18  25
ATOM     24  N   UNL     1      50.681   7.241  11.508  0.00  0.00    +0.000 N 
ATOM     25  C   UNL     1      49.996   8.018  12.402  0.00  0.00    +0.000 C 
ATOM     26  O   UNL     1      50.547   8.908  13.038  0.00  0.00    +0.000 OA
ATOM     27  H   UNL     1      51.664   7.411  11.353  0.00  0.00    +0.000 HD
ATOM     28  H   UNL     1      50.186   6.527  10.986  0.00  0.00    +0.000 HD
ENDBRANCH  18  25
ENDBRANCH  16  21
ENDBRANCH   1  16
TORSDOF 5
ENDMDL
MODEL 7
REMARK VINA RESULT:    -7.421      4.595      7.509
REMARK INTER + INTRA:         -10.663
REMARK INTER:                  -9.971
REMARK INTRA:                  -0.692
REMARK UNBOUND:                -1.073
REMARK  Name = 
REMARK  5 active torsions:
REMARK  status: ('A' for Active; 'I' for Inactive)
REMARK    1  A    between atoms: C_2  and  C_4
REMARK    2  A    between atoms: C_7  and  N_8
REMARK    3  A    between atoms: N_8  and  C_9
REMARK    4  A    between atoms: C_9  and  C_10
REMARK    5  A    between atoms: C_14  and  C_15
REMARK                            x       y       z     vdW  Elec       q    Type
REMARK                         _______ _______ _______ _____ _____    ______ ____
ROOT
ATOM      1  C   UNL     1      45.606   7.017  12.895  0.00  0.00    +0.000 C 
ENDROOT
BRANCH   1   2
ATOM      2  C   UNL     1      44.823   5.940  12.178  0.00  0.00    +0.000 A 
ATOM      3  C   UNL     1      43.470   5.730  12.467  0.00  0.00    +0.000 A 
ATOM      4  C   UNL     1      42.744   4.782  11.751  0.00  0.00    +0.000 A 
ATOM      5  C   UNL     1      43.361   4.035  10.744  0.00  0.00    +0.000 A 
ATOM      6  C   UNL     1      44.716   4.216  10.413  0.00  0.00    +0.000 A 
ATOM      7  C   UNL     1      45.433   5.167  11.169  0.00  0.00    +0.000 A 
BRANCH   6   8
ATOM      8  C   UNL     1      45.352   3.463   9.302  0.00  0.00    +0.000 A 
ATOM      9  C   UNL     1      45.276   2.056   9.231  0.00  0.00    +0.000 A 
ATOM     10  C   UNL     1      45.887   1.342   8.193  0.00  0.00    +0.000 A 
ATOM     11  C   UNL     1      46.575   2.026   7.201  0.00  0.00    +0.000 A 
ATOM     12  F   UNL     1      47.154   1.341   6.204  0.00  0.00    +0.000 F 
ATOM     13  C   UNL     1      46.674   3.406   7.229  0.00  0.00    +0.000 A 
ATOM     14  C   UNL     1      46.075   4.106   8.274  0.00  0.00    +0.000 A 
ATOM     15  F   UNL     1      46.226   5.440   8.278  0.00  0.00    +0.000 F 
ENDBRANCH   6   8
ENDBRANCH   1   2
BRANCH   1  16
ATOM     16  N   UNL     1      47.020   6.665  12.992  0.00  0.00    +0.000 N 
ATOM     17  H   UNL     1      47.383   6.297  12.117  0.00  0.00    +0.000 HD
BRANCH  16  21
ATOM     18  C   UNL     1      48.224   4.627  16.431  0.00  0.00    +0.000 A 
ATOM     19  C   UNL     1      47.201   4.077  15.678  0.00  0.00    +0.000 A 
ATOM     20  C   UNL     1      46.799   4.740  14.518  0.00  0.00    +0.000 A 
ATOM     21  C   UNL     1      47.434   5.917  14.105  0.00  0.00    +0.000 A 
ATOM     22  C   UNL     1      48.430   6.397  14.968  0.00  0.00    +0.000 A 
ATOM     23  N   UNL     1      48.858   5.786  16.105  0.00  0.00    +0.000 NA
BRANCH  18  25
ATOM     24  N   UNL     1      47.703   3.226  18.346  0.00  0.00    +0.000 N 
ATOM     25  C   UNL     1      48.669   3.936  17.686  0.00  0.00    +0.000 C 
ATOM     26  O   UNL     1      49.822   3.992  18.097  0.00  0.00    +0.000 OA
ATOM     27  H   UNL     1      47.944   2.721  19.186  0.00  0.00    +0.000 HD
ATOM     28  H   UNL     1      46.765   3.186  17.964  0.00  0.00    +0.000 HD
ENDBRANCH  18  25
ENDBRANCH  16  21
ENDBRANCH   1  16
TORSDOF 5
ENDMDL
MODEL 8
REMARK VINA RESULT:    -6.817      5.043      7.871
REMARK INTER + INTRA:          -9.882
REMARK INTER:                  -9.021
REMARK INTRA:                  -0.861
REMARK UNBOUND:                -1.073
REMARK  Name = 
REMARK  5 active torsions:
REMARK  status: ('A' for Active; 'I' for Inactive)
REMARK    1  A    between atoms: C_2  and  C_4
REMARK    2  A    between atoms: C_7  and  N_8
REMARK    3  A    between atoms: N_8  and  C_9
REMARK    4  A    between atoms: C_9  and  C_10
REMARK    5  A    between atoms: C_14  and  C_15
REMARK                            x       y       z     vdW  Elec       q    Type
REMARK                         _______ _______ _______ _____ _____    ______ ____
ROOT
ATOM      1  C   UNL     1      48.474   7.818  13.811  0.00  0.00    +0.000 C 
ENDROOT
BRANCH   1   2
ATOM      2  C   UNL     1      47.170   7.762  13.048  0.00  0.00    +0.000 A 
ATOM      3  C   UNL     1      46.356   8.895  12.943  0.00  0.00    +0.000 A 
ATOM      4  C   UNL     1      45.192   8.848  12.181  0.00  0.00    +0.000 A 
ATOM      5  C   UNL     1      44.830   7.672  11.518  0.00  0.00    +0.000 A 
ATOM      6  C   UNL     1      45.621   6.511  11.587  0.00  0.00    +0.000 A 
ATOM      7  C   UNL     1      46.782   6.580  12.385  0.00  0.00    +0.000 A 
BRANCH   6   8
ATOM      8  C   UNL     1      45.264   5.282  10.833  0.00  0.00    +0.000 A 
ATOM      9  C   UNL     1      45.560   5.150   9.460  0.00  0.00    +0.000 A 
ATOM     10  C   UNL     1      45.212   3.999   8.745  0.00  0.00    +0.000 A 
ATOM     11  C   UNL     1      44.572   2.952   9.394  0.00  0.00    +0.000 A 
ATOM     12  F   UNL     1      44.246   1.848   8.708  0.00  0.00    +0.000 F 
ATOM     13  C   UNL     1      44.264   3.037  10.740  0.00  0.00    +0.000 A 
ATOM     14  C   UNL     1      44.602   4.192  11.440  0.00  0.00    +0.000 A 
ATOM     15  F   UNL     1      44.252   4.243  12.736  0.00  0.00    +0.000 F 
ENDBRANCH   6   8
ENDBRANCH   1   2
BRANCH   1  16
ATOM     16  N   UNL     1      48.247   7.725  15.251  0.00  0.00    +0.000 N 
ATOM     17  H   UNL     1      48.358   8.624  15.714  0.00  0.00    +0.000 HD
BRANCH  16  21
ATOM     18  C   UNL     1      50.073   4.480  17.138  0.00  0.00    +0.000 A 
ATOM     19  C   UNL     1      50.775   5.672  17.078  0.00  0.00    +0.000 A 
ATOM     20  C   UNL     1      50.170   6.768  16.463  0.00  0.00    +0.000 A 
ATOM     21  C   UNL     1      48.872   6.679  15.946  0.00  0.00    +0.000 A 
ATOM     22  C   UNL     1      48.277   5.412  16.033  0.00  0.00    +0.000 A 
ATOM     23  N   UNL     1      48.824   4.316  16.624  0.00  0.00    +0.000 NA
BRANCH  18  25
ATOM     24  N   UNL     1      51.459   3.544  18.900  0.00  0.00    +0.000 N 
ATOM     25  C   UNL     1      50.706   3.284  17.788  0.00  0.00    +0.000 C 
ATOM     26  O   UNL     1      50.558   2.145  17.361  0.00  0.00    +0.000 OA
ATOM     27  H   UNL     1      51.895   2.779  19.395  0.00  0.00    +0.000 HD
ATOM     28  H   UNL     1      51.543   4.497  19.235  0.00  0.00    +0.000 HD
ENDBRANCH  18  25
ENDBRANCH  16  21
ENDBRANCH   1  16
TORSDOF 5
ENDMDL
MODEL 9
REMARK VINA RESULT:    -6.427      5.354      7.910
REMARK INTER + INTRA:          -9.378
REMARK INTER:                  -8.407
REMARK INTRA:                  -0.972
REMARK UNBOUND:                -1.073
REMARK  Name = 
REMARK  5 active torsions:
REMARK  status: ('A' for Active; 'I' for Inactive)
REMARK    1  A    between atoms: C_2  and  C_4
REMARK    2  A    between atoms: C_7  and  N_8
REMARK    3  A    between atoms: N_8  and  C_9
REMARK    4  A    between atoms: C_9  and  C_10
REMARK    5  A    between atoms: C_14  and  C_15
REMARK                            x       y       z     vdW  Elec       q    Type
REMARK                         _______ _______ _______ _____ _____    ______ ____
ROOT
ATOM      1  C   UNL     1      48.921   7.888  15.807  0.00  0.00    +0.000 C 
ENDROOT
BRANCH   1   2
ATOM      2  C   UNL     1      48.573   7.649  14.355  0.00  0.00    +0.000 A 
ATOM      3  C   UNL     1      49.342   8.218  13.335  0.00  0.00    +0.000 A 
ATOM      4  C   UNL     1      49.052   7.935  12.003  0.00  0.00    +0.000 A 
ATOM      5  C   UNL     1      47.993   7.083  11.678  0.00  0.00    +0.000 A 
ATOM      6  C   UNL     1      47.198   6.481  12.670  0.00  0.00    +0.000 A 
ATOM      7  C   UNL     1      47.499   6.804  14.009  0.00  0.00    +0.000 A 
BRANCH   6   8
ATOM      8  C   UNL     1      46.111   5.530  12.323  0.00  0.00    +0.000 A 
ATOM      9  C   UNL     1      45.018   5.923  11.521  0.00  0.00    +0.000 A 
ATOM     10  C   UNL     1      43.986   5.032  11.204  0.00  0.00    +0.000 A 
ATOM     11  C   UNL     1      44.035   3.728  11.675  0.00  0.00    +0.000 A 
ATOM     12  F   UNL     1      43.048   2.875  11.365  0.00  0.00    +0.000 F 
ATOM     13  C   UNL     1      45.087   3.298  12.463  0.00  0.00    +0.000 A 
ATOM     14  C   UNL     1      46.103   4.196  12.784  0.00  0.00    +0.000 A 
ATOM     15  F   UNL     1      47.085   3.743  13.579  0.00  0.00    +0.000 F 
ENDBRANCH   6   8
ENDBRANCH   1   2
BRANCH   1  16
ATOM     16  N   UNL     1      48.333   6.864  16.666  0.00  0.00    +0.000 N 
ATOM     17  H   UNL     1      48.003   7.248  17.548  0.00  0.00    +0.000 HD
BRANCH  16  21
ATOM     18  C   UNL     1      50.528   3.379  17.348  0.00  0.00    +0.000 A 
ATOM     19  C   UNL     1      49.161   3.257  17.168  0.00  0.00    +0.000 A 
ATOM     20  C   UNL     1      48.418   4.413  16.924  0.00  0.00    +0.000 A 
ATOM     21  C   UNL     1      49.040   5.663  16.832  0.00  0.00    +0.000 A 
ATOM     22  C   UNL     1      50.422   5.665  17.069  0.00  0.00    +0.000 A 
ATOM     23  N   UNL     1      51.190   4.568  17.307  0.00  0.00    +0.000 NA
BRANCH  18  25
ATOM     24  N   UNL     1      52.453   2.338  18.404  0.00  0.00    +0.000 N 
ATOM     25  C   UNL     1      51.348   2.152  17.619  0.00  0.00    +0.000 C 
ATOM     26  O   UNL     1      51.050   1.049  17.175  0.00  0.00    +0.000 OA
ATOM     27  H   UNL     1      53.034   1.547  18.640  0.00  0.00    +0.000 HD
ATOM     28  H   UNL     1      52.656   3.261  18.769  0.00  0.00    +0.000 HD
ENDBRANCH  18  25
ENDBRANCH  16  21
ENDBRANCH   1  16
TORSDOF 5
ENDMDL
