MODEL 1
REMARK VINA RESULT:    -7.185      0.000      0.000
REMARK INTER + INTRA:         -11.937
REMARK INTER:                 -10.965
REMARK INTRA:                  -0.971
REMARK UNBOUND:                -0.971
REMARK  Name = 
REMARK  11 active torsions:
REMARK  status: ('A' for Active; 'I' for Inactive)
REMARK    1  A    between atoms: C_1  and  N_2
REMARK    2  A    between atoms: N_2  and  C_3
REMARK    3  A    between atoms: N_2  and  C_4
REMARK    4  A    between atoms: C_4  and  C_5
REMARK    5  A    between atoms: C_5  and  C_6
REMARK    6  A    between atoms: C_6  and  N_7
REMARK    7  A    between atoms: N_7  and  C_8
REMARK    8  A    between atoms: C_8  and  C_9
REMARK    9  A    between atoms: C_12  and  C_13
REMARK   10  A    between atoms: C_13  and  N_14
REMARK   11  A    between atoms: C_19  and  C_20
REMARK                            x       y       z     vdW  Elec       q    Type
REMARK                         _______ _______ _______ _____ _____    ______ ____
ROOT
ATOM      1  C   UNL     1      46.863   7.843  13.230  0.00  0.00    +0.000 A 
ATOM      2  C   UNL     1      46.890   6.447  13.099  0.00  0.00    +0.000 A 
ATOM      3  C   UNL     1      45.939   5.781  12.322  0.00  0.00    +0.000 A 
ATOM      4  C   UNL     1      44.927   6.495  11.671  0.00  0.00    +0.000 A 
ATOM      5  C   UNL     1      44.914   7.893  11.781  0.00  0.00    +0.000 A 
ATOM      6  C   UNL     1      45.873   8.560  12.547  0.00  0.00    +0.000 A 
ENDROOT
BRANCH   1   7
ATOM      7  C   UNL     1      47.874   8.558  14.099  0.00  0.00    +0.000 C 
BRANCH   7   8
ATOM      8  N   UNL     1      48.225   7.741  15.256  0.00  0.00    +0.000 NA
ATOM      9  H   UNL     1      47.702   8.077  16.063  0.00  0.00    +0.000 HD
BRANCH   8  10
ATOM     10  C   UNL     1      49.654   7.818  15.564  0.00  0.00    +0.000 C 
BRANCH  10  11
ATOM     11  C   UNL     1      50.023   6.574  16.373  0.00  0.00    +0.000 C 
BRANCH  11  12
ATOM     12  C   UNL     1      48.794   5.830  16.910  0.00  0.00    +0.000 C 
BRANCH  12  14
ATOM     13  C   UNL     1      49.085   3.449  17.315  0.00  0.00    +0.000 C 
ATOM     14  N   UNL     1      48.642   4.469  16.363  0.00  0.00    +0.000 NA
ATOM     15  C   UNL     1      47.248   4.224  15.988  0.00  0.00    +0.000 C 
ENDBRANCH  12  14
ENDBRANCH  11  12
ENDBRANCH  10  11
ENDBRANCH   8  10
ENDBRANCH   7   8
ENDBRANCH   1   7
BRANCH   4  16
ATOM     16  C   UNL     1      43.876   5.781  10.862  0.00  0.00    +0.000 C 
BRANCH  16  17
ATOM     17  N   UNL     1      44.276   4.426  10.482  0.00  0.00    +0.000 N 
ATOM     18  C   UNL     1      43.692   3.285  10.982  0.00  0.00    +0.000 A 
ATOM     19  C   UNL     1      44.150   2.213  10.253  0.00  0.00    +0.000 A 
ATOM     20  C   UNL     1      45.049   2.712   9.271  0.00  0.00    +0.000 A 
ATOM     21  C   UNL     1      45.778   2.115   8.234  0.00  0.00    +0.000 A 
ATOM     22  C   UNL     1      46.553   2.963   7.451  0.00  0.00    +0.000 A 
ATOM     23  N   UNL     1      46.659   4.309   7.637  0.00  0.00    +0.000 NA
ATOM     24  C   UNL     1      45.956   4.882   8.640  0.00  0.00    +0.000 A 
ATOM     25  C   UNL     1      45.137   4.095   9.449  0.00  0.00    +0.000 A 
BRANCH  22  26
ATOM     26  C   UNL     1      47.315   2.385   6.297  0.00  0.00    +0.000 C 
ATOM     27  N   UNL     1      47.254   3.089   5.121  0.00  0.00    +0.000 N 
ATOM     28  O   UNL     1      47.944   1.337   6.377  0.00  0.00    +0.000 OA
ATOM     29  H   UNL     1      46.714   3.945   5.072  0.00  0.00    +0.000 HD
ATOM     30  H   UNL     1      47.729   2.744   4.305  0.00  0.00    +0.000 HD
ENDBRANCH  22  26
ENDBRANCH  16  17
ENDBRANCH   4  16
TORSDOF 9
ENDMDL
MODEL 2
REMARK VINA RESULT:    -6.597      1.133      1.742
REMARK INTER + INTRA:         -11.039
REMARK INTER:                  -9.991
REMARK INTRA:                  -1.048
REMARK UNBOUND:                -0.971
REMARK  Name = 
REMARK  11 active torsions:
REMARK  status: ('A' for Active; 'I' for Inactive)
REMARK    1  A    between atoms: C_1  and  N_2
REMARK    2  A    between atoms: N_2  and  C_3
REMARK    3  A    between atoms: N_2  and  C_4
REMARK    4  A    between atoms: C_4  and  C_5
REMARK    5  A    between atoms: C_5  and  C_6
REMARK    6  A    between atoms: C_6  and  N_7
REMARK    7  A    between atoms: N_7  and  C_8
REMARK    8  A    between atoms: C_8  and  C_9
REMARK    9  A    between atoms: C_12  and  C_13
REMARK   10  A    between atoms: C_13  and  N_14
REMARK   11  A    between atoms: C_19  and  C_20
REMARK                            x       y       z     vdW  Elec       q    Type
REMARK                         _______ _______ _______ _____ _____    ______ ____
ROOT
ATOM      1  C   UNL     1      46.862   7.829  13.267  0.00  0.00    +0.000 A 
ATOM      2  C   UNL     1      45.915   8.554  12.528  0.00  0.00    +0.000 A 
ATOM      3  C   UNL     1      44.904   7.899  11.821  0.00  0.00    +0.000 A 
ATOM      4  C   UNL     1      44.826   6.502  11.823  0.00  0.00    +0.000 A 
ATOM      5  C   UNL     1      45.756   5.778  12.582  0.00  0.00    +0.000 A 
ATOM      6  C   UNL     1      46.760   6.434  13.300  0.00  0.00    +0.000 A 
ENDROOT
BRANCH   1   7
ATOM      7  C   UNL     1      47.975   8.540  14.005  0.00  0.00    +0.000 C 
BRANCH   7   8
ATOM      8  N   UNL     1      48.226   7.901  15.293  0.00  0.00    +0.000 NA
ATOM      9  H   UNL     1      47.989   8.558  16.034  0.00  0.00    +0.000 HD
BRANCH   8  10
ATOM     10  C   UNL     1      49.630   7.516  15.447  0.00  0.00    +0.000 C 
BRANCH  10  11
ATOM     11  C   UNL     1      49.679   6.290  16.360  0.00  0.00    +0.000 C 
BRANCH  11  12
ATOM     12  C   UNL     1      49.549   6.652  17.845  0.00  0.00    +0.000 C 
BRANCH  12  14
ATOM     13  C   UNL     1      47.387   6.403  18.930  0.00  0.00    +0.000 C 
ATOM     14  N   UNL     1      48.271   7.302  18.185  0.00  0.00    +0.000 NA
ATOM     15  C   UNL     1      48.509   8.519  18.964  0.00  0.00    +0.000 C 
ENDBRANCH  12  14
ENDBRANCH  11  12
ENDBRANCH  10  11
ENDBRANCH   8  10
ENDBRANCH   7   8
ENDBRANCH   1   7
BRANCH   4  16
ATOM     16  C   UNL     1      43.761   5.787  11.032  0.00  0.00    +0.000 C 
BRANCH  16  17
ATOM     17  N   UNL     1      44.135   4.416  10.686  0.00  0.00    +0.000 N 
ATOM     18  C   UNL     1      43.562   3.300  11.250  0.00  0.00    +0.000 A 
ATOM     19  C   UNL     1      43.983   2.197  10.543  0.00  0.00    +0.000 A 
ATOM     20  C   UNL     1      44.846   2.653   9.509  0.00  0.00    +0.000 A 
ATOM     21  C   UNL     1      45.529   2.013   8.467  0.00  0.00    +0.000 A 
ATOM     22  C   UNL     1      46.279   2.825   7.624  0.00  0.00    +0.000 A 
ATOM     23  N   UNL     1      46.403   4.176   7.756  0.00  0.00    +0.000 NA
ATOM     24  C   UNL     1      45.745   4.790   8.765  0.00  0.00    +0.000 A 
ATOM     25  C   UNL     1      44.951   4.041   9.634  0.00  0.00    +0.000 A 
BRANCH  22  26
ATOM     26  C   UNL     1      46.991   2.199   6.462  0.00  0.00    +0.000 C 
ATOM     27  N   UNL     1      47.249   3.024   5.397  0.00  0.00    +0.000 N 
ATOM     28  O   UNL     1      47.312   1.017   6.441  0.00  0.00    +0.000 OA
ATOM     29  H   UNL     1      46.958   3.995   5.428  0.00  0.00    +0.000 HD
ATOM     30  H   UNL     1      47.706   2.660   4.580  0.00  0.00    +0.000 HD
ENDBRANCH  22  26
ENDBRANCH  16  17
ENDBRANCH   4  16
TORSDOF 9
ENDMDL
MODEL 3
REMARK VINA RESULT:    -6.449      2.211      3.217
REMARK INTER + INTRA:         -10.813
REMARK INTER:                  -9.857
REMARK INTRA:                  -0.956
REMARK UNBOUND:                -0.971
REMARK  Name = 
REMARK  11 active torsions:
REMARK  status: ('A' for Active; 'I' for Inactive)
REMARK    1  A    between atoms: C_1  and  N_2
REMARK    2  A    between atoms: N_2  and  C_3
REMARK    3  A    between atoms: N_2  and  C_4
REMARK    4  A    between atoms: C_4  and  C_5
REMARK    5  A    between atoms: C_5  and  C_6
REMARK    6  A    between atoms: C_6  and  N_7
REMARK    7  A    between atoms: N_7  and  C_8
REMARK    8  A    between atoms: C_8  and  C_9
REMARK    9  A    between atoms: C_12  and  C_13
REMARK   10  A    between atoms: C_13  and  N_14
REMARK   11  A    between atoms: C_19  and  C_20
REMARK                            x       y       z     vdW  Elec       q    Type
REMARK                         _______ _______ _______ _____ _____    ______ ____
ROOT
ATOM      1  C   UNL     1      46.735   7.958  13.198  0.00  0.00    +0.000 A 
ATOM      2  C   UNL     1      46.758   6.557  13.127  0.00  0.00    +0.000 A 
ATOM      3  C   UNL     1      45.838   5.864  12.337  0.00  0.00    +0.000 A 
ATOM      4  C   UNL     1      44.861   6.556  11.612  0.00  0.00    +0.000 A 
ATOM      5  C   UNL     1      44.852   7.957  11.663  0.00  0.00    +0.000 A 
ATOM      6  C   UNL     1      45.782   8.651  12.443  0.00  0.00    +0.000 A 
ENDROOT
BRANCH   1   7
ATOM      7  C   UNL     1      47.711   8.703  14.081  0.00  0.00    +0.000 C 
BRANCH   7   8
ATOM      8  N   UNL     1      48.506   9.638  13.290  0.00  0.00    +0.000 NA
ATOM      9  H   UNL     1      48.424   9.385  12.307  0.00  0.00    +0.000 HD
BRANCH   8  10
ATOM     10  C   UNL     1      49.921   9.600  13.662  0.00  0.00    +0.000 C 
BRANCH  10  11
ATOM     11  C   UNL     1      50.500   8.278  13.158  0.00  0.00    +0.000 C 
BRANCH  11  12
ATOM     12  C   UNL     1      50.498   8.176  11.627  0.00  0.00    +0.000 C 
BRANCH  12  14
ATOM     13  C   UNL     1      52.118   7.364  10.004  0.00  0.00    +0.000 C 
ATOM     14  N   UNL     1      51.826   8.378  11.020  0.00  0.00    +0.000 NA
ATOM     15  C   UNL     1      51.917   9.713  10.426  0.00  0.00    +0.000 C 
ENDBRANCH  12  14
ENDBRANCH  11  12
ENDBRANCH  10  11
ENDBRANCH   8  10
ENDBRANCH   7   8
ENDBRANCH   1   7
BRANCH   4  16
ATOM     16  C   UNL     1      43.842   5.813  10.787  0.00  0.00    +0.000 C 
BRANCH  16  17
ATOM     17  N   UNL     1      44.279   4.465  10.424  0.00  0.00    +0.000 N 
ATOM     18  C   UNL     1      43.706   3.315  10.917  0.00  0.00    +0.000 A 
ATOM     19  C   UNL     1      44.203   2.249  10.204  0.00  0.00    +0.000 A 
ATOM     20  C   UNL     1      45.115   2.762   9.241  0.00  0.00    +0.000 A 
ATOM     21  C   UNL     1      45.882   2.175   8.226  0.00  0.00    +0.000 A 
ATOM     22  C   UNL     1      46.658   3.035   7.457  0.00  0.00    +0.000 A 
ATOM     23  N   UNL     1      46.731   4.384   7.638  0.00  0.00    +0.000 NA
ATOM     24  C   UNL     1      45.993   4.947   8.621  0.00  0.00    +0.000 A 
ATOM     25  C   UNL     1      45.170   4.148   9.415  0.00  0.00    +0.000 A 
BRANCH  22  26
ATOM     26  C   UNL     1      47.459   2.468   6.324  0.00  0.00    +0.000 C 
ATOM     27  N   UNL     1      47.206   2.993   5.083  0.00  0.00    +0.000 N 
ATOM     28  O   UNL     1      48.282   1.574   6.479  0.00  0.00    +0.000 OA
ATOM     29  H   UNL     1      46.508   3.720   4.976  0.00  0.00    +0.000 HD
ATOM     30  H   UNL     1      47.696   2.642   4.280  0.00  0.00    +0.000 HD
ENDBRANCH  22  26
ENDBRANCH  16  17
ENDBRANCH   4  16
TORSDOF 9
ENDMDL
MODEL 4
REMARK VINA RESULT:    -6.117      3.383      9.144
REMARK INTER + INTRA:         -10.307
REMARK INTER:                  -9.397
REMARK INTRA:                  -0.909
REMARK UNBOUND:                -0.971
REMARK  Name = 
REMARK  11 active torsions:
REMARK  status: ('A' for Active; 'I' for Inactive)
REMARK    1  A    between atoms: C_1  and  N_2
REMARK    2  A    between atoms: N_2  and  C_3
REMARK    3  A    between atoms: N_2  and  C_4
REMARK    4  A    between atoms: C_4  and  C_5
REMARK    5  A    between atoms: C_5  and  C_6
REMARK    6  A    between atoms: C_6  and  N_7
REMARK    7  A    between atoms: N_7  and  C_8
REMARK    8  A    between atoms: C_8  and  C_9
REMARK    9  A    between atoms: C_12  and  C_13
REMARK   10  A    between atoms: C_13  and  N_14
REMARK   11  A    between atoms: C_19  and  C_20
REMARK                            x       y       z     vdW  Elec       q    Type
REMARK                         _______ _______ _______ _____ _____    ______ ____
ROOT
ATOM      1  C   UNL     1      45.174   5.700  12.023  0.00  0.00    +0.000 A 
ATOM      2  C   UNL     1      45.829   6.871  11.615  0.00  0.00    +0.000 A 
ATOM      3  C   UNL     1      47.071   7.222  12.148  0.00  0.00    +0.000 A 
ATOM      4  C   UNL     1      47.682   6.417  13.117  0.00  0.00    +0.000 A 
ATOM      5  C   UNL     1      47.040   5.233  13.508  0.00  0.00    +0.000 A 
ATOM      6  C   UNL     1      45.803   4.875  12.964  0.00  0.00    +0.000 A 
ENDROOT
BRANCH   1   7
ATOM      7  C   UNL     1      43.814   5.340  11.468  0.00  0.00    +0.000 C 
BRANCH   7   8
ATOM      8  N   UNL     1      43.893   5.108  10.029  0.00  0.00    +0.000 NA
ATOM      9  H   UNL     1      42.955   5.181   9.636  0.00  0.00    +0.000 HD
BRANCH   8  10
ATOM     10  C   UNL     1      44.424   3.780   9.719  0.00  0.00    +0.000 C 
BRANCH  10  11
ATOM     11  C   UNL     1      44.710   3.733   8.217  0.00  0.00    +0.000 C 
BRANCH  11  12
ATOM     12  C   UNL     1      46.206   3.605   7.903  0.00  0.00    +0.000 C 
BRANCH  12  14
ATOM     13  C   UNL     1      47.919   2.413   6.654  0.00  0.00    +0.000 C 
ATOM     14  N   UNL     1      46.556   2.367   7.184  0.00  0.00    +0.000 NA
ATOM     15  C   UNL     1      46.406   1.207   8.065  0.00  0.00    +0.000 C 
ENDBRANCH  12  14
ENDBRANCH  11  12
ENDBRANCH  10  11
ENDBRANCH   8  10
ENDBRANCH   7   8
ENDBRANCH   1   7
BRANCH   4  16
ATOM     16  C   UNL     1      49.003   6.808  13.724  0.00  0.00    +0.000 C 
BRANCH  16  17
ATOM     17  N   UNL     1      48.862   7.423  15.044  0.00  0.00    +0.000 N 
ATOM     18  C   UNL     1      48.561   8.751  15.243  0.00  0.00    +0.000 A 
ATOM     19  C   UNL     1      48.285   8.933  16.578  0.00  0.00    +0.000 A 
ATOM     20  C   UNL     1      48.422   7.673  17.223  0.00  0.00    +0.000 A 
ATOM     21  C   UNL     1      48.229   7.233  18.539  0.00  0.00    +0.000 A 
ATOM     22  C   UNL     1      48.451   5.882  18.781  0.00  0.00    +0.000 A 
ATOM     23  N   UNL     1      48.852   4.981  17.841  0.00  0.00    +0.000 NA
ATOM     24  C   UNL     1      49.041   5.409  16.573  0.00  0.00    +0.000 A 
ATOM     25  C   UNL     1      48.811   6.747  16.251  0.00  0.00    +0.000 A 
BRANCH  22  26
ATOM     26  C   UNL     1      48.211   5.348  20.161  0.00  0.00    +0.000 C 
ATOM     27  N   UNL     1      48.603   4.052  20.383  0.00  0.00    +0.000 N 
ATOM     28  O   UNL     1      47.680   6.009  21.045  0.00  0.00    +0.000 OA
ATOM     29  H   UNL     1      49.025   3.517  19.632  0.00  0.00    +0.000 HD
ATOM     30  H   UNL     1      48.453   3.629  21.281  0.00  0.00    +0.000 HD
ENDBRANCH  22  26
ENDBRANCH  16  17
ENDBRANCH   4  16
TORSDOF 9
ENDMDL
MODEL 5
REMARK VINA RESULT:    -6.078      3.819      9.101
REMARK INTER + INTRA:         -10.247
REMARK INTER:                  -9.385
REMARK INTRA:                  -0.862
REMARK UNBOUND:                -0.971
REMARK  Name = 
REMARK  11 active torsions:
REMARK  status: ('A' for Active; 'I' for Inactive)
REMARK    1  A    between atoms: C_1  and  N_2
REMARK    2  A    between atoms: N_2  and  C_3
REMARK    3  A    between atoms: N_2  and  C_4
REMARK    4  A    between atoms: C_4  and  C_5
REMARK    5  A    between atoms: C_5  and  C_6
REMARK    6  A    between atoms: C_6  and  N_7
REMARK    7  A    between atoms: N_7  and  C_8
REMARK    8  A    between atoms: C_8  and  C_9
REMARK    9  A    between atoms: C_12  and  C_13
REMARK   10  A    between atoms: C_13  and  N_14
REMARK   11  A    between atoms: C_19  and  C_20
REMARK                            x       y       z     vdW  Elec       q    Type
REMARK                         _______ _______ _______ _____ _____    ______ ____
ROOT
ATOM      1  C   UNL     1      47.185   5.517  13.946  0.00  0.00    +0.000 A 
ATOM      2  C   UNL     1      48.096   6.422  14.510  0.00  0.00    +0.000 A 
ATOM      3  C   UNL     1      48.636   6.199  15.779  0.00  0.00    +0.000 A 
ATOM      4  C   UNL     1      48.263   5.073  16.522  0.00  0.00    +0.000 A 
ATOM      5  C   UNL     1      47.371   4.155  15.949  0.00  0.00    +0.000 A 
ATOM      6  C   UNL     1      46.843   4.371  14.674  0.00  0.00    +0.000 A 
ENDROOT
BRANCH   1   7
ATOM      7  C   UNL     1      46.578   5.778  12.586  0.00  0.00    +0.000 C 
BRANCH   7   8
ATOM      8  N   UNL     1      45.312   6.493  12.718  0.00  0.00    +0.000 NA
ATOM      9  H   UNL     1      44.747   6.026  13.425  0.00  0.00    +0.000 HD
BRANCH   8  10
ATOM     10  C   UNL     1      44.562   6.509  11.461  0.00  0.00    +0.000 C 
BRANCH  10  11
ATOM     11  C   UNL     1      45.019   5.310  10.630  0.00  0.00    +0.000 C 
BRANCH  11  12
ATOM     12  C   UNL     1      43.862   4.625   9.892  0.00  0.00    +0.000 C 
BRANCH  12  14
ATOM     13  C   UNL     1      44.829   2.425   9.516  0.00  0.00    +0.000 C 
ATOM     14  N   UNL     1      43.758   3.181  10.167  0.00  0.00    +0.000 NA
ATOM     15  C   UNL     1      43.786   2.934  11.611  0.00  0.00    +0.000 C 
ENDBRANCH  12  14
ENDBRANCH  11  12
ENDBRANCH  10  11
ENDBRANCH   8  10
ENDBRANCH   7   8
ENDBRANCH   1   7
BRANCH   4  16
ATOM     16  C   UNL     1      48.812   4.845  17.906  0.00  0.00    +0.000 C 
BRANCH  16  17
ATOM     17  N   UNL     1      50.258   4.626  17.914  0.00  0.00    +0.000 N 
ATOM     18  C   UNL     1      51.176   5.583  18.283  0.00  0.00    +0.000 A 
ATOM     19  C   UNL     1      52.407   4.978  18.390  0.00  0.00    +0.000 A 
ATOM     20  C   UNL     1      52.240   3.601  18.074  0.00  0.00    +0.000 A 
ATOM     21  C   UNL     1      53.106   2.501  18.054  0.00  0.00    +0.000 A 
ATOM     22  C   UNL     1      52.548   1.277  17.702  0.00  0.00    +0.000 A 
ATOM     23  N   UNL     1      51.241   1.088  17.364  0.00  0.00    +0.000 NA
ATOM     24  C   UNL     1      50.408   2.153  17.381  0.00  0.00    +0.000 A 
ATOM     25  C   UNL     1      50.894   3.408  17.751  0.00  0.00    +0.000 A 
BRANCH  22  26
ATOM     26  C   UNL     1      53.419   0.056  17.712  0.00  0.00    +0.000 C 
ATOM     27  N   UNL     1      53.903  -0.350  16.495  0.00  0.00    +0.000 N 
ATOM     28  O   UNL     1      53.677  -0.564  18.737  0.00  0.00    +0.000 OA
ATOM     29  H   UNL     1      53.662   0.168  15.658  0.00  0.00    +0.000 HD
ATOM     30  H   UNL     1      54.477  -1.172  16.433  0.00  0.00    +0.000 HD
ENDBRANCH  22  26
ENDBRANCH  16  17
ENDBRANCH   4  16
TORSDOF 9
ENDMDL
MODEL 6
REMARK VINA RESULT:    -5.681      3.537      7.828
REMARK INTER + INTRA:          -9.642
REMARK INTER:                  -8.786
REMARK INTRA:                  -0.856
REMARK UNBOUND:                -0.971
REMARK  Name = 
REMARK  11 active torsions:
REMARK  status: ('A' for Active; 'I' for Inactive)
REMARK    1  A    between atoms: C_1  and  N_2
REMARK    2  A    between atoms: N_2  and  C_3
REMARK    3  A    between atoms: N_2  and  C_4
REMARK    4  A    between atoms: C_4  and  C_5
REMARK    5  A    between atoms: C_5  and  C_6
REMARK    6  A    between atoms: C_6  and  N_7
REMARK    7  A    between atoms: N_7  and  C_8
REMARK    8  A    between atoms: C_8  and  C_9
REMARK    9  A    between atoms: C_12  and  C_13
REMARK   10  A    between atoms: C_13  and  N_14
REMARK   11  A    between atoms: C_19  and  C_20
REMARK                            x       y       z     vdW  Elec       q    Type
REMARK                         _______ _______ _______ _____ _____    ______ ____
ROOT
ATOM      1  C   UNL     1      44.836   5.373  11.509  0.00  0.00    +0.000 A 
ATOM      2  C   UNL     1      45.938   5.100  12.333  0.00  0.00    +0.000 A 
ATOM      3  C   UNL     1      46.626   6.132  12.976  0.00  0.00    +0.000 A 
ATOM      4  C   UNL     1      46.239   7.465  12.794  0.00  0.00    +0.000 A 
ATOM      5  C   UNL     1      45.123   7.737  11.990  0.00  0.00    +0.000 A 
ATOM      6  C   UNL     1      44.426   6.703  11.359  0.00  0.00    +0.000 A 
ENDROOT
BRANCH   1   7
ATOM      7  C   UNL     1      44.113   4.257  10.790  0.00  0.00    +0.000 C 
BRANCH   7   8
ATOM      8  N   UNL     1      43.734   4.675   9.444  0.00  0.00    +0.000 NA
ATOM      9  H   UNL     1      42.720   4.615   9.357  0.00  0.00    +0.000 HD
BRANCH   8  10
ATOM     10  C   UNL     1      44.337   3.823   8.418  0.00  0.00    +0.000 C 
BRANCH  10  11
ATOM     11  C   UNL     1      45.825   4.168   8.342  0.00  0.00    +0.000 C 
BRANCH  11  12
ATOM     12  C   UNL     1      46.471   3.717   7.026  0.00  0.00    +0.000 C 
BRANCH  12  14
ATOM     13  C   UNL     1      46.702   1.406   7.749  0.00  0.00    +0.000 C 
ATOM     14  N   UNL     1      47.384   2.569   7.179  0.00  0.00    +0.000 NA
ATOM     15  C   UNL     1      47.974   2.212   5.887  0.00  0.00    +0.000 C 
ENDBRANCH  12  14
ENDBRANCH  11  12
ENDBRANCH  10  11
ENDBRANCH   8  10
ENDBRANCH   7   8
ENDBRANCH   1   7
BRANCH   4  16
ATOM     16  C   UNL     1      47.000   8.586  13.453  0.00  0.00    +0.000 C 
BRANCH  16  17
ATOM     17  N   UNL     1      47.753   9.398  12.498  0.00  0.00    +0.000 N 
ATOM     18  C   UNL     1      47.375  10.659  12.097  0.00  0.00    +0.000 A 
ATOM     19  C   UNL     1      48.411  11.211  11.381  0.00  0.00    +0.000 A 
ATOM     20  C   UNL     1      49.464  10.256  11.340  0.00  0.00    +0.000 A 
ATOM     21  C   UNL     1      50.759  10.265  10.805  0.00  0.00    +0.000 A 
ATOM     22  C   UNL     1      51.516   9.114  10.991  0.00  0.00    +0.000 A 
ATOM     23  N   UNL     1      51.080   7.994  11.633  0.00  0.00    +0.000 NA
ATOM     24  C   UNL     1      49.829   7.987  12.145  0.00  0.00    +0.000 A 
ATOM     25  C   UNL     1      49.022   9.117  12.020  0.00  0.00    +0.000 A 
BRANCH  22  26
ATOM     26  C   UNL     1      52.926   9.088  10.483  0.00  0.00    +0.000 C 
ATOM     27  N   UNL     1      53.787   8.242  11.135  0.00  0.00    +0.000 N 
ATOM     28  O   UNL     1      53.309   9.788   9.553  0.00  0.00    +0.000 OA
ATOM     29  H   UNL     1      53.454   7.684  11.913  0.00  0.00    +0.000 HD
ATOM     30  H   UNL     1      54.750   8.192  10.854  0.00  0.00    +0.000 HD
ENDBRANCH  22  26
ENDBRANCH  16  17
ENDBRANCH   4  16
TORSDOF 9
ENDMDL
MODEL 7
REMARK VINA RESULT:    -5.552      3.277      8.544
REMARK INTER + INTRA:          -9.444
REMARK INTER:                  -8.553
REMARK INTRA:                  -0.891
REMARK UNBOUND:                -0.971
REMARK  Name = 
REMARK  11 active torsions:
REMARK  status: ('A' for Active; 'I' for Inactive)
REMARK    1  A    between atoms: C_1  and  N_2
REMARK    2  A    between atoms: N_2  and  C_3
REMARK    3  A    between atoms: N_2  and  C_4
REMARK    4  A    between atoms: C_4  and  C_5
REMARK    5  A    between atoms: C_5  and  C_6
REMARK    6  A    between atoms: C_6  and  N_7
REMARK    7  A    between atoms: N_7  and  C_8
REMARK    8  A    between atoms: C_8  and  C_9
REMARK    9  A    between atoms: C_12  and  C_13
REMARK   10  A    between atoms: C_13  and  N_14
REMARK   11  A    between atoms: C_19  and  C_20
REMARK                            x       y       z     vdW  Elec       q    Type
REMARK                         _______ _______ _______ _____ _____    ______ ____
ROOT
ATOM      1  C   UNL     1      44.048   4.951  11.924  0.00  0.00    +0.000 A 
ATOM      2  C   UNL     1      43.809   6.211  11.355  0.00  0.00    +0.000 A 
ATOM      3  C   UNL     1      44.611   7.308  11.677  0.00  0.00    +0.000 A 
ATOM      4  C   UNL     1      45.662   7.175  12.591  0.00  0.00    +0.000 A 
ATOM      5  C   UNL     1      45.918   5.911  13.143  0.00  0.00    +0.000 A 
ATOM      6  C   UNL     1      45.124   4.810  12.809  0.00  0.00    +0.000 A 
ENDROOT
BRANCH   1   7
ATOM      7  C   UNL     1      43.157   3.773  11.598  0.00  0.00    +0.000 C 
BRANCH   7   8
ATOM      8  N   UNL     1      43.922   2.718  10.940  0.00  0.00    +0.000 NA
ATOM      9  H   UNL     1      44.813   2.613  11.423  0.00  0.00    +0.000 HD
BRANCH   8  10
ATOM     10  C   UNL     1      44.191   3.034   9.536  0.00  0.00    +0.000 C 
BRANCH  10  11
ATOM     11  C   UNL     1      45.333   2.132   9.066  0.00  0.00    +0.000 C 
BRANCH  11  12
ATOM     12  C   UNL     1      46.197   2.787   7.981  0.00  0.00    +0.000 C 
BRANCH  12  14
ATOM     13  C   UNL     1      48.033   2.250   6.479  0.00  0.00    +0.000 C 
ATOM     14  N   UNL     1      46.727   1.832   6.991  0.00  0.00    +0.000 NA
ATOM     15  C   UNL     1      46.830   0.494   7.578  0.00  0.00    +0.000 C 
ENDBRANCH  12  14
ENDBRANCH  11  12
ENDBRANCH  10  11
ENDBRANCH   8  10
ENDBRANCH   7   8
ENDBRANCH   1   7
BRANCH   4  16
ATOM     16  C   UNL     1      46.508   8.361  12.973  0.00  0.00    +0.000 C 
BRANCH  16  17
ATOM     17  N   UNL     1      47.942   8.084  12.897  0.00  0.00    +0.000 N 
ATOM     18  C   UNL     1      48.630   7.919  11.717  0.00  0.00    +0.000 A 
ATOM     19  C   UNL     1      49.975   7.899  12.003  0.00  0.00    +0.000 A 
ATOM     20  C   UNL     1      50.119   8.055  13.409  0.00  0.00    +0.000 A 
ATOM     21  C   UNL     1      51.225   8.152  14.264  0.00  0.00    +0.000 A 
ATOM     22  C   UNL     1      50.952   8.324  15.616  0.00  0.00    +0.000 A 
ATOM     23  N   UNL     1      49.701   8.384  16.154  0.00  0.00    +0.000 NA
ATOM     24  C   UNL     1      48.636   8.286  15.326  0.00  0.00    +0.000 A 
ATOM     25  C   UNL     1      48.835   8.140  13.954  0.00  0.00    +0.000 A 
BRANCH  22  26
ATOM     26  C   UNL     1      52.098   8.484  16.570  0.00  0.00    +0.000 C 
ATOM     27  N   UNL     1      52.938   9.541  16.331  0.00  0.00    +0.000 N 
ATOM     28  O   UNL     1      52.297   7.714  17.501  0.00  0.00    +0.000 OA
ATOM     29  H   UNL     1      52.764  10.156  15.544  0.00  0.00    +0.000 HD
ATOM     30  H   UNL     1      53.735   9.693  16.923  0.00  0.00    +0.000 HD
ENDBRANCH  22  26
ENDBRANCH  16  17
ENDBRANCH   4  16
TORSDOF 9
ENDMDL
MODEL 8
REMARK VINA RESULT:    -5.224      4.958      7.131
REMARK INTER + INTRA:          -8.944
REMARK INTER:                  -8.112
REMARK INTRA:                  -0.832
REMARK UNBOUND:                -0.971
REMARK  Name = 
REMARK  11 active torsions:
REMARK  status: ('A' for Active; 'I' for Inactive)
REMARK    1  A    between atoms: C_1  and  N_2
REMARK    2  A    between atoms: N_2  and  C_3
REMARK    3  A    between atoms: N_2  and  C_4
REMARK    4  A    between atoms: C_4  and  C_5
REMARK    5  A    between atoms: C_5  and  C_6
REMARK    6  A    between atoms: C_6  and  N_7
REMARK    7  A    between atoms: N_7  and  C_8
REMARK    8  A    between atoms: C_8  and  C_9
REMARK    9  A    between atoms: C_12  and  C_13
REMARK   10  A    between atoms: C_13  and  N_14
REMARK   11  A    between atoms: C_19  and  C_20
REMARK                            x       y       z     vdW  Elec       q    Type
REMARK                         _______ _______ _______ _____ _____    ______ ____
ROOT
ATOM      1  C   UNL     1      49.079   7.422  13.539  0.00  0.00    +0.000 A 
ATOM      2  C   UNL     1      49.035   7.322  12.140  0.00  0.00    +0.000 A 
ATOM      3  C   UNL     1      50.101   7.769  11.355  0.00  0.00    +0.000 A 
ATOM      4  C   UNL     1      51.230   8.343  11.951  0.00  0.00    +0.000 A 
ATOM      5  C   UNL     1      51.286   8.421  13.350  0.00  0.00    +0.000 A 
ATOM      6  C   UNL     1      50.225   7.961  14.136  0.00  0.00    +0.000 A 
ENDROOT
BRANCH   1   7
ATOM      7  C   UNL     1      47.910   6.967  14.383  0.00  0.00    +0.000 C 
BRANCH   7   8
ATOM      8  N   UNL     1      46.784   6.584  13.537  0.00  0.00    +0.000 NA
ATOM      9  H   UNL     1      45.965   7.118  13.823  0.00  0.00    +0.000 HD
BRANCH   8  10
ATOM     10  C   UNL     1      46.473   5.158  13.657  0.00  0.00    +0.000 C 
BRANCH  10  11
ATOM     11  C   UNL     1      45.005   4.968  13.272  0.00  0.00    +0.000 C 
BRANCH  11  12
ATOM     12  C   UNL     1      44.810   3.893  12.196  0.00  0.00    +0.000 C 
BRANCH  12  14
ATOM     13  C   UNL     1      42.799   5.219  11.854  0.00  0.00    +0.000 C 
ATOM     14  N   UNL     1      43.593   4.082  11.385  0.00  0.00    +0.000 NA
ATOM     15  C   UNL     1      43.945   4.273   9.976  0.00  0.00    +0.000 C 
ENDBRANCH  12  14
ENDBRANCH  11  12
ENDBRANCH  10  11
ENDBRANCH   8  10
ENDBRANCH   7   8
ENDBRANCH   1   7
BRANCH   4  16
ATOM     16  C   UNL     1      52.367   8.862  11.110  0.00  0.00    +0.000 C 
BRANCH  16  17
ATOM     17  N   UNL     1      53.317   7.815  10.732  0.00  0.00    +0.000 N 
ATOM     18  C   UNL     1      54.271   7.304  11.581  0.00  0.00    +0.000 A 
ATOM     19  C   UNL     1      54.830   6.198  10.983  0.00  0.00    +0.000 A 
ATOM     20  C   UNL     1      54.198   6.025   9.721  0.00  0.00    +0.000 A 
ATOM     21  C   UNL     1      54.312   5.068   8.705  0.00  0.00    +0.000 A 
ATOM     22  C   UNL     1      53.484   5.233   7.600  0.00  0.00    +0.000 A 
ATOM     23  N   UNL     1      52.599   6.257   7.439  0.00  0.00    +0.000 NA
ATOM     24  C   UNL     1      52.494   7.181   8.421  0.00  0.00    +0.000 A 
ATOM     25  C   UNL     1      53.274   7.064   9.571  0.00  0.00    +0.000 A 
BRANCH  22  26
ATOM     26  C   UNL     1      53.529   4.210   6.505  0.00  0.00    +0.000 C 
ATOM     27  N   UNL     1      53.127   2.944   6.845  0.00  0.00    +0.000 N 
ATOM     28  O   UNL     1      53.918   4.469   5.372  0.00  0.00    +0.000 OA
ATOM     29  H   UNL     1      52.826   2.747   7.793  0.00  0.00    +0.000 HD
ATOM     30  H   UNL     1      53.152   2.208   6.161  0.00  0.00    +0.000 HD
ENDBRANCH  22  26
ENDBRANCH  16  17
ENDBRANCH   4  16
TORSDOF 9
ENDMDL
MODEL 9
REMARK VINA RESULT:    -4.794      5.064      7.203
REMARK INTER + INTRA:          -8.288
REMARK INTER:                  -7.381
REMARK INTRA:                  -0.907
REMARK UNBOUND:                -0.971
REMARK  Name = 
REMARK  11 active torsions:
REMARK  status: ('A' for Active; 'I' for Inactive)
REMARK    1  A    between atoms: C_1  and  N_2
REMARK    2  A    between atoms: N_2  and  C_3
REMARK    3  A    between atoms: N_2  and  C_4
REMARK    4  A    between atoms: C_4  and  C_5
REMARK    5  A    between atoms: C_5  and  C_6
REMARK    6  A    between atoms: C_6  and  N_7
REMARK    7  A    between atoms: N_7  and  C_8
REMARK    8  A    between atoms: C_8  and  C_9
REMARK    9  A    between atoms: C_12  and  C_13
REMARK   10  A    between atoms: C_13  and  N_14
REMARK   11  A    between atoms: C_19  and  C_20
REMARK                            x       y       z     vdW  Elec       q    Type
REMARK                         _______ _______ _______ _____ _____    ______ ____
ROOT
ATOM      1  C   UNL     1      52.511   8.399  11.222  0.00  0.00    +0.000 A 
ATOM      2  C   UNL     1      52.033   9.288  12.196  0.00  0.00    +0.000 A 
ATOM      3  C   UNL     1      50.692   9.270  12.588  0.00  0.00    +0.000 A 
ATOM      4  C   UNL     1      49.793   8.372  12.001  0.00  0.00    +0.000 A 
ATOM      5  C   UNL     1      50.274   7.467  11.045  0.00  0.00    +0.000 A 
ATOM      6  C   UNL     1      51.619   7.476  10.663  0.00  0.00    +0.000 A 
ENDROOT
BRANCH   1   7
ATOM      7  C   UNL     1      53.955   8.444  10.776  0.00  0.00    +0.000 C 
BRANCH   7   8
ATOM      8  N   UNL     1      54.187   9.589   9.902  0.00  0.00    +0.000 NA
ATOM      9  H   UNL     1      53.337  10.150   9.867  0.00  0.00    +0.000 HD
BRANCH   8  10
ATOM     10  C   UNL     1      54.524   9.175   8.539  0.00  0.00    +0.000 C 
BRANCH  10  11
ATOM     11  C   UNL     1      54.664   7.652   8.536  0.00  0.00    +0.000 C 
BRANCH  11  12
ATOM     12  C   UNL     1      54.941   7.085   7.138  0.00  0.00    +0.000 C 
BRANCH  12  14
ATOM     13  C   UNL     1      54.439   4.705   7.121  0.00  0.00    +0.000 C 
ATOM     14  N   UNL     1      53.988   6.040   6.724  0.00  0.00    +0.000 NA
ATOM     15  C   UNL     1      52.664   6.303   7.293  0.00  0.00    +0.000 C 
ENDBRANCH  12  14
ENDBRANCH  11  12
ENDBRANCH  10  11
ENDBRANCH   8  10
ENDBRANCH   7   8
ENDBRANCH   1   7
BRANCH   4  16
ATOM     16  C   UNL     1      48.338   8.371  12.391  0.00  0.00    +0.000 C 
BRANCH  16  17
ATOM     17  N   UNL     1      47.908   7.102  12.978  0.00  0.00    +0.000 N 
ATOM     18  C   UNL     1      48.294   6.664  14.224  0.00  0.00    +0.000 A 
ATOM     19  C   UNL     1      47.538   5.561  14.545  0.00  0.00    +0.000 A 
ATOM     20  C   UNL     1      46.657   5.311  13.456  0.00  0.00    +0.000 A 
ATOM     21  C   UNL     1      45.644   4.371  13.228  0.00  0.00    +0.000 A 
ATOM     22  C   UNL     1      44.974   4.463  12.014  0.00  0.00    +0.000 A 
ATOM     23  N   UNL     1      45.247   5.381  11.044  0.00  0.00    +0.000 NA
ATOM     24  C   UNL     1      46.228   6.285  11.266  0.00  0.00    +0.000 A 
ATOM     25  C   UNL     1      46.925   6.269  12.474  0.00  0.00    +0.000 A 
BRANCH  22  26
ATOM     26  C   UNL     1      43.846   3.514  11.737  0.00  0.00    +0.000 C 
ATOM     27  N   UNL     1      43.791   2.396  12.530  0.00  0.00    +0.000 N 
ATOM     28  O   UNL     1      43.026   3.701  10.847  0.00  0.00    +0.000 OA
ATOM     29  H   UNL     1      44.491   2.252  13.249  0.00  0.00    +0.000 HD
ATOM     30  H   UNL     1      43.071   1.711  12.382  0.00  0.00    +0.000 HD
ENDBRANCH  22  26
ENDBRANCH  16  17
ENDBRANCH   4  16
TORSDOF 9
ENDMDL
