MODEL 1
REMARK VINA RESULT:    -7.739      0.000      0.000
REMARK INTER + INTRA:         -11.994
REMARK INTER:                 -10.906
REMARK INTRA:                  -1.088
REMARK UNBOUND:                -1.088
REMARK  Name = 
REMARK  8 active torsions:
REMARK  status: ('A' for Active; 'I' for Inactive)
REMARK    1  A    between atoms: C_1  and  O_2
REMARK    2  A    between atoms: O_2  and  C_3
REMARK    3  A    between atoms: C_5  and  C_6
REMARK    4  A    between atoms: C_6  and  N_7
REMARK    5  A    between atoms: C_8  and  C_10
REMARK    6  A    between atoms: C_17  and  C_18
REMARK    7  A    between atoms: C_18  and  N_19
REMARK    8  A    between atoms: C_20  and  C_22
REMARK                            x       y       z     vdW  Elec       q    Type
REMARK                         _______ _______ _______ _____ _____    ______ ____
ROOT
ATOM      1  C   UNL     1      45.277   8.100  12.273  0.00  0.00    +0.000 A 
ATOM      2  C   UNL     1      44.512   7.303  11.407  0.00  0.00    +0.000 A 
ATOM      3  C   UNL     1      44.904   5.994  11.087  0.00  0.00    +0.000 A 
ATOM      4  C   UNL     1      46.065   5.473  11.671  0.00  0.00    +0.000 A 
ATOM      5  C   UNL     1      46.831   6.258  12.531  0.00  0.00    +0.000 A 
ATOM      6  C   UNL     1      46.460   7.581  12.828  0.00  0.00    +0.000 A 
ENDROOT
BRANCH   1   8
ATOM      7  C   UNL     1      44.846  10.317  11.525  0.00  0.00    +0.000 C 
ATOM      8  O   UNL     1      44.962   9.391  12.600  0.00  0.00    +0.000 OA
ENDBRANCH   1   8
BRANCH   3   9
ATOM      9  C   UNL     1      44.060   5.148  10.171  0.00  0.00    +0.000 C 
BRANCH   9  10
ATOM     10  N   UNL     1      44.888   4.439   9.228  0.00  0.00    +0.000 N 
ATOM     11  C   UNL     1      44.991   3.067   9.219  0.00  0.00    +0.000 C 
ATOM     12  O   UNL     1      44.392   2.373  10.040  0.00  0.00    +0.000 OA
ATOM     13  H   UNL     1      45.352   4.957   8.494  0.00  0.00    +0.000 HD
BRANCH  11  14
ATOM     14  C   UNL     1      45.853   2.504   8.185  0.00  0.00    +0.000 A 
ATOM     15  C   UNL     1      46.264   1.192   8.059  0.00  0.00    +0.000 A 
ATOM     16  C   UNL     1      47.110   0.983   6.932  0.00  0.00    +0.000 A 
ATOM     17  C   UNL     1      47.321   2.146   6.225  0.00  0.00    +0.000 A 
ATOM     18  S   UNL     1      46.500   3.473   6.919  0.00  0.00    +0.000 S 
ENDBRANCH  11  14
ENDBRANCH   9  10
ENDBRANCH   3   9
BRANCH   6  19
ATOM     19  C   UNL     1      47.316   8.367  13.793  0.00  0.00    +0.000 C 
BRANCH  19  20
ATOM     20  N   UNL     1      47.783   7.514  14.862  0.00  0.00    +0.000 N 
ATOM     21  C   UNL     1      49.106   7.216  15.048  0.00  0.00    +0.000 C 
ATOM     22  O   UNL     1      49.975   7.521  14.241  0.00  0.00    +0.000 OA
ATOM     23  H   UNL     1      47.129   7.394  15.631  0.00  0.00    +0.000 HD
BRANCH  21  24
ATOM     24  C   UNL     1      49.436   6.489  16.283  0.00  0.00    +0.000 A 
ATOM     25  C   UNL     1      50.349   7.020  17.182  0.00  0.00    +0.000 A 
ATOM     26  S   UNL     1      50.537   6.081  18.597  0.00  0.00    +0.000 S 
ATOM     27  C   UNL     1      49.344   4.979  18.088  0.00  0.00    +0.000 A 
ATOM     28  N   UNL     1      48.911   3.983  18.905  0.00  0.00    +0.000 NA
ATOM     29  C   UNL     1      47.973   3.251  18.403  0.00  0.00    +0.000 A 
ATOM     30  N   UNL     1      47.464   3.393  17.137  0.00  0.00    +0.000 N 
ATOM     31  C   UNL     1      47.929   4.330  16.248  0.00  0.00    +0.000 A 
ATOM     32  O   UNL     1      47.570   4.330  15.077  0.00  0.00    +0.000 OA
ATOM     33  C   UNL     1      48.900   5.255  16.806  0.00  0.00    +0.000 A 
ATOM     34  H   UNL     1      46.780   2.744  16.779  0.00  0.00    +0.000 HD
ENDBRANCH  21  24
ENDBRANCH  19  20
ENDBRANCH   6  19
TORSDOF 7
ENDMDL
MODEL 2
REMARK VINA RESULT:    -7.695      1.770      2.507
REMARK INTER + INTRA:         -11.932
REMARK INTER:                 -10.835
REMARK INTRA:                  -1.097
REMARK UNBOUND:                -1.088
REMARK  Name = 
REMARK  8 active torsions:
REMARK  status: ('A' for Active; 'I' for Inactive)
REMARK    1  A    between atoms: C_1  and  O_2
REMARK    2  A    between atoms: O_2  and  C_3
REMARK    3  A    between atoms: C_5  and  C_6
REMARK    4  A    between atoms: C_6  and  N_7
REMARK    5  A    between atoms: C_8  and  C_10
REMARK    6  A    between atoms: C_17  and  C_18
REMARK    7  A    between atoms: C_18  and  N_19
REMARK    8  A    between atoms: C_20  and  C_22
REMARK                            x       y       z     vdW  Elec       q    Type
REMARK                         _______ _______ _______ _____ _____    ______ ____
ROOT
ATOM      1  C   UNL     1      46.885   5.515  13.139  0.00  0.00    +0.000 A 
ATOM      2  C   UNL     1      45.943   4.784  12.400  0.00  0.00    +0.000 A 
ATOM      3  C   UNL     1      45.072   5.420  11.500  0.00  0.00    +0.000 A 
ATOM      4  C   UNL     1      45.175   6.805  11.323  0.00  0.00    +0.000 A 
ATOM      5  C   UNL     1      46.108   7.539  12.055  0.00  0.00    +0.000 A 
ATOM      6  C   UNL     1      46.958   6.910  12.981  0.00  0.00    +0.000 A 
ENDROOT
BRANCH   1   8
ATOM      7  C   UNL     1      47.153   4.166  15.081  0.00  0.00    +0.000 C 
ATOM      8  O   UNL     1      47.739   4.956  14.052  0.00  0.00    +0.000 OA
ENDBRANCH   1   8
BRANCH   3   9
ATOM      9  C   UNL     1      44.081   4.615  10.701  0.00  0.00    +0.000 C 
BRANCH   9  10
ATOM     10  N   UNL     1      44.758   3.623   9.904  0.00  0.00    +0.000 N 
ATOM     11  C   UNL     1      45.476   3.943   8.775  0.00  0.00    +0.000 C 
ATOM     12  O   UNL     1      45.555   5.104   8.374  0.00  0.00    +0.000 OA
ATOM     13  H   UNL     1      44.775   2.664  10.224  0.00  0.00    +0.000 HD
BRANCH  11  14
ATOM     14  C   UNL     1      46.120   2.824   8.095  0.00  0.00    +0.000 A 
ATOM     15  C   UNL     1      45.996   1.482   8.390  0.00  0.00    +0.000 A 
ATOM     16  C   UNL     1      46.769   0.652   7.526  0.00  0.00    +0.000 A 
ATOM     17  C   UNL     1      47.462   1.389   6.592  0.00  0.00    +0.000 A 
ATOM     18  S   UNL     1      47.176   3.065   6.759  0.00  0.00    +0.000 S 
ENDBRANCH  11  14
ENDBRANCH   9  10
ENDBRANCH   3   9
BRANCH   6  19
ATOM     19  C   UNL     1      47.968   7.758  13.717  0.00  0.00    +0.000 C 
BRANCH  19  20
ATOM     20  N   UNL     1      47.906   7.498  15.138  0.00  0.00    +0.000 N 
ATOM     21  C   UNL     1      49.023   7.396  15.921  0.00  0.00    +0.000 C 
ATOM     22  O   UNL     1      50.158   7.367  15.461  0.00  0.00    +0.000 OA
ATOM     23  H   UNL     1      47.006   7.689  15.569  0.00  0.00    +0.000 HD
BRANCH  21  24
ATOM     24  C   UNL     1      48.788   7.312  17.371  0.00  0.00    +0.000 A 
ATOM     25  C   UNL     1      48.267   8.400  18.056  0.00  0.00    +0.000 A 
ATOM     26  S   UNL     1      47.980   8.088  19.712  0.00  0.00    +0.000 S 
ATOM     27  C   UNL     1      48.466   6.465  19.545  0.00  0.00    +0.000 A 
ATOM     28  N   UNL     1      48.340   5.583  20.571  0.00  0.00    +0.000 NA
ATOM     29  C   UNL     1      48.708   4.378  20.286  0.00  0.00    +0.000 A 
ATOM     30  N   UNL     1      49.241   3.987  19.084  0.00  0.00    +0.000 N 
ATOM     31  C   UNL     1      49.465   4.861  18.049  0.00  0.00    +0.000 A 
ATOM     32  O   UNL     1      50.086   4.518  17.050  0.00  0.00    +0.000 OA
ATOM     33  C   UNL     1      48.957   6.202  18.277  0.00  0.00    +0.000 A 
ATOM     34  H   UNL     1      49.574   3.045  18.949  0.00  0.00    +0.000 HD
ENDBRANCH  21  24
ENDBRANCH  19  20
ENDBRANCH   6  19
TORSDOF 7
ENDMDL
MODEL 3
REMARK VINA RESULT:    -7.247      4.665      9.194
REMARK INTER + INTRA:         -11.301
REMARK INTER:                 -10.128
REMARK INTRA:                  -1.173
REMARK UNBOUND:                -1.088
REMARK  Name = 
REMARK  8 active torsions:
REMARK  status: ('A' for Active; 'I' for Inactive)
REMARK    1  A    between atoms: C_1  and  O_2
REMARK    2  A    between atoms: O_2  and  C_3
REMARK    3  A    between atoms: C_5  and  C_6
REMARK    4  A    between atoms: C_6  and  N_7
REMARK    5  A    between atoms: C_8  and  C_10
REMARK    6  A    between atoms: C_17  and  C_18
REMARK    7  A    between atoms: C_18  and  N_19
REMARK    8  A    between atoms: C_20  and  C_22
REMARK                            x       y       z     vdW  Elec       q    Type
REMARK                         _______ _______ _______ _____ _____    ______ ____
ROOT
ATOM      1  C   UNL     1      49.320   4.381  17.699  0.00  0.00    +0.000 A 
ATOM      2  C   UNL     1      50.696   4.258  17.939  0.00  0.00    +0.000 A 
ATOM      3  C   UNL     1      51.379   3.061  17.667  0.00  0.00    +0.000 A 
ATOM      4  C   UNL     1      50.668   1.988  17.117  0.00  0.00    +0.000 A 
ATOM      5  C   UNL     1      49.300   2.101  16.875  0.00  0.00    +0.000 A 
ATOM      6  C   UNL     1      48.607   3.286  17.179  0.00  0.00    +0.000 A 
ENDROOT
BRANCH   1   8
ATOM      7  C   UNL     1      48.463   5.875  19.341  0.00  0.00    +0.000 C 
ATOM      8  O   UNL     1      48.596   5.511  17.971  0.00  0.00    +0.000 OA
ENDBRANCH   1   8
BRANCH   3   9
ATOM      9  C   UNL     1      52.861   2.955  17.914  0.00  0.00    +0.000 C 
BRANCH   9  10
ATOM     10  N   UNL     1      53.290   1.581  17.843  0.00  0.00    +0.000 N 
ATOM     11  C   UNL     1      54.435   1.196  17.185  0.00  0.00    +0.000 C 
ATOM     12  O   UNL     1      55.142   2.013  16.597  0.00  0.00    +0.000 OA
ATOM     13  H   UNL     1      52.778   0.879  18.360  0.00  0.00    +0.000 HD
BRANCH  11  14
ATOM     14  C   UNL     1      54.740  -0.231  17.227  0.00  0.00    +0.000 A 
ATOM     15  C   UNL     1      55.169  -1.027  16.185  0.00  0.00    +0.000 A 
ATOM     16  C   UNL     1      55.371  -2.384  16.571  0.00  0.00    +0.000 A 
ATOM     17  C   UNL     1      55.089  -2.584  17.905  0.00  0.00    +0.000 A 
ATOM     18  S   UNL     1      54.590  -1.145  18.677  0.00  0.00    +0.000 S 
ENDBRANCH  11  14
ENDBRANCH   9  10
ENDBRANCH   3   9
BRANCH   6  19
ATOM     19  C   UNL     1      47.132   3.355  16.863  0.00  0.00    +0.000 C 
BRANCH  19  20
ATOM     20  N   UNL     1      46.872   4.393  15.891  0.00  0.00    +0.000 N 
ATOM     21  C   UNL     1      46.867   4.161  14.542  0.00  0.00    +0.000 C 
ATOM     22  O   UNL     1      47.228   3.099  14.049  0.00  0.00    +0.000 OA
ATOM     23  H   UNL     1      46.407   5.218  16.259  0.00  0.00    +0.000 HD
BRANCH  21  24
ATOM     24  C   UNL     1      46.406   5.274  13.698  0.00  0.00    +0.000 A 
ATOM     25  C   UNL     1      47.252   6.339  13.428  0.00  0.00    +0.000 A 
ATOM     26  S   UNL     1      46.577   7.491  12.361  0.00  0.00    +0.000 S 
ATOM     27  C   UNL     1      45.166   6.559  12.163  0.00  0.00    +0.000 A 
ATOM     28  N   UNL     1      44.210   6.911  11.263  0.00  0.00    +0.000 NA
ATOM     29  C   UNL     1      43.218   6.088  11.192  0.00  0.00    +0.000 A 
ATOM     30  N   UNL     1      43.068   4.973  11.976  0.00  0.00    +0.000 N 
ATOM     31  C   UNL     1      43.965   4.626  12.956  0.00  0.00    +0.000 A 
ATOM     32  O   UNL     1      43.728   3.719  13.745  0.00  0.00    +0.000 OA
ATOM     33  C   UNL     1      45.159   5.451  12.994  0.00  0.00    +0.000 A 
ATOM     34  H   UNL     1      42.234   4.409  11.919  0.00  0.00    +0.000 HD
ENDBRANCH  21  24
ENDBRANCH  19  20
ENDBRANCH   6  19
TORSDOF 7
ENDMDL
MODEL 4
REMARK VINA RESULT:    -7.086      2.233      3.370
REMARK INTER + INTRA:         -11.073
REMARK INTER:                  -9.872
REMARK INTRA:                  -1.201
REMARK UNBOUND:                -1.088
REMARK  Name = 
REMARK  8 active torsions:
REMARK  status: ('A' for Active; 'I' for Inactive)
REMARK    1  A    between atoms: C_1  and  O_2
REMARK    2  A    between atoms: O_2  and  C_3
REMARK    3  A    between atoms: C_5  and  C_6
REMARK    4  A    between atoms: C_6  and  N_7
REMARK    5  A    between atoms: C_8  and  C_10
REMARK    6  A    between atoms: C_17  and  C_18
REMARK    7  A    between atoms: C_18  and  N_19
REMARK    8  A    between atoms: C_20  and  C_22
REMARK                            x       y       z     vdW  Elec       q    Type
REMARK                         _______ _______ _______ _____ _____    ______ ____
ROOT
ATOM      1  C   UNL     1      46.845   5.412  13.193  0.00  0.00    +0.000 A 
ATOM      2  C   UNL     1      45.887   4.693  12.463  0.00  0.00    +0.000 A 
ATOM      3  C   UNL     1      45.006   5.341  11.582  0.00  0.00    +0.000 A 
ATOM      4  C   UNL     1      45.114   6.727  11.415  0.00  0.00    +0.000 A 
ATOM      5  C   UNL     1      46.063   7.449  12.138  0.00  0.00    +0.000 A 
ATOM      6  C   UNL     1      46.924   6.808  13.045  0.00  0.00    +0.000 A 
ENDROOT
BRANCH   1   8
ATOM      7  C   UNL     1      47.144   3.981  15.070  0.00  0.00    +0.000 C 
ATOM      8  O   UNL     1      47.710   4.840  14.087  0.00  0.00    +0.000 OA
ENDBRANCH   1   8
BRANCH   3   9
ATOM      9  C   UNL     1      43.997   4.549  10.793  0.00  0.00    +0.000 C 
BRANCH   9  10
ATOM     10  N   UNL     1      44.652   3.533  10.007  0.00  0.00    +0.000 N 
ATOM     11  C   UNL     1      45.345   3.821   8.853  0.00  0.00    +0.000 C 
ATOM     12  O   UNL     1      45.418   4.970   8.420  0.00  0.00    +0.000 OA
ATOM     13  H   UNL     1      44.674   2.583  10.352  0.00  0.00    +0.000 HD
BRANCH  11  14
ATOM     14  C   UNL     1      45.969   2.682   8.189  0.00  0.00    +0.000 A 
ATOM     15  C   UNL     1      45.753   1.343   8.441  0.00  0.00    +0.000 A 
ATOM     16  C   UNL     1      46.533   0.489   7.608  0.00  0.00    +0.000 A 
ATOM     17  C   UNL     1      47.326   1.206   6.739  0.00  0.00    +0.000 A 
ATOM     18  S   UNL     1      47.123   2.891   6.929  0.00  0.00    +0.000 S 
ENDBRANCH  11  14
ENDBRANCH   9  10
ENDBRANCH   3   9
BRANCH   6  19
ATOM     19  C   UNL     1      47.950   7.644  13.772  0.00  0.00    +0.000 C 
BRANCH  19  20
ATOM     20  N   UNL     1      47.923   7.357  15.189  0.00  0.00    +0.000 N 
ATOM     21  C   UNL     1      49.059   7.194  15.934  0.00  0.00    +0.000 C 
ATOM     22  O   UNL     1      50.176   7.128  15.437  0.00  0.00    +0.000 OA
ATOM     23  H   UNL     1      47.046   7.577  15.653  0.00  0.00    +0.000 HD
BRANCH  21  24
ATOM     24  C   UNL     1      48.866   7.091  17.389  0.00  0.00    +0.000 A 
ATOM     25  C   UNL     1      49.144   5.901  18.046  0.00  0.00    +0.000 A 
ATOM     26  S   UNL     1      48.946   5.998  19.740  0.00  0.00    +0.000 S 
ATOM     27  C   UNL     1      48.563   7.654  19.655  0.00  0.00    +0.000 A 
ATOM     28  N   UNL     1      48.405   8.399  20.781  0.00  0.00    +0.000 NA
ATOM     29  C   UNL     1      48.160   9.648  20.563  0.00  0.00    +0.000 A 
ATOM     30  N   UNL     1      48.006  10.210  19.321  0.00  0.00    +0.000 N 
ATOM     31  C   UNL     1      48.073   9.480  18.160  0.00  0.00    +0.000 A 
ATOM     32  O   UNL     1      47.775   9.973  17.079  0.00  0.00    +0.000 OA
ATOM     33  C   UNL     1      48.466   8.094  18.346  0.00  0.00    +0.000 A 
ATOM     34  H   UNL     1      47.746  11.179  19.220  0.00  0.00    +0.000 HD
ENDBRANCH  21  24
ENDBRANCH  19  20
ENDBRANCH   6  19
TORSDOF 7
ENDMDL
MODEL 5
REMARK VINA RESULT:    -7.019      2.955      4.387
REMARK INTER + INTRA:         -10.979
REMARK INTER:                  -9.941
REMARK INTRA:                  -1.038
REMARK UNBOUND:                -1.088
REMARK  Name = 
REMARK  8 active torsions:
REMARK  status: ('A' for Active; 'I' for Inactive)
REMARK    1  A    between atoms: C_1  and  O_2
REMARK    2  A    between atoms: O_2  and  C_3
REMARK    3  A    between atoms: C_5  and  C_6
REMARK    4  A    between atoms: C_6  and  N_7
REMARK    5  A    between atoms: C_8  and  C_10
REMARK    6  A    between atoms: C_17  and  C_18
REMARK    7  A    between atoms: C_18  and  N_19
REMARK    8  A    between atoms: C_20  and  C_22
REMARK                            x       y       z     vdW  Elec       q    Type
REMARK                         _______ _______ _______ _____ _____    ______ ____
ROOT
ATOM      1  C   UNL     1      46.102   5.672  13.107  0.00  0.00    +0.000 A 
ATOM      2  C   UNL     1      45.475   4.531  12.586  0.00  0.00    +0.000 A 
ATOM      3  C   UNL     1      44.396   4.637  11.694  0.00  0.00    +0.000 A 
ATOM      4  C   UNL     1      43.965   5.911  11.302  0.00  0.00    +0.000 A 
ATOM      5  C   UNL     1      44.582   7.050  11.816  0.00  0.00    +0.000 A 
ATOM      6  C   UNL     1      45.641   6.947  12.735  0.00  0.00    +0.000 A 
ENDROOT
BRANCH   1   8
ATOM      7  C   UNL     1      47.153   4.545  14.920  0.00  0.00    +0.000 C 
ATOM      8  O   UNL     1      47.139   5.632  14.001  0.00  0.00    +0.000 OA
ENDBRANCH   1   8
BRANCH   3   9
ATOM      9  C   UNL     1      43.748   3.401  11.130  0.00  0.00    +0.000 C 
BRANCH   9  10
ATOM     10  N   UNL     1      44.634   2.741  10.204  0.00  0.00    +0.000 N 
ATOM     11  C   UNL     1      44.863   3.216   8.933  0.00  0.00    +0.000 C 
ATOM     12  O   UNL     1      44.297   4.225   8.514  0.00  0.00    +0.000 OA
ATOM     13  H   UNL     1      45.170   1.944  10.519  0.00  0.00    +0.000 HD
BRANCH  11  14
ATOM     14  C   UNL     1      45.805   2.444   8.129  0.00  0.00    +0.000 A 
ATOM     15  C   UNL     1      46.077   1.095   8.222  0.00  0.00    +0.000 A 
ATOM     16  C   UNL     1      47.058   0.661   7.283  0.00  0.00    +0.000 A 
ATOM     17  C   UNL     1      47.509   1.698   6.497  0.00  0.00    +0.000 A 
ATOM     18  S   UNL     1      46.749   3.176   6.890  0.00  0.00    +0.000 S 
ENDBRANCH  11  14
ENDBRANCH   9  10
ENDBRANCH   3   9
BRANCH   6  19
ATOM     19  C   UNL     1      46.288   8.220  13.229  0.00  0.00    +0.000 C 
BRANCH  19  20
ATOM     20  N   UNL     1      47.627   8.344  12.699  0.00  0.00    +0.000 N 
ATOM     21  C   UNL     1      48.521   9.273  13.157  0.00  0.00    +0.000 C 
ATOM     22  O   UNL     1      48.213  10.164  13.939  0.00  0.00    +0.000 OA
ATOM     23  H   UNL     1      47.964   7.531  12.191  0.00  0.00    +0.000 HD
BRANCH  21  24
ATOM     24  C   UNL     1      49.895   9.152  12.646  0.00  0.00    +0.000 A 
ATOM     25  C   UNL     1      50.242   9.733  11.435  0.00  0.00    +0.000 A 
ATOM     26  S   UNL     1      51.898   9.564  11.048  0.00  0.00    +0.000 S 
ATOM     27  C   UNL     1      52.217   8.780  12.524  0.00  0.00    +0.000 A 
ATOM     28  N   UNL     1      53.487   8.473  12.898  0.00  0.00    +0.000 NA
ATOM     29  C   UNL     1      53.582   7.921  14.062  0.00  0.00    +0.000 A 
ATOM     30  N   UNL     1      52.516   7.599  14.863  0.00  0.00    +0.000 N 
ATOM     31  C   UNL     1      51.212   7.813  14.490  0.00  0.00    +0.000 A 
ATOM     32  O   UNL     1      50.280   7.373  15.152  0.00  0.00    +0.000 OA
ATOM     33  C   UNL     1      51.058   8.542  13.243  0.00  0.00    +0.000 A 
ATOM     34  H   UNL     1      52.653   7.104  15.731  0.00  0.00    +0.000 HD
ENDBRANCH  21  24
ENDBRANCH  19  20
ENDBRANCH   6  19
TORSDOF 7
ENDMDL
MODEL 6
REMARK VINA RESULT:    -6.952      1.937      2.390
REMARK INTER + INTRA:         -10.885
REMARK INTER:                  -9.881
REMARK INTRA:                  -1.004
REMARK UNBOUND:                -1.088
REMARK  Name = 
REMARK  8 active torsions:
REMARK  status: ('A' for Active; 'I' for Inactive)
REMARK    1  A    between atoms: C_1  and  O_2
REMARK    2  A    between atoms: O_2  and  C_3
REMARK    3  A    between atoms: C_5  and  C_6
REMARK    4  A    between atoms: C_6  and  N_7
REMARK    5  A    between atoms: C_8  and  C_10
REMARK    6  A    between atoms: C_17  and  C_18
REMARK    7  A    between atoms: C_18  and  N_19
REMARK    8  A    between atoms: C_20  and  C_22
REMARK                            x       y       z     vdW  Elec       q    Type
REMARK                         _______ _______ _______ _____ _____    ______ ____
ROOT
ATOM      1  C   UNL     1      46.360   7.729  12.139  0.00  0.00    +0.000 A 
ATOM      2  C   UNL     1      45.566   6.921  11.313  0.00  0.00    +0.000 A 
ATOM      3  C   UNL     1      45.440   5.542  11.547  0.00  0.00    +0.000 A 
ATOM      4  C   UNL     1      46.101   4.980  12.647  0.00  0.00    +0.000 A 
ATOM      5  C   UNL     1      46.893   5.777  13.472  0.00  0.00    +0.000 A 
ATOM      6  C   UNL     1      47.048   7.151  13.220  0.00  0.00    +0.000 A 
ENDROOT
BRANCH   1   8
ATOM      7  C   UNL     1      45.404   9.908  12.109  0.00  0.00    +0.000 C 
ATOM      8  O   UNL     1      46.544   9.072  11.943  0.00  0.00    +0.000 OA
ENDBRANCH   1   8
BRANCH   3   9
ATOM      9  C   UNL     1      44.567   4.694  10.661  0.00  0.00    +0.000 C 
BRANCH   9  10
ATOM     10  N   UNL     1      45.304   4.238   9.509  0.00  0.00    +0.000 N 
ATOM     11  C   UNL     1      45.159   2.972   8.991  0.00  0.00    +0.000 C 
ATOM     12  O   UNL     1      44.401   2.150   9.508  0.00  0.00    +0.000 OA
ATOM     13  H   UNL     1      45.892   4.892   9.011  0.00  0.00    +0.000 HD
BRANCH  11  14
ATOM     14  C   UNL     1      45.960   2.676   7.809  0.00  0.00    +0.000 A 
ATOM     15  C   UNL     1      46.115   3.459   6.683  0.00  0.00    +0.000 A 
ATOM     16  C   UNL     1      46.970   2.867   5.709  0.00  0.00    +0.000 A 
ATOM     17  C   UNL     1      47.446   1.642   6.122  0.00  0.00    +0.000 A 
ATOM     18  S   UNL     1      46.866   1.219   7.672  0.00  0.00    +0.000 S 
ENDBRANCH  11  14
ENDBRANCH   9  10
ENDBRANCH   3   9
BRANCH   6  19
ATOM     19  C   UNL     1      47.895   7.963  14.171  0.00  0.00    +0.000 C 
BRANCH  19  20
ATOM     20  N   UNL     1      48.039   7.274  15.433  0.00  0.00    +0.000 N 
ATOM     21  C   UNL     1      49.246   6.827  15.899  0.00  0.00    +0.000 C 
ATOM     22  O   UNL     1      50.266   6.841  15.221  0.00  0.00    +0.000 OA
ATOM     23  H   UNL     1      47.267   7.400  16.081  0.00  0.00    +0.000 HD
BRANCH  21  24
ATOM     24  C   UNL     1      49.254   6.311  17.276  0.00  0.00    +0.000 A 
ATOM     25  C   UNL     1      49.784   5.058  17.547  0.00  0.00    +0.000 A 
ATOM     26  S   UNL     1      49.788   4.666  19.211  0.00  0.00    +0.000 S 
ATOM     27  C   UNL     1      49.157   6.191  19.626  0.00  0.00    +0.000 A 
ATOM     28  N   UNL     1      49.033   6.573  20.925  0.00  0.00    +0.000 NA
ATOM     29  C   UNL     1      48.581   7.772  21.087  0.00  0.00    +0.000 A 
ATOM     30  N   UNL     1      48.193   8.605  20.070  0.00  0.00    +0.000 N 
ATOM     31  C   UNL     1      48.220   8.232  18.749  0.00  0.00    +0.000 A 
ATOM     32  O   UNL     1      47.720   8.933  17.878  0.00  0.00    +0.000 OA
ATOM     33  C   UNL     1      48.834   6.938  18.505  0.00  0.00    +0.000 A 
ATOM     34  H   UNL     1      47.782   9.505  20.267  0.00  0.00    +0.000 HD
ENDBRANCH  21  24
ENDBRANCH  19  20
ENDBRANCH   6  19
TORSDOF 7
ENDMDL
MODEL 7
REMARK VINA RESULT:    -6.899      3.203      4.501
REMARK INTER + INTRA:         -10.810
REMARK INTER:                  -9.280
REMARK INTRA:                  -1.530
REMARK UNBOUND:                -1.088
REMARK  Name = 
REMARK  8 active torsions:
REMARK  status: ('A' for Active; 'I' for Inactive)
REMARK    1  A    between atoms: C_1  and  O_2
REMARK    2  A    between atoms: O_2  and  C_3
REMARK    3  A    between atoms: C_5  and  C_6
REMARK    4  A    between atoms: C_6  and  N_7
REMARK    5  A    between atoms: C_8  and  C_10
REMARK    6  A    between atoms: C_17  and  C_18
REMARK    7  A    between atoms: C_18  and  N_19
REMARK    8  A    between atoms: C_20  and  C_22
REMARK                            x       y       z     vdW  Elec       q    Type
REMARK                         _______ _______ _______ _____ _____    ______ ____
ROOT
ATOM      1  C   UNL     1      46.565   6.519  12.903  0.00  0.00    +0.000 A 
ATOM      2  C   UNL     1      45.700   5.730  12.131  0.00  0.00    +0.000 A 
ATOM      3  C   UNL     1      45.534   4.360  12.394  0.00  0.00    +0.000 A 
ATOM      4  C   UNL     1      46.229   3.789  13.468  0.00  0.00    +0.000 A 
ATOM      5  C   UNL     1      47.092   4.567  14.239  0.00  0.00    +0.000 A 
ATOM      6  C   UNL     1      47.284   5.930  13.957  0.00  0.00    +0.000 A 
ENDROOT
BRANCH   1   8
ATOM      7  C   UNL     1      45.687   8.731  12.877  0.00  0.00    +0.000 C 
ATOM      8  O   UNL     1      46.788   7.851  12.677  0.00  0.00    +0.000 OA
ENDBRANCH   1   8
BRANCH   3   9
ATOM      9  C   UNL     1      44.586   3.534  11.567  0.00  0.00    +0.000 C 
BRANCH   9  10
ATOM     10  N   UNL     1      45.282   2.913  10.467  0.00  0.00    +0.000 N 
ATOM     11  C   UNL     1      45.112   3.315   9.162  0.00  0.00    +0.000 C 
ATOM     12  O   UNL     1      44.331   4.220   8.866  0.00  0.00    +0.000 OA
ATOM     13  H   UNL     1      45.979   2.208  10.661  0.00  0.00    +0.000 HD
BRANCH  11  14
ATOM     14  C   UNL     1      45.907   2.599   8.170  0.00  0.00    +0.000 A 
ATOM     15  C   UNL     1      46.234   1.258   8.167  0.00  0.00    +0.000 A 
ATOM     16  C   UNL     1      47.031   0.884   7.047  0.00  0.00    +0.000 A 
ATOM     17  C   UNL     1      47.290   1.957   6.222  0.00  0.00    +0.000 A 
ATOM     18  S   UNL     1      46.573   3.395   6.798  0.00  0.00    +0.000 S 
ENDBRANCH  11  14
ENDBRANCH   9  10
ENDBRANCH   3   9
BRANCH   6  19
ATOM     19  C   UNL     1      48.208   6.724  14.851  0.00  0.00    +0.000 C 
BRANCH  19  20
ATOM     20  N   UNL     1      49.373   7.158  14.115  0.00  0.00    +0.000 N 
ATOM     21  C   UNL     1      49.900   8.415  14.236  0.00  0.00    +0.000 C 
ATOM     22  O   UNL     1      49.343   9.312  14.857  0.00  0.00    +0.000 OA
ATOM     23  H   UNL     1      49.947   6.408  13.740  0.00  0.00    +0.000 HD
BRANCH  21  24
ATOM     24  C   UNL     1      51.188   8.642  13.563  0.00  0.00    +0.000 A 
ATOM     25  C   UNL     1      52.246   9.210  14.258  0.00  0.00    +0.000 A 
ATOM     26  S   UNL     1      53.685   9.313  13.340  0.00  0.00    +0.000 S 
ATOM     27  C   UNL     1      52.960   8.528  12.016  0.00  0.00    +0.000 A 
ATOM     28  N   UNL     1      53.686   8.174  10.923  0.00  0.00    +0.000 NA
ATOM     29  C   UNL     1      53.013   7.547  10.016  0.00  0.00    +0.000 A 
ATOM     30  N   UNL     1      51.668   7.288  10.080  0.00  0.00    +0.000 N 
ATOM     31  C   UNL     1      50.879   7.701  11.125  0.00  0.00    +0.000 A 
ATOM     32  O   UNL     1      49.659   7.597  11.081  0.00  0.00    +0.000 OA
ATOM     33  C   UNL     1      51.609   8.304  12.225  0.00  0.00    +0.000 A 
ATOM     34  H   UNL     1      51.187   6.856   9.305  0.00  0.00    +0.000 HD
ENDBRANCH  21  24
ENDBRANCH  19  20
ENDBRANCH   6  19
TORSDOF 7
ENDMDL
MODEL 8
REMARK VINA RESULT:    -6.815      2.020      2.382
REMARK INTER + INTRA:         -10.692
REMARK INTER:                  -9.569
REMARK INTRA:                  -1.123
REMARK UNBOUND:                -1.088
REMARK  Name = 
REMARK  8 active torsions:
REMARK  status: ('A' for Active; 'I' for Inactive)
REMARK    1  A    between atoms: C_1  and  O_2
REMARK    2  A    between atoms: O_2  and  C_3
REMARK    3  A    between atoms: C_5  and  C_6
REMARK    4  A    between atoms: C_6  and  N_7
REMARK    5  A    between atoms: C_8  and  C_10
REMARK    6  A    between atoms: C_17  and  C_18
REMARK    7  A    between atoms: C_18  and  N_19
REMARK    8  A    between atoms: C_20  and  C_22
REMARK                            x       y       z     vdW  Elec       q    Type
REMARK                         _______ _______ _______ _____ _____    ______ ____
ROOT
ATOM      1  C   UNL     1      46.686   6.790  12.557  0.00  0.00    +0.000 A 
ATOM      2  C   UNL     1      45.871   5.814  11.965  0.00  0.00    +0.000 A 
ATOM      3  C   UNL     1      45.726   4.540  12.540  0.00  0.00    +0.000 A 
ATOM      4  C   UNL     1      46.388   4.261  13.741  0.00  0.00    +0.000 A 
ATOM      5  C   UNL     1      47.201   5.226  14.335  0.00  0.00    +0.000 A 
ATOM      6  C   UNL     1      47.375   6.489  13.745  0.00  0.00    +0.000 A 
ENDROOT
BRANCH   1   8
ATOM      7  C   UNL     1      45.825   8.973  12.163  0.00  0.00    +0.000 C 
ATOM      8  O   UNL     1      46.889   8.037  12.029  0.00  0.00    +0.000 OA
ENDBRANCH   1   8
BRANCH   3   9
ATOM      9  C   UNL     1      44.831   3.513  11.899  0.00  0.00    +0.000 C 
BRANCH   9  10
ATOM     10  N   UNL     1      45.472   2.929  10.747  0.00  0.00    +0.000 N 
ATOM     11  C   UNL     1      45.090   3.226   9.459  0.00  0.00    +0.000 C 
ATOM     12  O   UNL     1      44.157   3.994   9.227  0.00  0.00    +0.000 OA
ATOM     13  H   UNL     1      46.283   2.340  10.881  0.00  0.00    +0.000 HD
BRANCH  11  14
ATOM     14  C   UNL     1      45.855   2.568   8.405  0.00  0.00    +0.000 A 
ATOM     15  C   UNL     1      46.078   1.215   8.251  0.00  0.00    +0.000 A 
ATOM     16  C   UNL     1      46.875   0.911   7.109  0.00  0.00    +0.000 A 
ATOM     17  C   UNL     1      47.239   2.048   6.421  0.00  0.00    +0.000 A 
ATOM     18  S   UNL     1      46.619   3.463   7.149  0.00  0.00    +0.000 S 
ENDBRANCH  11  14
ENDBRANCH   9  10
ENDBRANCH   3   9
BRANCH   6  19
ATOM     19  C   UNL     1      48.243   7.500  14.457  0.00  0.00    +0.000 C 
BRANCH  19  20
ATOM     20  N   UNL     1      49.480   6.888  14.888  0.00  0.00    +0.000 N 
ATOM     21  C   UNL     1      50.445   7.573  15.575  0.00  0.00    +0.000 C 
ATOM     22  O   UNL     1      50.406   8.785  15.745  0.00  0.00    +0.000 OA
ATOM     23  H   UNL     1      49.466   5.872  14.921  0.00  0.00    +0.000 HD
BRANCH  21  24
ATOM     24  C   UNL     1      51.557   6.767  16.101  0.00  0.00    +0.000 A 
ATOM     25  C   UNL     1      52.868   7.113  15.807  0.00  0.00    +0.000 A 
ATOM     26  S   UNL     1      54.024   6.115  16.575  0.00  0.00    +0.000 S 
ATOM     27  C   UNL     1      52.809   5.243  17.388  0.00  0.00    +0.000 A 
ATOM     28  N   UNL     1      53.119   4.310  18.326  0.00  0.00    +0.000 NA
ATOM     29  C   UNL     1      52.096   3.760  18.890  0.00  0.00    +0.000 A 
ATOM     30  N   UNL     1      50.790   4.021  18.564  0.00  0.00    +0.000 N 
ATOM     31  C   UNL     1      50.431   4.892  17.565  0.00  0.00    +0.000 A 
ATOM     32  O   UNL     1      49.269   4.985  17.188  0.00  0.00    +0.000 OA
ATOM     33  C   UNL     1      51.541   5.625  16.983  0.00  0.00    +0.000 A 
ATOM     34  H   UNL     1      50.037   3.505  18.993  0.00  0.00    +0.000 HD
ENDBRANCH  21  24
ENDBRANCH  19  20
ENDBRANCH   6  19
TORSDOF 7
ENDMDL
MODEL 9
REMARK VINA RESULT:    -6.667      3.724      9.549
REMARK INTER + INTRA:         -10.483
REMARK INTER:                  -9.254
REMARK INTRA:                  -1.229
REMARK UNBOUND:                -1.088
REMARK  Name = 
REMARK  8 active torsions:
REMARK  status: ('A' for Active; 'I' for Inactive)
REMARK    1  A    between atoms: C_1  and  O_2
REMARK    2  A    between atoms: O_2  and  C_3
REMARK    3  A    between atoms: C_5  and  C_6
REMARK    4  A    between atoms: C_6  and  N_7
REMARK    5  A    between atoms: C_8  and  C_10
REMARK    6  A    between atoms: C_17  and  C_18
REMARK    7  A    between atoms: C_18  and  N_19
REMARK    8  A    between atoms: C_20  and  C_22
REMARK                            x       y       z     vdW  Elec       q    Type
REMARK                         _______ _______ _______ _____ _____    ______ ____
ROOT
ATOM      1  C   UNL     1      49.321   4.497  17.593  0.00  0.00    +0.000 A 
ATOM      2  C   UNL     1      50.694   4.448  17.873  0.00  0.00    +0.000 A 
ATOM      3  C   UNL     1      51.431   3.265  17.701  0.00  0.00    +0.000 A 
ATOM      4  C   UNL     1      50.777   2.127  17.213  0.00  0.00    +0.000 A 
ATOM      5  C   UNL     1      49.412   2.167  16.932  0.00  0.00    +0.000 A 
ATOM      6  C   UNL     1      48.666   3.340  17.135  0.00  0.00    +0.000 A 
ENDROOT
BRANCH   1   8
ATOM      7  C   UNL     1      49.015   6.821  17.180  0.00  0.00    +0.000 C 
ATOM      8  O   UNL     1      48.546   5.612  17.768  0.00  0.00    +0.000 OA
ENDBRANCH   1   8
BRANCH   3   9
ATOM      9  C   UNL     1      52.908   3.238  17.989  0.00  0.00    +0.000 C 
BRANCH   9  10
ATOM     10  N   UNL     1      53.375   4.547  18.371  0.00  0.00    +0.000 N 
ATOM     11  C   UNL     1      54.355   5.216  17.674  0.00  0.00    +0.000 C 
ATOM     12  O   UNL     1      54.903   4.711  16.694  0.00  0.00    +0.000 OA
ATOM     13  H   UNL     1      52.916   5.031  19.130  0.00  0.00    +0.000 HD
BRANCH  11  14
ATOM     14  C   UNL     1      54.697   6.542  18.177  0.00  0.00    +0.000 A 
ATOM     15  C   UNL     1      55.098   6.876  19.455  0.00  0.00    +0.000 A 
ATOM     16  C   UNL     1      55.351   8.270  19.609  0.00  0.00    +0.000 A 
ATOM     17  C   UNL     1      55.137   8.963  18.438  0.00  0.00    +0.000 A 
ATOM     18  S   UNL     1      54.638   7.935  17.169  0.00  0.00    +0.000 S 
ENDBRANCH  11  14
ENDBRANCH   9  10
ENDBRANCH   3   9
BRANCH   6  19
ATOM     19  C   UNL     1      47.197   3.326  16.781  0.00  0.00    +0.000 C 
BRANCH  19  20
ATOM     20  N   UNL     1      46.894   4.384  15.845  0.00  0.00    +0.000 N 
ATOM     21  C   UNL     1      46.865   4.189  14.490  0.00  0.00    +0.000 C 
ATOM     22  O   UNL     1      47.239   3.150  13.961  0.00  0.00    +0.000 OA
ATOM     23  H   UNL     1      46.419   5.188  16.246  0.00  0.00    +0.000 HD
BRANCH  21  24
ATOM     24  C   UNL     1      46.362   5.314  13.688  0.00  0.00    +0.000 A 
ATOM     25  C   UNL     1      47.167   6.420  13.456  0.00  0.00    +0.000 A 
ATOM     26  S   UNL     1      46.448   7.583  12.432  0.00  0.00    +0.000 S 
ATOM     27  C   UNL     1      45.072   6.608  12.202  0.00  0.00    +0.000 A 
ATOM     28  N   UNL     1      44.102   6.957  11.316  0.00  0.00    +0.000 NA
ATOM     29  C   UNL     1      43.140   6.101  11.215  0.00  0.00    +0.000 A 
ATOM     30  N   UNL     1      43.034   4.953  11.958  0.00  0.00    +0.000 N 
ATOM     31  C   UNL     1      43.945   4.604  12.924  0.00  0.00    +0.000 A 
ATOM     32  O   UNL     1      43.743   3.661  13.679  0.00  0.00    +0.000 OA
ATOM     33  C   UNL     1      45.108   5.471  12.992  0.00  0.00    +0.000 A 
ATOM     34  H   UNL     1      42.221   4.361  11.881  0.00  0.00    +0.000 HD
ENDBRANCH  21  24
ENDBRANCH  19  20
ENDBRANCH   6  19
TORSDOF 7
ENDMDL
