MODEL 1
REMARK VINA RESULT:    -8.376      0.000      0.000
REMARK INTER + INTRA:         -12.950
REMARK INTER:                 -11.804
REMARK INTRA:                  -1.146
REMARK UNBOUND:                -1.146
REMARK  Name = 
REMARK  8 active torsions:
REMARK  status: ('A' for Active; 'I' for Inactive)
REMARK    1  A    between atoms: C_1  and  O_2
REMARK    2  A    between atoms: O_2  and  C_3
REMARK    3  A    between atoms: C_6  and  C_7
REMARK    4  A    between atoms: C_7  and  N_8
REMARK    5  A    between atoms: C_9  and  C_11
REMARK    6  A    between atoms: C_22  and  C_23
REMARK    7  A    between atoms: C_23  and  N_24
REMARK    8  A    between atoms: C_25  and  C_27
REMARK                            x       y       z     vdW  Elec       q    Type
REMARK                         _______ _______ _______ _____ _____    ______ ____
ROOT
ATOM      1  C   UNL     1      45.330   6.729  11.907  0.00  0.00    +0.000 A 
ATOM      2  C   UNL     1      46.160   7.087  12.974  0.00  0.00    +0.000 A 
ATOM      3  C   UNL     1      46.739   6.111  13.786  0.00  0.00    +0.000 A 
ATOM      4  C   UNL     1      46.474   4.758  13.566  0.00  0.00    +0.000 A 
ATOM      5  C   UNL     1      45.638   4.397  12.501  0.00  0.00    +0.000 A 
ATOM      6  C   UNL     1      45.067   5.370  11.658  0.00  0.00    +0.000 A 
ENDROOT
BRANCH   1   8
ATOM      7  C   UNL     1      44.785   8.998  11.495  0.00  0.00    +0.000 C 
ATOM      8  O   UNL     1      44.725   7.638  11.075  0.00  0.00    +0.000 OA
ENDBRANCH   1   8
BRANCH   4   9
ATOM      9  C   UNL     1      47.110   3.711  14.438  0.00  0.00    +0.000 C 
BRANCH   9  10
ATOM     10  N   UNL     1      47.707   4.299  15.611  0.00  0.00    +0.000 N 
ATOM     11  C   UNL     1      47.291   4.003  16.883  0.00  0.00    +0.000 C 
ATOM     12  O   UNL     1      46.374   3.217  17.109  0.00  0.00    +0.000 OA
ATOM     13  H   UNL     1      48.313   5.097  15.457  0.00  0.00    +0.000 HD
BRANCH  11  14
ATOM     14  C   UNL     1      48.055   4.616  17.979  0.00  0.00    +0.000 A 
ATOM     15  C   UNL     1      47.438   5.551  18.800  0.00  0.00    +0.000 A 
ATOM     16  S   UNL     1      48.442   6.132  20.050  0.00  0.00    +0.000 S 
ATOM     17  C   UNL     1      49.751   5.191  19.511  0.00  0.00    +0.000 A 
ATOM     18  N   UNL     1      50.955   5.243  20.142  0.00  0.00    +0.000 NA
ATOM     19  C   UNL     1      51.870   4.508  19.608  0.00  0.00    +0.000 A 
ATOM     20  N   UNL     1      51.689   3.716  18.504  0.00  0.00    +0.000 N 
ATOM     21  C   UNL     1      50.476   3.584  17.870  0.00  0.00    +0.000 A 
ATOM     22  O   UNL     1      50.323   2.791  16.947  0.00  0.00    +0.000 OA
ATOM     23  C   UNL     1      49.421   4.424  18.407  0.00  0.00    +0.000 A 
ATOM     24  H   UNL     1      52.441   3.143  18.149  0.00  0.00    +0.000 HD
ENDBRANCH  11  14
ENDBRANCH   9  10
ENDBRANCH   4   9
BRANCH   6  25
ATOM     25  C   UNL     1      44.206   4.916  10.506  0.00  0.00    +0.000 C 
BRANCH  25  26
ATOM     26  N   UNL     1      44.981   4.354   9.427  0.00  0.00    +0.000 N 
ATOM     27  C   UNL     1      44.989   3.014   9.116  0.00  0.00    +0.000 C 
ATOM     28  O   UNL     1      44.299   2.187   9.709  0.00  0.00    +0.000 OA
ATOM     29  H   UNL     1      45.514   4.978   8.838  0.00  0.00    +0.000 HD
BRANCH  27  30
ATOM     30  C   UNL     1      45.900   2.668   8.042  0.00  0.00    +0.000 A 
ATOM     31  C   UNL     1      46.255   3.349   6.892  0.00  0.00    +0.000 A 
ATOM     32  C   UNL     1      47.162   2.521   6.191  0.00  0.00    +0.000 A 
ATOM     33  C   UNL     1      47.307   1.382   6.948  0.00  0.00    +0.000 A 
ATOM     34  O   UNL     1      46.556   1.463   8.075  0.00  0.00    +0.000 OA
ENDBRANCH  27  30
ENDBRANCH  25  26
ENDBRANCH   6  25
TORSDOF 7
ENDMDL
MODEL 2
REMARK VINA RESULT:    -7.913      1.908      2.658
REMARK INTER + INTRA:         -12.297
REMARK INTER:                 -11.112
REMARK INTRA:                  -1.185
REMARK UNBOUND:                -1.146
REMARK  Name = 
REMARK  8 active torsions:
REMARK  status: ('A' for Active; 'I' for Inactive)
REMARK    1  A    between atoms: C_1  and  O_2
REMARK    2  A    between atoms: O_2  and  C_3
REMARK    3  A    between atoms: C_6  and  C_7
REMARK    4  A    between atoms: C_7  and  N_8
REMARK    5  A    between atoms: C_9  and  C_11
REMARK    6  A    between atoms: C_22  and  C_23
REMARK    7  A    between atoms: C_23  and  N_24
REMARK    8  A    between atoms: C_25  and  C_27
REMARK                            x       y       z     vdW  Elec       q    Type
REMARK                         _______ _______ _______ _____ _____    ______ ____
ROOT
ATOM      1  C   UNL     1      45.612   4.231  12.267  0.00  0.00    +0.000 A 
ATOM      2  C   UNL     1      46.158   4.117  13.550  0.00  0.00    +0.000 A 
ATOM      3  C   UNL     1      46.941   5.141  14.085  0.00  0.00    +0.000 A 
ATOM      4  C   UNL     1      47.220   6.284  13.336  0.00  0.00    +0.000 A 
ATOM      5  C   UNL     1      46.680   6.398  12.049  0.00  0.00    +0.000 A 
ATOM      6  C   UNL     1      45.868   5.384  11.505  0.00  0.00    +0.000 A 
ENDROOT
BRANCH   1   8
ATOM      7  C   UNL     1      43.486   3.195  12.117  0.00  0.00    +0.000 C 
ATOM      8  O   UNL     1      44.841   3.259  11.680  0.00  0.00    +0.000 OA
ENDBRANCH   1   8
BRANCH   4   9
ATOM      9  C   UNL     1      48.056   7.388  13.924  0.00  0.00    +0.000 C 
BRANCH   9  10
ATOM     10  N   UNL     1      48.071   7.324  15.364  0.00  0.00    +0.000 N 
ATOM     11  C   UNL     1      49.159   6.894  16.076  0.00  0.00    +0.000 C 
ATOM     12  O   UNL     1      50.198   6.528  15.532  0.00  0.00    +0.000 OA
ATOM     13  H   UNL     1      47.174   7.415  15.829  0.00  0.00    +0.000 HD
BRANCH  11  14
ATOM     14  C   UNL     1      49.052   6.967  17.540  0.00  0.00    +0.000 A 
ATOM     15  C   UNL     1      49.134   8.203  18.169  0.00  0.00    +0.000 A 
ATOM     16  S   UNL     1      48.943   8.125  19.861  0.00  0.00    +0.000 S 
ATOM     17  C   UNL     1      48.790   6.432  19.820  0.00  0.00    +0.000 A 
ATOM     18  N   UNL     1      48.626   5.718  20.966  0.00  0.00    +0.000 NA
ATOM     19  C   UNL     1      48.562   4.440  20.795  0.00  0.00    +0.000 A 
ATOM     20  N   UNL     1      48.636   3.812  19.580  0.00  0.00    +0.000 N 
ATOM     21  C   UNL     1      48.740   4.494  18.391  0.00  0.00    +0.000 A 
ATOM     22  O   UNL     1      48.703   3.907  17.315  0.00  0.00    +0.000 OA
ATOM     23  C   UNL     1      48.858   5.934  18.530  0.00  0.00    +0.000 A 
ATOM     24  H   UNL     1      48.553   2.808  19.511  0.00  0.00    +0.000 HD
ENDBRANCH  11  14
ENDBRANCH   9  10
ENDBRANCH   4   9
BRANCH   6  25
ATOM     25  C   UNL     1      45.286   5.583  10.128  0.00  0.00    +0.000 C 
BRANCH  25  26
ATOM     26  N   UNL     1      45.962   4.796   9.125  0.00  0.00    +0.000 N 
ATOM     27  C   UNL     1      45.338   3.825   8.376  0.00  0.00    +0.000 C 
ATOM     28  O   UNL     1      44.138   3.576   8.470  0.00  0.00    +0.000 OA
ATOM     29  H   UNL     1      46.932   4.994   8.928  0.00  0.00    +0.000 HD
BRANCH  27  30
ATOM     30  C   UNL     1      46.232   3.112   7.484  0.00  0.00    +0.000 A 
ATOM     31  C   UNL     1      46.685   3.414   6.212  0.00  0.00    +0.000 A 
ATOM     32  C   UNL     1      47.514   2.342   5.809  0.00  0.00    +0.000 A 
ATOM     33  C   UNL     1      47.518   1.446   6.852  0.00  0.00    +0.000 A 
ATOM     34  O   UNL     1      46.754   1.904   7.875  0.00  0.00    +0.000 OA
ENDBRANCH  27  30
ENDBRANCH  25  26
ENDBRANCH   6  25
TORSDOF 7
ENDMDL
MODEL 3
REMARK VINA RESULT:    -7.906      2.109      3.126
REMARK INTER + INTRA:         -12.287
REMARK INTER:                 -11.053
REMARK INTRA:                  -1.234
REMARK UNBOUND:                -1.146
REMARK  Name = 
REMARK  8 active torsions:
REMARK  status: ('A' for Active; 'I' for Inactive)
REMARK    1  A    between atoms: C_1  and  O_2
REMARK    2  A    between atoms: O_2  and  C_3
REMARK    3  A    between atoms: C_6  and  C_7
REMARK    4  A    between atoms: C_7  and  N_8
REMARK    5  A    between atoms: C_9  and  C_11
REMARK    6  A    between atoms: C_22  and  C_23
REMARK    7  A    between atoms: C_23  and  N_24
REMARK    8  A    between atoms: C_25  and  C_27
REMARK                            x       y       z     vdW  Elec       q    Type
REMARK                         _______ _______ _______ _____ _____    ______ ____
ROOT
ATOM      1  C   UNL     1      44.761   8.289  11.446  0.00  0.00    +0.000 A 
ATOM      2  C   UNL     1      45.576   9.363  11.818  0.00  0.00    +0.000 A 
ATOM      3  C   UNL     1      46.912   9.158  12.165  0.00  0.00    +0.000 A 
ATOM      4  C   UNL     1      47.451   7.871  12.177  0.00  0.00    +0.000 A 
ATOM      5  C   UNL     1      46.635   6.792  11.811  0.00  0.00    +0.000 A 
ATOM      6  C   UNL     1      45.292   6.987  11.435  0.00  0.00    +0.000 A 
ENDROOT
BRANCH   1   8
ATOM      7  C   UNL     1      43.029   9.727  10.706  0.00  0.00    +0.000 C 
ATOM      8  O   UNL     1      43.439   8.421  11.101  0.00  0.00    +0.000 OA
ENDBRANCH   1   8
BRANCH   4   9
ATOM      9  C   UNL     1      48.894   7.659  12.542  0.00  0.00    +0.000 C 
BRANCH   9  10
ATOM     10  N   UNL     1      49.021   6.918  13.772  0.00  0.00    +0.000 N 
ATOM     11  C   UNL     1      48.888   7.499  15.005  0.00  0.00    +0.000 C 
ATOM     12  O   UNL     1      48.655   8.698  15.146  0.00  0.00    +0.000 OA
ATOM     13  H   UNL     1      49.416   5.986  13.699  0.00  0.00    +0.000 HD
BRANCH  11  14
ATOM     14  C   UNL     1      48.959   6.597  16.163  0.00  0.00    +0.000 A 
ATOM     15  C   UNL     1      49.775   6.928  17.237  0.00  0.00    +0.000 A 
ATOM     16  S   UNL     1      49.710   5.805  18.519  0.00  0.00    +0.000 S 
ATOM     17  C   UNL     1      48.625   4.812  17.666  0.00  0.00    +0.000 A 
ATOM     18  N   UNL     1      48.179   3.644  18.202  0.00  0.00    +0.000 NA
ATOM     19  C   UNL     1      47.391   2.971  17.434  0.00  0.00    +0.000 A 
ATOM     20  N   UNL     1      46.999   3.364  16.181  0.00  0.00    +0.000 N 
ATOM     21  C   UNL     1      47.374   4.563  15.623  0.00  0.00    +0.000 A 
ATOM     22  O   UNL     1      46.925   4.931  14.542  0.00  0.00    +0.000 OA
ATOM     23  C   UNL     1      48.296   5.342  16.430  0.00  0.00    +0.000 A 
ATOM     24  H   UNL     1      46.358   2.803  15.639  0.00  0.00    +0.000 HD
ENDBRANCH  11  14
ENDBRANCH   9  10
ENDBRANCH   4   9
BRANCH   6  25
ATOM     25  C   UNL     1      44.476   5.790  11.014  0.00  0.00    +0.000 C 
BRANCH  25  26
ATOM     26  N   UNL     1      45.090   5.056   9.934  0.00  0.00    +0.000 N 
ATOM     27  C   UNL     1      44.701   3.791   9.559  0.00  0.00    +0.000 C 
ATOM     28  O   UNL     1      43.764   3.197  10.089  0.00  0.00    +0.000 OA
ATOM     29  H   UNL     1      45.815   5.506   9.394  0.00  0.00    +0.000 HD
BRANCH  27  30
ATOM     30  C   UNL     1      45.509   3.221   8.499  0.00  0.00    +0.000 A 
ATOM     31  C   UNL     1      45.999   1.941   8.312  0.00  0.00    +0.000 A 
ATOM     32  C   UNL     1      46.753   1.963   7.117  0.00  0.00    +0.000 A 
ATOM     33  C   UNL     1      46.685   3.252   6.644  0.00  0.00    +0.000 A 
ATOM     34  O   UNL     1      45.928   4.021   7.466  0.00  0.00    +0.000 OA
ENDBRANCH  27  30
ENDBRANCH  25  26
ENDBRANCH   6  25
TORSDOF 7
ENDMDL
MODEL 4
REMARK VINA RESULT:    -7.587      3.580      8.719
REMARK INTER + INTRA:         -11.837
REMARK INTER:                 -10.594
REMARK INTRA:                  -1.244
REMARK UNBOUND:                -1.146
REMARK  Name = 
REMARK  8 active torsions:
REMARK  status: ('A' for Active; 'I' for Inactive)
REMARK    1  A    between atoms: C_1  and  O_2
REMARK    2  A    between atoms: O_2  and  C_3
REMARK    3  A    between atoms: C_6  and  C_7
REMARK    4  A    between atoms: C_7  and  N_8
REMARK    5  A    between atoms: C_9  and  C_11
REMARK    6  A    between atoms: C_22  and  C_23
REMARK    7  A    between atoms: C_23  and  N_24
REMARK    8  A    between atoms: C_25  and  C_27
REMARK                            x       y       z     vdW  Elec       q    Type
REMARK                         _______ _______ _______ _____ _____    ______ ____
ROOT
ATOM      1  C   UNL     1      48.752   5.947  18.988  0.00  0.00    +0.000 A 
ATOM      2  C   UNL     1      48.771   7.342  18.888  0.00  0.00    +0.000 A 
ATOM      3  C   UNL     1      48.791   7.966  17.640  0.00  0.00    +0.000 A 
ATOM      4  C   UNL     1      48.825   7.209  16.469  0.00  0.00    +0.000 A 
ATOM      5  C   UNL     1      48.813   5.811  16.567  0.00  0.00    +0.000 A 
ATOM      6  C   UNL     1      48.768   5.167  17.818  0.00  0.00    +0.000 A 
ENDROOT
BRANCH   1   8
ATOM      7  C   UNL     1      47.784   5.719  21.139  0.00  0.00    +0.000 C 
ATOM      8  O   UNL     1      48.740   5.270  20.183  0.00  0.00    +0.000 OA
ENDBRANCH   1   8
BRANCH   4   9
ATOM      9  C   UNL     1      48.835   7.889  15.128  0.00  0.00    +0.000 C 
BRANCH   9  10
ATOM     10  N   UNL     1      47.680   7.525  14.346  0.00  0.00    +0.000 N 
ATOM     11  C   UNL     1      47.742   6.652  13.292  0.00  0.00    +0.000 C 
ATOM     12  O   UNL     1      48.793   6.122  12.939  0.00  0.00    +0.000 OA
ATOM     13  H   UNL     1      46.851   8.096  14.473  0.00  0.00    +0.000 HD
BRANCH  11  14
ATOM     14  C   UNL     1      46.465   6.315  12.648  0.00  0.00    +0.000 A 
ATOM     15  C   UNL     1      45.721   7.319  12.042  0.00  0.00    +0.000 A 
ATOM     16  S   UNL     1      44.292   6.760  11.299  0.00  0.00    +0.000 S 
ATOM     17  C   UNL     1      44.591   5.163  11.802  0.00  0.00    +0.000 A 
ATOM     18  N   UNL     1      43.715   4.164  11.510  0.00  0.00    +0.000 NA
ATOM     19  C   UNL     1      44.046   3.009  11.983  0.00  0.00    +0.000 A 
ATOM     20  N   UNL     1      45.179   2.760  12.712  0.00  0.00    +0.000 N 
ATOM     21  C   UNL     1      46.123   3.724  12.979  0.00  0.00    +0.000 A 
ATOM     22  O   UNL     1      47.173   3.446  13.547  0.00  0.00    +0.000 OA
ATOM     23  C   UNL     1      45.779   5.052  12.504  0.00  0.00    +0.000 A 
ATOM     24  H   UNL     1      45.394   1.827  13.033  0.00  0.00    +0.000 HD
ENDBRANCH  11  14
ENDBRANCH   9  10
ENDBRANCH   4   9
BRANCH   6  25
ATOM     25  C   UNL     1      48.718   3.660  17.856  0.00  0.00    +0.000 C 
BRANCH  25  26
ATOM     26  N   UNL     1      50.023   3.070  18.034  0.00  0.00    +0.000 N 
ATOM     27  C   UNL     1      50.568   2.158  17.160  0.00  0.00    +0.000 C 
ATOM     28  O   UNL     1      50.003   1.803  16.128  0.00  0.00    +0.000 OA
ATOM     29  H   UNL     1      50.587   3.371  18.816  0.00  0.00    +0.000 HD
BRANCH  27  30
ATOM     30  C   UNL     1      51.857   1.644  17.580  0.00  0.00    +0.000 A 
ATOM     31  C   UNL     1      53.052   2.286  17.851  0.00  0.00    +0.000 A 
ATOM     32  C   UNL     1      53.988   1.282  18.190  0.00  0.00    +0.000 A 
ATOM     33  C   UNL     1      53.315   0.086  18.104  0.00  0.00    +0.000 A 
ATOM     34  O   UNL     1      52.022   0.292  17.746  0.00  0.00    +0.000 OA
ENDBRANCH  27  30
ENDBRANCH  25  26
ENDBRANCH   6  25
TORSDOF 7
ENDMDL
MODEL 5
REMARK VINA RESULT:    -7.376      3.138      6.369
REMARK INTER + INTRA:         -11.540
REMARK INTER:                  -9.347
REMARK INTRA:                  -2.193
REMARK UNBOUND:                -1.146
REMARK  Name = 
REMARK  8 active torsions:
REMARK  status: ('A' for Active; 'I' for Inactive)
REMARK    1  A    between atoms: C_1  and  O_2
REMARK    2  A    between atoms: O_2  and  C_3
REMARK    3  A    between atoms: C_6  and  C_7
REMARK    4  A    between atoms: C_7  and  N_8
REMARK    5  A    between atoms: C_9  and  C_11
REMARK    6  A    between atoms: C_22  and  C_23
REMARK    7  A    between atoms: C_23  and  N_24
REMARK    8  A    between atoms: C_25  and  C_27
REMARK                            x       y       z     vdW  Elec       q    Type
REMARK                         _______ _______ _______ _____ _____    ______ ____
ROOT
ATOM      1  C   UNL     1      45.023   4.658  11.853  0.00  0.00    +0.000 A 
ATOM      2  C   UNL     1      44.448   5.728  11.159  0.00  0.00    +0.000 A 
ATOM      3  C   UNL     1      44.730   7.045  11.520  0.00  0.00    +0.000 A 
ATOM      4  C   UNL     1      45.567   7.319  12.603  0.00  0.00    +0.000 A 
ATOM      5  C   UNL     1      46.139   6.250  13.304  0.00  0.00    +0.000 A 
ATOM      6  C   UNL     1      45.883   4.915  12.936  0.00  0.00    +0.000 A 
ENDROOT
BRANCH   1   8
ATOM      7  C   UNL     1      43.442   2.896  11.745  0.00  0.00    +0.000 C 
ATOM      8  O   UNL     1      44.782   3.340  11.554  0.00  0.00    +0.000 OA
ENDBRANCH   1   8
BRANCH   4   9
ATOM      9  C   UNL     1      45.875   8.742  12.980  0.00  0.00    +0.000 C 
BRANCH   9  10
ATOM     10  N   UNL     1      46.771   8.804  14.107  0.00  0.00    +0.000 N 
ATOM     11  C   UNL     1      48.076   9.207  13.997  0.00  0.00    +0.000 C 
ATOM     12  O   UNL     1      48.573   9.539  12.923  0.00  0.00    +0.000 OA
ATOM     13  H   UNL     1      46.461   8.343  14.956  0.00  0.00    +0.000 HD
BRANCH  11  14
ATOM     14  C   UNL     1      48.839   9.299  15.250  0.00  0.00    +0.000 A 
ATOM     15  C   UNL     1      48.942  10.524  15.897  0.00  0.00    +0.000 A 
ATOM     16  S   UNL     1      49.817  10.455  17.358  0.00  0.00    +0.000 S 
ATOM     17  C   UNL     1      50.128   8.795  17.157  0.00  0.00    +0.000 A 
ATOM     18  N   UNL     1      50.870   8.109  18.067  0.00  0.00    +0.000 NA
ATOM     19  C   UNL     1      51.061   6.867  17.773  0.00  0.00    +0.000 A 
ATOM     20  N   UNL     1      50.568   6.245  16.656  0.00  0.00    +0.000 N 
ATOM     21  C   UNL     1      49.763   6.882  15.740  0.00  0.00    +0.000 A 
ATOM     22  O   UNL     1      49.256   6.271  14.805  0.00  0.00    +0.000 OA
ATOM     23  C   UNL     1      49.551   8.294  16.003  0.00  0.00    +0.000 A 
ATOM     24  H   UNL     1      50.732   5.262  16.496  0.00  0.00    +0.000 HD
ENDBRANCH  11  14
ENDBRANCH   9  10
ENDBRANCH   4   9
BRANCH   6  25
ATOM     25  C   UNL     1      46.558   3.808  13.706  0.00  0.00    +0.000 C 
BRANCH  25  26
ATOM     26  N   UNL     1      46.908   4.204  15.048  0.00  0.00    +0.000 N 
ATOM     27  C   UNL     1      47.760   3.484  15.854  0.00  0.00    +0.000 C 
ATOM     28  O   UNL     1      48.329   2.461  15.478  0.00  0.00    +0.000 OA
ATOM     29  H   UNL     1      46.547   5.078  15.405  0.00  0.00    +0.000 HD
BRANCH  27  30
ATOM     30  C   UNL     1      47.906   4.033  17.188  0.00  0.00    +0.000 A 
ATOM     31  C   UNL     1      47.176   4.993  17.865  0.00  0.00    +0.000 A 
ATOM     32  C   UNL     1      47.789   5.155  19.129  0.00  0.00    +0.000 A 
ATOM     33  C   UNL     1      48.858   4.291  19.152  0.00  0.00    +0.000 A 
ATOM     34  O   UNL     1      48.934   3.599  17.987  0.00  0.00    +0.000 OA
ENDBRANCH  27  30
ENDBRANCH  25  26
ENDBRANCH   6  25
TORSDOF 7
ENDMDL
MODEL 6
REMARK VINA RESULT:    -7.047      2.986      8.888
REMARK INTER + INTRA:         -11.078
REMARK INTER:                  -9.706
REMARK INTRA:                  -1.372
REMARK UNBOUND:                -1.146
REMARK  Name = 
REMARK  8 active torsions:
REMARK  status: ('A' for Active; 'I' for Inactive)
REMARK    1  A    between atoms: C_1  and  O_2
REMARK    2  A    between atoms: O_2  and  C_3
REMARK    3  A    between atoms: C_6  and  C_7
REMARK    4  A    between atoms: C_7  and  N_8
REMARK    5  A    between atoms: C_9  and  C_11
REMARK    6  A    between atoms: C_22  and  C_23
REMARK    7  A    between atoms: C_23  and  N_24
REMARK    8  A    between atoms: C_25  and  C_27
REMARK                            x       y       z     vdW  Elec       q    Type
REMARK                         _______ _______ _______ _____ _____    ______ ____
ROOT
ATOM      1  C   UNL     1      49.374   7.549  16.034  0.00  0.00    +0.000 A 
ATOM      2  C   UNL     1      49.595   8.606  15.146  0.00  0.00    +0.000 A 
ATOM      3  C   UNL     1      48.997   8.615  13.885  0.00  0.00    +0.000 A 
ATOM      4  C   UNL     1      48.190   7.552  13.476  0.00  0.00    +0.000 A 
ATOM      5  C   UNL     1      47.972   6.488  14.362  0.00  0.00    +0.000 A 
ATOM      6  C   UNL     1      48.549   6.477  15.646  0.00  0.00    +0.000 A 
ENDROOT
BRANCH   1   8
ATOM      7  C   UNL     1      51.355   7.601  17.333  0.00  0.00    +0.000 C 
ATOM      8  O   UNL     1      49.937   7.475  17.284  0.00  0.00    +0.000 OA
ENDBRANCH   1   8
BRANCH   4   9
ATOM      9  C   UNL     1      47.540   7.574  12.120  0.00  0.00    +0.000 C 
BRANCH   9  10
ATOM     10  N   UNL     1      46.816   6.354  11.867  0.00  0.00    +0.000 N 
ATOM     11  C   UNL     1      45.447   6.291  11.863  0.00  0.00    +0.000 C 
ATOM     12  O   UNL     1      44.743   7.274  12.081  0.00  0.00    +0.000 OA
ATOM     13  H   UNL     1      47.355   5.495  11.892  0.00  0.00    +0.000 HD
BRANCH  11  14
ATOM     14  C   UNL     1      44.855   4.995  11.503  0.00  0.00    +0.000 A 
ATOM     15  C   UNL     1      44.102   4.304  12.444  0.00  0.00    +0.000 A 
ATOM     16  S   UNL     1      43.445   2.844  11.858  0.00  0.00    +0.000 S 
ATOM     17  C   UNL     1      44.182   3.058  10.341  0.00  0.00    +0.000 A 
ATOM     18  N   UNL     1      44.039   2.128   9.358  0.00  0.00    +0.000 NA
ATOM     19  C   UNL     1      44.681   2.397   8.272  0.00  0.00    +0.000 A 
ATOM     20  N   UNL     1      45.444   3.518   8.073  0.00  0.00    +0.000 N 
ATOM     21  C   UNL     1      45.568   4.514   9.014  0.00  0.00    +0.000 A 
ATOM     22  O   UNL     1      46.176   5.550   8.767  0.00  0.00    +0.000 OA
ATOM     23  C   UNL     1      44.898   4.240  10.273  0.00  0.00    +0.000 A 
ATOM     24  H   UNL     1      45.901   3.683   7.188  0.00  0.00    +0.000 HD
ENDBRANCH  11  14
ENDBRANCH   9  10
ENDBRANCH   4   9
BRANCH   6  25
ATOM     25  C   UNL     1      48.246   5.322  16.567  0.00  0.00    +0.000 C 
BRANCH  25  26
ATOM     26  N   UNL     1      49.413   4.523  16.852  0.00  0.00    +0.000 N 
ATOM     27  C   UNL     1      49.368   3.164  17.065  0.00  0.00    +0.000 C 
ATOM     28  O   UNL     1      48.330   2.511  16.988  0.00  0.00    +0.000 OA
ATOM     29  H   UNL     1      50.318   4.971  16.853  0.00  0.00    +0.000 HD
BRANCH  27  30
ATOM     30  C   UNL     1      50.651   2.584  17.408  0.00  0.00    +0.000 A 
ATOM     31  C   UNL     1      51.809   3.156  17.904  0.00  0.00    +0.000 A 
ATOM     32  C   UNL     1      52.761   2.117  18.020  0.00  0.00    +0.000 A 
ATOM     33  C   UNL     1      52.135   0.972  17.586  0.00  0.00    +0.000 A 
ATOM     34  O   UNL     1      50.855   1.239  17.222  0.00  0.00    +0.000 OA
ENDBRANCH  27  30
ENDBRANCH  25  26
ENDBRANCH   6  25
TORSDOF 7
ENDMDL
MODEL 7
REMARK VINA RESULT:    -6.976      3.847      6.921
REMARK INTER + INTRA:         -10.977
REMARK INTER:                  -8.861
REMARK INTRA:                  -2.116
REMARK UNBOUND:                -1.146
REMARK  Name = 
REMARK  8 active torsions:
REMARK  status: ('A' for Active; 'I' for Inactive)
REMARK    1  A    between atoms: C_1  and  O_2
REMARK    2  A    between atoms: O_2  and  C_3
REMARK    3  A    between atoms: C_6  and  C_7
REMARK    4  A    between atoms: C_7  and  N_8
REMARK    5  A    between atoms: C_9  and  C_11
REMARK    6  A    between atoms: C_22  and  C_23
REMARK    7  A    between atoms: C_23  and  N_24
REMARK    8  A    between atoms: C_25  and  C_27
REMARK                            x       y       z     vdW  Elec       q    Type
REMARK                         _______ _______ _______ _____ _____    ______ ____
ROOT
ATOM      1  C   UNL     1      45.323   5.628  13.139  0.00  0.00    +0.000 A 
ATOM      2  C   UNL     1      45.217   6.617  12.155  0.00  0.00    +0.000 A 
ATOM      3  C   UNL     1      46.350   7.294  11.701  0.00  0.00    +0.000 A 
ATOM      4  C   UNL     1      47.605   7.018  12.245  0.00  0.00    +0.000 A 
ATOM      5  C   UNL     1      47.713   6.033  13.235  0.00  0.00    +0.000 A 
ATOM      6  C   UNL     1      46.583   5.324  13.686  0.00  0.00    +0.000 A 
ENDROOT
BRANCH   1   8
ATOM      7  C   UNL     1      43.013   5.130  12.954  0.00  0.00    +0.000 C 
ATOM      8  O   UNL     1      44.249   4.931  13.635  0.00  0.00    +0.000 OA
ENDBRANCH   1   8
BRANCH   4   9
ATOM      9  C   UNL     1      48.823   7.745  11.743  0.00  0.00    +0.000 C 
BRANCH   9  10
ATOM     10  N   UNL     1      49.962   7.510  12.594  0.00  0.00    +0.000 N 
ATOM     11  C   UNL     1      50.447   8.453  13.461  0.00  0.00    +0.000 C 
ATOM     12  O   UNL     1      49.944   9.569  13.568  0.00  0.00    +0.000 OA
ATOM     13  H   UNL     1      50.521   6.690  12.383  0.00  0.00    +0.000 HD
BRANCH  11  14
ATOM     14  C   UNL     1      51.561   8.035  14.324  0.00  0.00    +0.000 A 
ATOM     15  C   UNL     1      52.859   8.398  13.987  0.00  0.00    +0.000 A 
ATOM     16  S   UNL     1      54.030   7.878  15.111  0.00  0.00    +0.000 S 
ATOM     17  C   UNL     1      52.851   7.108  16.065  0.00  0.00    +0.000 A 
ATOM     18  N   UNL     1      53.199   6.431  17.193  0.00  0.00    +0.000 NA
ATOM     19  C   UNL     1      52.212   5.864  17.800  0.00  0.00    +0.000 A 
ATOM     20  N   UNL     1      50.906   5.921  17.389  0.00  0.00    +0.000 N 
ATOM     21  C   UNL     1      50.499   6.643  16.292  0.00  0.00    +0.000 A 
ATOM     22  O   UNL     1      49.311   6.756  16.009  0.00  0.00    +0.000 OA
ATOM     23  C   UNL     1      51.577   7.267  15.547  0.00  0.00    +0.000 A 
ATOM     24  H   UNL     1      50.175   5.475  17.924  0.00  0.00    +0.000 HD
ENDBRANCH  11  14
ENDBRANCH   9  10
ENDBRANCH   4   9
BRANCH   6  25
ATOM     25  C   UNL     1      46.768   4.249  14.727  0.00  0.00    +0.000 C 
BRANCH  25  26
ATOM     26  N   UNL     1      47.210   4.779  15.994  0.00  0.00    +0.000 N 
ATOM     27  C   UNL     1      47.101   4.095  17.182  0.00  0.00    +0.000 C 
ATOM     28  O   UNL     1      46.655   2.951  17.255  0.00  0.00    +0.000 OA
ATOM     29  H   UNL     1      47.663   5.682  16.009  0.00  0.00    +0.000 HD
BRANCH  27  30
ATOM     30  C   UNL     1      47.540   4.853  18.336  0.00  0.00    +0.000 A 
ATOM     31  C   UNL     1      47.038   6.003  18.919  0.00  0.00    +0.000 A 
ATOM     32  C   UNL     1      47.887   6.315  20.006  0.00  0.00    +0.000 A 
ATOM     33  C   UNL     1      48.860   5.344  20.024  0.00  0.00    +0.000 A 
ATOM     34  O   UNL     1      48.657   4.448  19.025  0.00  0.00    +0.000 OA
ENDBRANCH  27  30
ENDBRANCH  25  26
ENDBRANCH   6  25
TORSDOF 7
ENDMDL
MODEL 8
REMARK VINA RESULT:    -6.941      3.550      8.747
REMARK INTER + INTRA:         -10.928
REMARK INTER:                  -9.784
REMARK INTRA:                  -1.144
REMARK UNBOUND:                -1.146
REMARK  Name = 
REMARK  8 active torsions:
REMARK  status: ('A' for Active; 'I' for Inactive)
REMARK    1  A    between atoms: C_1  and  O_2
REMARK    2  A    between atoms: O_2  and  C_3
REMARK    3  A    between atoms: C_6  and  C_7
REMARK    4  A    between atoms: C_7  and  N_8
REMARK    5  A    between atoms: C_9  and  C_11
REMARK    6  A    between atoms: C_22  and  C_23
REMARK    7  A    between atoms: C_23  and  N_24
REMARK    8  A    between atoms: C_25  and  C_27
REMARK                            x       y       z     vdW  Elec       q    Type
REMARK                         _______ _______ _______ _____ _____    ______ ____
ROOT
ATOM      1  C   UNL     1      50.963   8.464  13.154  0.00  0.00    +0.000 A 
ATOM      2  C   UNL     1      50.546   8.917  11.898  0.00  0.00    +0.000 A 
ATOM      3  C   UNL     1      49.194   8.917  11.553  0.00  0.00    +0.000 A 
ATOM      4  C   UNL     1      48.236   8.435  12.445  0.00  0.00    +0.000 A 
ATOM      5  C   UNL     1      48.651   7.974  13.701  0.00  0.00    +0.000 A 
ATOM      6  C   UNL     1      50.009   7.991  14.073  0.00  0.00    +0.000 A 
ENDROOT
BRANCH   1   8
ATOM      7  C   UNL     1      53.242   8.394  12.506  0.00  0.00    +0.000 C 
ATOM      8  O   UNL     1      52.276   8.431  13.553  0.00  0.00    +0.000 OA
ENDBRANCH   1   8
BRANCH   4   9
ATOM      9  C   UNL     1      46.779   8.448  12.070  0.00  0.00    +0.000 C 
BRANCH   9  10
ATOM     10  N   UNL     1      46.256   7.110  11.953  0.00  0.00    +0.000 N 
ATOM     11  C   UNL     1      44.981   6.847  11.524  0.00  0.00    +0.000 C 
ATOM     12  O   UNL     1      44.194   7.739  11.214  0.00  0.00    +0.000 OA
ATOM     13  H   UNL     1      46.796   6.374  12.394  0.00  0.00    +0.000 HD
BRANCH  11  14
ATOM     14  C   UNL     1      44.622   5.429  11.376  0.00  0.00    +0.000 A 
ATOM     15  C   UNL     1      43.898   4.800  12.381  0.00  0.00    +0.000 A 
ATOM     16  S   UNL     1      43.520   3.174  12.037  0.00  0.00    +0.000 S 
ATOM     17  C   UNL     1      44.351   3.237  10.555  0.00  0.00    +0.000 A 
ATOM     18  N   UNL     1      44.438   2.140   9.756  0.00  0.00    +0.000 NA
ATOM     19  C   UNL     1      45.128   2.316   8.680  0.00  0.00    +0.000 A 
ATOM     20  N   UNL     1      45.732   3.494   8.324  0.00  0.00    +0.000 N 
ATOM     21  C   UNL     1      45.621   4.644   9.069  0.00  0.00    +0.000 A 
ATOM     22  O   UNL     1      46.088   5.706   8.672  0.00  0.00    +0.000 OA
ATOM     23  C   UNL     1      44.888   4.490  10.312  0.00  0.00    +0.000 A 
ATOM     24  H   UNL     1      46.238   3.574   7.454  0.00  0.00    +0.000 HD
ENDBRANCH  11  14
ENDBRANCH   9  10
ENDBRANCH   4   9
BRANCH   6  25
ATOM     25  C   UNL     1      50.389   7.518  15.453  0.00  0.00    +0.000 C 
BRANCH  25  26
ATOM     26  N   UNL     1      49.750   6.273  15.804  0.00  0.00    +0.000 N 
ATOM     27  C   UNL     1      48.833   6.152  16.823  0.00  0.00    +0.000 C 
ATOM     28  O   UNL     1      48.450   7.109  17.493  0.00  0.00    +0.000 OA
ATOM     29  H   UNL     1      49.950   5.453  15.249  0.00  0.00    +0.000 HD
BRANCH  27  30
ATOM     30  C   UNL     1      48.381   4.793  17.044  0.00  0.00    +0.000 A 
ATOM     31  C   UNL     1      47.225   4.297  17.618  0.00  0.00    +0.000 A 
ATOM     32  C   UNL     1      47.329   2.887  17.597  0.00  0.00    +0.000 A 
ATOM     33  C   UNL     1      48.542   2.601  17.015  0.00  0.00    +0.000 A 
ATOM     34  O   UNL     1      49.184   3.745  16.667  0.00  0.00    +0.000 OA
ENDBRANCH  27  30
ENDBRANCH  25  26
ENDBRANCH   6  25
TORSDOF 7
ENDMDL
MODEL 9
REMARK VINA RESULT:    -6.867      3.241      3.974
REMARK INTER + INTRA:         -10.824
REMARK INTER:                  -9.771
REMARK INTRA:                  -1.052
REMARK UNBOUND:                -1.146
REMARK  Name = 
REMARK  8 active torsions:
REMARK  status: ('A' for Active; 'I' for Inactive)
REMARK    1  A    between atoms: C_1  and  O_2
REMARK    2  A    between atoms: O_2  and  C_3
REMARK    3  A    between atoms: C_6  and  C_7
REMARK    4  A    between atoms: C_7  and  N_8
REMARK    5  A    between atoms: C_9  and  C_11
REMARK    6  A    between atoms: C_22  and  C_23
REMARK    7  A    between atoms: C_23  and  N_24
REMARK    8  A    between atoms: C_25  and  C_27
REMARK                            x       y       z     vdW  Elec       q    Type
REMARK                         _______ _______ _______ _____ _____    ______ ____
ROOT
ATOM      1  C   UNL     1      45.140   4.716  12.543  0.00  0.00    +0.000 A 
ATOM      2  C   UNL     1      45.934   5.232  13.573  0.00  0.00    +0.000 A 
ATOM      3  C   UNL     1      46.816   6.285  13.332  0.00  0.00    +0.000 A 
ATOM      4  C   UNL     1      46.946   6.823  12.051  0.00  0.00    +0.000 A 
ATOM      5  C   UNL     1      46.156   6.304  11.017  0.00  0.00    +0.000 A 
ATOM      6  C   UNL     1      45.243   5.257  11.249  0.00  0.00    +0.000 A 
ENDROOT
BRANCH   1   8
ATOM      7  C   UNL     1      43.044   3.997  13.385  0.00  0.00    +0.000 C 
ATOM      8  O   UNL     1      44.258   3.677  12.710  0.00  0.00    +0.000 OA
ENDBRANCH   1   8
BRANCH   4   9
ATOM      9  C   UNL     1      47.891   7.966  11.802  0.00  0.00    +0.000 C 
BRANCH   9  10
ATOM     10  N   UNL     1      48.792   8.152  12.913  0.00  0.00    +0.000 N 
ATOM     11  C   UNL     1      50.144   7.952  12.813  0.00  0.00    +0.000 C 
ATOM     12  O   UNL     1      50.680   7.593  11.767  0.00  0.00    +0.000 OA
ATOM     13  H   UNL     1      48.366   8.240  13.829  0.00  0.00    +0.000 HD
BRANCH  11  14
ATOM     14  C   UNL     1      50.939   8.266  14.008  0.00  0.00    +0.000 A 
ATOM     15  C   UNL     1      51.948   9.217  13.925  0.00  0.00    +0.000 A 
ATOM     16  S   UNL     1      52.744   9.502  15.406  0.00  0.00    +0.000 S 
ATOM     17  C   UNL     1      51.802   8.331  16.201  0.00  0.00    +0.000 A 
ATOM     18  N   UNL     1      51.999   8.053  17.518  0.00  0.00    +0.000 NA
ATOM     19  C   UNL     1      51.242   7.119  17.985  0.00  0.00    +0.000 A 
ATOM     20  N   UNL     1      50.296   6.443  17.257  0.00  0.00    +0.000 N 
ATOM     21  C   UNL     1      50.020   6.732  15.942  0.00  0.00    +0.000 A 
ATOM     22  O   UNL     1      49.100   6.178  15.349  0.00  0.00    +0.000 OA
ATOM     23  C   UNL     1      50.874   7.749  15.355  0.00  0.00    +0.000 A 
ATOM     24  H   UNL     1      49.717   5.738  17.690  0.00  0.00    +0.000 HD
ENDBRANCH  11  14
ENDBRANCH   9  10
ENDBRANCH   4   9
BRANCH   6  25
ATOM     25  C   UNL     1      44.395   4.767  10.103  0.00  0.00    +0.000 C 
BRANCH  25  26
ATOM     26  N   UNL     1      45.185   4.240   9.018  0.00  0.00    +0.000 N 
ATOM     27  C   UNL     1      45.287   2.897   8.736  0.00  0.00    +0.000 C 
ATOM     28  O   UNL     1      44.675   2.035   9.363  0.00  0.00    +0.000 OA
ATOM     29  H   UNL     1      45.656   4.889   8.402  0.00  0.00    +0.000 HD
BRANCH  27  30
ATOM     30  C   UNL     1      46.197   2.596   7.648  0.00  0.00    +0.000 A 
ATOM     31  C   UNL     1      46.494   3.288   6.488  0.00  0.00    +0.000 A 
ATOM     32  C   UNL     1      47.432   2.507   5.775  0.00  0.00    +0.000 A 
ATOM     33  C   UNL     1      47.653   1.383   6.536  0.00  0.00    +0.000 A 
ATOM     34  O   UNL     1      46.919   1.429   7.676  0.00  0.00    +0.000 OA
ENDBRANCH  27  30
ENDBRANCH  25  26
ENDBRANCH   6  25
TORSDOF 7
ENDMDL
