MODEL 1
REMARK VINA RESULT:    -8.181      0.000      0.000
REMARK INTER + INTRA:         -13.135
REMARK INTER:                 -12.007
REMARK INTRA:                  -1.128
REMARK UNBOUND:                -1.128
REMARK  Name = 
REMARK  9 active torsions:
REMARK  status: ('A' for Active; 'I' for Inactive)
REMARK    1  A    between atoms: C_1  and  O_2
REMARK    2  A    between atoms: O_2  and  C_3
REMARK    3  A    between atoms: C_10  and  C_11
REMARK    4  A    between atoms: N_13  and  C_14
REMARK    5  A    between atoms: C_14  and  C_15
REMARK    6  A    between atoms: C_18  and  C_19
REMARK    7  A    between atoms: C_19  and  C_20
REMARK    8  A    between atoms: C_20  and  C_21
REMARK    9  A    between atoms: C_21  and  C_22
REMARK                            x       y       z     vdW  Elec       q    Type
REMARK                         _______ _______ _______ _____ _____    ______ ____
ROOT
ATOM      1  C   UNL     1      47.880   7.088  13.156  0.00  0.00    +0.000 C 
ENDROOT
BRANCH   1   2
ATOM      2  C   UNL     1      46.819   6.167  12.608  0.00  0.00    +0.000 A 
ATOM      3  C   UNL     1      46.007   6.568  11.537  0.00  0.00    +0.000 A 
ATOM      4  C   UNL     1      45.018   5.715  11.033  0.00  0.00    +0.000 A 
ATOM      5  C   UNL     1      44.818   4.445  11.591  0.00  0.00    +0.000 A 
ATOM      6  C   UNL     1      45.604   4.062  12.684  0.00  0.00    +0.000 A 
ATOM      7  C   UNL     1      46.591   4.914  13.190  0.00  0.00    +0.000 A 
BRANCH   5   8
ATOM      8  C   UNL     1      43.764   3.509  11.046  0.00  0.00    +0.000 C 
BRANCH   8   9
ATOM      9  C   UNL     1      44.219   2.641   9.865  0.00  0.00    +0.000 C 
BRANCH   9  10
ATOM     10  C   UNL     1      44.734   3.455   8.673  0.00  0.00    +0.000 C 
BRANCH  10  11
ATOM     11  C   UNL     1      45.877   2.757   7.979  0.00  0.00    +0.000 A 
ATOM     12  C   UNL     1      46.727   3.470   7.128  0.00  0.00    +0.000 A 
ATOM     13  C   UNL     1      47.758   2.794   6.492  0.00  0.00    +0.000 A 
ATOM     14  N   UNL     1      47.993   1.473   6.641  0.00  0.00    +0.000 NA
ATOM     15  C   UNL     1      47.158   0.801   7.464  0.00  0.00    +0.000 A 
ATOM     16  C   UNL     1      46.101   1.388   8.144  0.00  0.00    +0.000 A 
ENDBRANCH  10  11
ENDBRANCH   9  10
ENDBRANCH   8   9
ENDBRANCH   5   8
ENDBRANCH   1   2
BRANCH   1  19
ATOM     17  C   UNL     1      48.984   7.055  15.360  0.00  0.00    +0.000 C 
ATOM     18  O   UNL     1      50.097   6.977  14.845  0.00  0.00    +0.000 OA
ATOM     19  N   UNL     1      47.850   7.110  14.596  0.00  0.00    +0.000 N 
ATOM     20  H   UNL     1      46.942   7.091  15.038  0.00  0.00    +0.000 HD
BRANCH  17  28
ATOM     21  C   UNL     1      48.827   4.635  17.804  0.00  0.00    +0.000 A 
ATOM     22  N   UNL     1      48.707   3.909  18.937  0.00  0.00    +0.000 NA
ATOM     23  C   UNL     1      48.497   4.565  20.080  0.00  0.00    +0.000 A 
ATOM     24  N   UNL     1      48.393   5.880  20.243  0.00  0.00    +0.000 NA
ATOM     25  C   UNL     1      48.524   6.565  19.093  0.00  0.00    +0.000 A 
ATOM     26  S   UNL     1      48.425   8.259  19.113  0.00  0.00    +0.000 S 
ATOM     27  C   UNL     1      48.658   8.343  17.432  0.00  0.00    +0.000 A 
ATOM     28  C   UNL     1      48.811   7.102  16.823  0.00  0.00    +0.000 A 
ATOM     29  C   UNL     1      48.742   6.038  17.825  0.00  0.00    +0.000 A 
BRANCH  21  31
ATOM     30  C   UNL     1      48.008   3.159  16.182  0.00  0.00    +0.000 C 
ATOM     31  O   UNL     1      49.098   3.961  16.632  0.00  0.00    +0.000 OA
ENDBRANCH  21  31
ENDBRANCH  17  28
ENDBRANCH   1  19
TORSDOF 8
ENDMDL
MODEL 2
REMARK VINA RESULT:    -8.102      1.423      2.520
REMARK INTER + INTRA:         -13.019
REMARK INTER:                 -11.848
REMARK INTRA:                  -1.172
REMARK UNBOUND:                -1.128
REMARK  Name = 
REMARK  9 active torsions:
REMARK  status: ('A' for Active; 'I' for Inactive)
REMARK    1  A    between atoms: C_1  and  O_2
REMARK    2  A    between atoms: O_2  and  C_3
REMARK    3  A    between atoms: C_10  and  C_11
REMARK    4  A    between atoms: N_13  and  C_14
REMARK    5  A    between atoms: C_14  and  C_15
REMARK    6  A    between atoms: C_18  and  C_19
REMARK    7  A    between atoms: C_19  and  C_20
REMARK    8  A    between atoms: C_20  and  C_21
REMARK    9  A    between atoms: C_21  and  C_22
REMARK                            x       y       z     vdW  Elec       q    Type
REMARK                         _______ _______ _______ _____ _____    ______ ____
ROOT
ATOM      1  C   UNL     1      48.254   6.647  13.749  0.00  0.00    +0.000 C 
ENDROOT
BRANCH   1   2
ATOM      2  C   UNL     1      47.119   6.067  12.944  0.00  0.00    +0.000 A 
ATOM      3  C   UNL     1      46.491   4.879  13.344  0.00  0.00    +0.000 A 
ATOM      4  C   UNL     1      45.442   4.338  12.592  0.00  0.00    +0.000 A 
ATOM      5  C   UNL     1      45.000   4.972  11.423  0.00  0.00    +0.000 A 
ATOM      6  C   UNL     1      45.653   6.138  11.005  0.00  0.00    +0.000 A 
ATOM      7  C   UNL     1      46.703   6.678  11.754  0.00  0.00    +0.000 A 
BRANCH   5   8
ATOM      8  C   UNL     1      43.858   4.407  10.610  0.00  0.00    +0.000 C 
BRANCH   8   9
ATOM      9  C   UNL     1      44.255   3.313   9.611  0.00  0.00    +0.000 C 
BRANCH   9  10
ATOM     10  C   UNL     1      44.879   3.860   8.323  0.00  0.00    +0.000 C 
BRANCH  10  11
ATOM     11  C   UNL     1      45.944   2.935   7.787  0.00  0.00    +0.000 A 
ATOM     12  C   UNL     1      46.881   3.400   6.860  0.00  0.00    +0.000 A 
ATOM     13  C   UNL     1      47.835   2.518   6.375  0.00  0.00    +0.000 A 
ATOM     14  N   UNL     1      47.915   1.222   6.741  0.00  0.00    +0.000 NA
ATOM     15  C   UNL     1      46.997   0.791   7.635  0.00  0.00    +0.000 A 
ATOM     16  C   UNL     1      46.006   1.595   8.177  0.00  0.00    +0.000 A 
ENDBRANCH  10  11
ENDBRANCH   9  10
ENDBRANCH   8   9
ENDBRANCH   5   8
ENDBRANCH   1   2
BRANCH   1  19
ATOM     17  C   UNL     1      49.142   6.381  16.033  0.00  0.00    +0.000 C 
ATOM     18  O   UNL     1      50.281   6.657  15.666  0.00  0.00    +0.000 OA
ATOM     19  N   UNL     1      48.097   6.353  15.150  0.00  0.00    +0.000 N 
ATOM     20  H   UNL     1      47.185   6.044  15.456  0.00  0.00    +0.000 HD
BRANCH  17  28
ATOM     21  C   UNL     1      47.897   8.247  18.646  0.00  0.00    +0.000 A 
ATOM     22  N   UNL     1      47.460   8.740  19.825  0.00  0.00    +0.000 NA
ATOM     23  C   UNL     1      47.443   7.921  20.878  0.00  0.00    +0.000 A 
ATOM     24  N   UNL     1      47.810   6.643  20.905  0.00  0.00    +0.000 NA
ATOM     25  C   UNL     1      48.232   6.190  19.711  0.00  0.00    +0.000 A 
ATOM     26  S   UNL     1      48.734   4.576  19.559  0.00  0.00    +0.000 S 
ATOM     27  C   UNL     1      49.085   4.789  17.910  0.00  0.00    +0.000 A 
ATOM     28  C   UNL     1      48.837   6.075  17.443  0.00  0.00    +0.000 A 
ATOM     29  C   UNL     1      48.313   6.910  18.524  0.00  0.00    +0.000 A 
BRANCH  21  31
ATOM     30  C   UNL     1      49.043   9.867  17.403  0.00  0.00    +0.000 C 
ATOM     31  O   UNL     1      47.863   9.079  17.547  0.00  0.00    +0.000 OA
ENDBRANCH  21  31
ENDBRANCH  17  28
ENDBRANCH   1  19
TORSDOF 8
ENDMDL
MODEL 3
REMARK VINA RESULT:    -7.809      1.764      3.455
REMARK INTER + INTRA:         -12.590
REMARK INTER:                 -10.955
REMARK INTRA:                  -1.635
REMARK UNBOUND:                -1.128
REMARK  Name = 
REMARK  9 active torsions:
REMARK  status: ('A' for Active; 'I' for Inactive)
REMARK    1  A    between atoms: C_1  and  O_2
REMARK    2  A    between atoms: O_2  and  C_3
REMARK    3  A    between atoms: C_10  and  C_11
REMARK    4  A    between atoms: N_13  and  C_14
REMARK    5  A    between atoms: C_14  and  C_15
REMARK    6  A    between atoms: C_18  and  C_19
REMARK    7  A    between atoms: C_19  and  C_20
REMARK    8  A    between atoms: C_20  and  C_21
REMARK    9  A    between atoms: C_21  and  C_22
REMARK                            x       y       z     vdW  Elec       q    Type
REMARK                         _______ _______ _______ _____ _____    ______ ____
ROOT
ATOM      1  C   UNL     1      47.201   4.289  15.020  0.00  0.00    +0.000 C 
ENDROOT
BRANCH   1   2
ATOM      2  C   UNL     1      46.321   4.392  13.800  0.00  0.00    +0.000 A 
ATOM      3  C   UNL     1      45.954   3.244  13.084  0.00  0.00    +0.000 A 
ATOM      4  C   UNL     1      45.143   3.342  11.947  0.00  0.00    +0.000 A 
ATOM      5  C   UNL     1      44.684   4.589  11.501  0.00  0.00    +0.000 A 
ATOM      6  C   UNL     1      45.083   5.737  12.196  0.00  0.00    +0.000 A 
ATOM      7  C   UNL     1      45.895   5.641  13.330  0.00  0.00    +0.000 A 
BRANCH   5   8
ATOM      8  C   UNL     1      43.796   4.707  10.285  0.00  0.00    +0.000 C 
BRANCH   8   9
ATOM      9  C   UNL     1      44.189   3.806   9.107  0.00  0.00    +0.000 C 
BRANCH   9  10
ATOM     10  C   UNL     1      45.411   4.312   8.332  0.00  0.00    +0.000 C 
BRANCH  10  11
ATOM     11  C   UNL     1      46.212   3.172   7.755  0.00  0.00    +0.000 A 
ATOM     12  C   UNL     1      46.044   1.872   8.243  0.00  0.00    +0.000 A 
ATOM     13  C   UNL     1      46.809   0.851   7.701  0.00  0.00    +0.000 A 
ATOM     14  N   UNL     1      47.722   1.034   6.724  0.00  0.00    +0.000 NA
ATOM     15  C   UNL     1      47.873   2.298   6.269  0.00  0.00    +0.000 A 
ATOM     16  C   UNL     1      47.155   3.384   6.745  0.00  0.00    +0.000 A 
ENDBRANCH  10  11
ENDBRANCH   9  10
ENDBRANCH   8   9
ENDBRANCH   5   8
ENDBRANCH   1   2
BRANCH   1  19
ATOM     17  C   UNL     1      48.634   5.833  16.302  0.00  0.00    +0.000 C 
ATOM     18  O   UNL     1      49.411   4.929  16.598  0.00  0.00    +0.000 OA
ATOM     19  N   UNL     1      47.526   5.595  15.534  0.00  0.00    +0.000 N 
ATOM     20  H   UNL     1      46.857   6.334  15.370  0.00  0.00    +0.000 HD
BRANCH  17  28
ATOM     21  C   UNL     1      48.732   8.860  14.664  0.00  0.00    +0.000 A 
ATOM     22  N   UNL     1      48.847  10.149  14.280  0.00  0.00    +0.000 NA
ATOM     23  C   UNL     1      49.130  11.058  15.216  0.00  0.00    +0.000 A 
ATOM     24  N   UNL     1      49.314  10.839  16.515  0.00  0.00    +0.000 NA
ATOM     25  C   UNL     1      49.185   9.545  16.855  0.00  0.00    +0.000 A 
ATOM     26  S   UNL     1      49.380   9.084  18.477  0.00  0.00    +0.000 S 
ATOM     27  C   UNL     1      49.098   7.451  18.098  0.00  0.00    +0.000 A 
ATOM     28  C   UNL     1      48.856   7.220  16.748  0.00  0.00    +0.000 A 
ATOM     29  C   UNL     1      48.897   8.482  16.007  0.00  0.00    +0.000 A 
BRANCH  21  31
ATOM     30  C   UNL     1      49.510   7.406  13.001  0.00  0.00    +0.000 C 
ATOM     31  O   UNL     1      48.387   7.931  13.705  0.00  0.00    +0.000 OA
ENDBRANCH  21  31
ENDBRANCH  17  28
ENDBRANCH   1  19
TORSDOF 8
ENDMDL
MODEL 4
REMARK VINA RESULT:    -7.696      1.522      2.351
REMARK INTER + INTRA:         -12.424
REMARK INTER:                 -11.145
REMARK INTRA:                  -1.279
REMARK UNBOUND:                -1.128
REMARK  Name = 
REMARK  9 active torsions:
REMARK  status: ('A' for Active; 'I' for Inactive)
REMARK    1  A    between atoms: C_1  and  O_2
REMARK    2  A    between atoms: O_2  and  C_3
REMARK    3  A    between atoms: C_10  and  C_11
REMARK    4  A    between atoms: N_13  and  C_14
REMARK    5  A    between atoms: C_14  and  C_15
REMARK    6  A    between atoms: C_18  and  C_19
REMARK    7  A    between atoms: C_19  and  C_20
REMARK    8  A    between atoms: C_20  and  C_21
REMARK    9  A    between atoms: C_21  and  C_22
REMARK                            x       y       z     vdW  Elec       q    Type
REMARK                         _______ _______ _______ _____ _____    ______ ____
ROOT
ATOM      1  C   UNL     1      47.552   4.291  14.992  0.00  0.00    +0.000 C 
ENDROOT
BRANCH   1   2
ATOM      2  C   UNL     1      46.619   4.408  13.813  0.00  0.00    +0.000 A 
ATOM      3  C   UNL     1      46.153   5.661  13.390  0.00  0.00    +0.000 A 
ATOM      4  C   UNL     1      45.281   5.767  12.300  0.00  0.00    +0.000 A 
ATOM      5  C   UNL     1      44.854   4.624  11.612  0.00  0.00    +0.000 A 
ATOM      6  C   UNL     1      45.291   3.371  12.060  0.00  0.00    +0.000 A 
ATOM      7  C   UNL     1      46.160   3.263  13.150  0.00  0.00    +0.000 A 
BRANCH   5   8
ATOM      8  C   UNL     1      43.926   4.725  10.425  0.00  0.00    +0.000 C 
BRANCH   8   9
ATOM      9  C   UNL     1      44.234   3.753   9.279  0.00  0.00    +0.000 C 
BRANCH   9  10
ATOM     10  C   UNL     1      45.308   4.267   8.314  0.00  0.00    +0.000 C 
BRANCH  10  11
ATOM     11  C   UNL     1      46.157   3.140   7.779  0.00  0.00    +0.000 A 
ATOM     12  C   UNL     1      45.970   1.834   8.241  0.00  0.00    +0.000 A 
ATOM     13  C   UNL     1      46.780   0.826   7.741  0.00  0.00    +0.000 A 
ATOM     14  N   UNL     1      47.754   1.028   6.829  0.00  0.00    +0.000 NA
ATOM     15  C   UNL     1      47.921   2.298   6.397  0.00  0.00    +0.000 A 
ATOM     16  C   UNL     1      47.162   3.372   6.836  0.00  0.00    +0.000 A 
ENDBRANCH  10  11
ENDBRANCH   9  10
ENDBRANCH   8   9
ENDBRANCH   5   8
ENDBRANCH   1   2
BRANCH   1  19
ATOM     17  C   UNL     1      48.632   5.935  16.477  0.00  0.00    +0.000 C 
ATOM     18  O   UNL     1      49.690   5.312  16.464  0.00  0.00    +0.000 OA
ATOM     19  N   UNL     1      47.539   5.494  15.782  0.00  0.00    +0.000 N 
ATOM     20  H   UNL     1      46.655   5.976  15.872  0.00  0.00    +0.000 HD
BRANCH  17  28
ATOM     21  C   UNL     1      47.802   6.651  19.741  0.00  0.00    +0.000 A 
ATOM     22  N   UNL     1      47.484   7.206  20.931  0.00  0.00    +0.000 NA
ATOM     23  C   UNL     1      47.473   8.538  21.017  0.00  0.00    +0.000 A 
ATOM     24  N   UNL     1      47.748   9.406  20.048  0.00  0.00    +0.000 NA
ATOM     25  C   UNL     1      48.064   8.813  18.884  0.00  0.00    +0.000 A 
ATOM     26  S   UNL     1      48.451   9.770  17.536  0.00  0.00    +0.000 S 
ATOM     27  C   UNL     1      48.693   8.395  16.567  0.00  0.00    +0.000 A 
ATOM     28  C   UNL     1      48.485   7.192  17.233  0.00  0.00    +0.000 A 
ATOM     29  C   UNL     1      48.119   7.448  18.627  0.00  0.00    +0.000 A 
BRANCH  21  31
ATOM     30  C   UNL     1      49.145   4.753  20.017  0.00  0.00    +0.000 C 
ATOM     31  O   UNL     1      47.865   5.276  19.669  0.00  0.00    +0.000 OA
ENDBRANCH  21  31
ENDBRANCH  17  28
ENDBRANCH   1  19
TORSDOF 8
ENDMDL
MODEL 5
REMARK VINA RESULT:    -7.609      1.513      3.032
REMARK INTER + INTRA:         -12.295
REMARK INTER:                 -10.907
REMARK INTRA:                  -1.388
REMARK UNBOUND:                -1.128
REMARK  Name = 
REMARK  9 active torsions:
REMARK  status: ('A' for Active; 'I' for Inactive)
REMARK    1  A    between atoms: C_1  and  O_2
REMARK    2  A    between atoms: O_2  and  C_3
REMARK    3  A    between atoms: C_10  and  C_11
REMARK    4  A    between atoms: N_13  and  C_14
REMARK    5  A    between atoms: C_14  and  C_15
REMARK    6  A    between atoms: C_18  and  C_19
REMARK    7  A    between atoms: C_19  and  C_20
REMARK    8  A    between atoms: C_20  and  C_21
REMARK    9  A    between atoms: C_21  and  C_22
REMARK                            x       y       z     vdW  Elec       q    Type
REMARK                         _______ _______ _______ _____ _____    ______ ____
ROOT
ATOM      1  C   UNL     1      47.466   3.929  15.375  0.00  0.00    +0.000 C 
ENDROOT
BRANCH   1   2
ATOM      2  C   UNL     1      46.771   4.307  14.092  0.00  0.00    +0.000 A 
ATOM      3  C   UNL     1      46.236   3.320  13.251  0.00  0.00    +0.000 A 
ATOM      4  C   UNL     1      45.597   3.671  12.056  0.00  0.00    +0.000 A 
ATOM      5  C   UNL     1      45.482   5.015  11.675  0.00  0.00    +0.000 A 
ATOM      6  C   UNL     1      46.050   5.996  12.498  0.00  0.00    +0.000 A 
ATOM      7  C   UNL     1      46.691   5.646  13.690  0.00  0.00    +0.000 A 
BRANCH   5   8
ATOM      8  C   UNL     1      44.781   5.409  10.396  0.00  0.00    +0.000 C 
BRANCH   8   9
ATOM      9  C   UNL     1      45.519   5.020   9.108  0.00  0.00    +0.000 C 
BRANCH   9  10
ATOM     10  C   UNL     1      44.867   3.853   8.360  0.00  0.00    +0.000 C 
BRANCH  10  11
ATOM     11  C   UNL     1      45.900   2.894   7.822  0.00  0.00    +0.000 A 
ATOM     12  C   UNL     1      46.833   3.321   6.872  0.00  0.00    +0.000 A 
ATOM     13  C   UNL     1      47.757   2.408   6.386  0.00  0.00    +0.000 A 
ATOM     14  N   UNL     1      47.810   1.116   6.771  0.00  0.00    +0.000 NA
ATOM     15  C   UNL     1      46.897   0.722   7.686  0.00  0.00    +0.000 A 
ATOM     16  C   UNL     1      45.935   1.558   8.232  0.00  0.00    +0.000 A 
ENDBRANCH  10  11
ENDBRANCH   9  10
ENDBRANCH   8   9
ENDBRANCH   5   8
ENDBRANCH   1   2
BRANCH   1  19
ATOM     17  C   UNL     1      48.723   5.316  16.980  0.00  0.00    +0.000 C 
ATOM     18  O   UNL     1      49.693   4.563  16.932  0.00  0.00    +0.000 OA
ATOM     19  N   UNL     1      47.594   5.068  16.247  0.00  0.00    +0.000 N 
ATOM     20  H   UNL     1      46.779   5.653  16.363  0.00  0.00    +0.000 HD
BRANCH  17  28
ATOM     21  C   UNL     1      48.662   8.685  16.275  0.00  0.00    +0.000 A 
ATOM     22  N   UNL     1      48.671  10.036  16.283  0.00  0.00    +0.000 NA
ATOM     23  C   UNL     1      48.732  10.653  17.465  0.00  0.00    +0.000 A 
ATOM     24  N   UNL     1      48.782  10.083  18.666  0.00  0.00    +0.000 NA
ATOM     25  C   UNL     1      48.766   8.740  18.612  0.00  0.00    +0.000 A 
ATOM     26  S   UNL     1      48.818   7.846  20.054  0.00  0.00    +0.000 S 
ATOM     27  C   UNL     1      48.776   6.375  19.201  0.00  0.00    +0.000 A 
ATOM     28  C   UNL     1      48.726   6.527  17.820  0.00  0.00    +0.000 A 
ATOM     29  C   UNL     1      48.708   7.948  17.471  0.00  0.00    +0.000 A 
BRANCH  21  31
ATOM     30  C   UNL     1      49.801   7.813  14.424  0.00  0.00    +0.000 C 
ATOM     31  O   UNL     1      48.545   8.050  15.057  0.00  0.00    +0.000 OA
ENDBRANCH  21  31
ENDBRANCH  17  28
ENDBRANCH   1  19
TORSDOF 8
ENDMDL
MODEL 6
REMARK VINA RESULT:    -7.496      1.864      2.555
REMARK INTER + INTRA:         -12.130
REMARK INTER:                 -10.816
REMARK INTRA:                  -1.314
REMARK UNBOUND:                -1.128
REMARK  Name = 
REMARK  9 active torsions:
REMARK  status: ('A' for Active; 'I' for Inactive)
REMARK    1  A    between atoms: C_1  and  O_2
REMARK    2  A    between atoms: O_2  and  C_3
REMARK    3  A    between atoms: C_10  and  C_11
REMARK    4  A    between atoms: N_13  and  C_14
REMARK    5  A    between atoms: C_14  and  C_15
REMARK    6  A    between atoms: C_18  and  C_19
REMARK    7  A    between atoms: C_19  and  C_20
REMARK    8  A    between atoms: C_20  and  C_21
REMARK    9  A    between atoms: C_21  and  C_22
REMARK                            x       y       z     vdW  Elec       q    Type
REMARK                         _______ _______ _______ _____ _____    ______ ____
ROOT
ATOM      1  C   UNL     1      47.264   3.961  15.386  0.00  0.00    +0.000 C 
ENDROOT
BRANCH   1   2
ATOM      2  C   UNL     1      46.728   4.443  14.062  0.00  0.00    +0.000 A 
ATOM      3  C   UNL     1      46.977   5.750  13.621  0.00  0.00    +0.000 A 
ATOM      4  C   UNL     1      46.472   6.198  12.395  0.00  0.00    +0.000 A 
ATOM      5  C   UNL     1      45.706   5.350  11.584  0.00  0.00    +0.000 A 
ATOM      6  C   UNL     1      45.427   4.057  12.044  0.00  0.00    +0.000 A 
ATOM      7  C   UNL     1      45.929   3.609  13.269  0.00  0.00    +0.000 A 
BRANCH   5   8
ATOM      8  C   UNL     1      45.169   5.815  10.251  0.00  0.00    +0.000 C 
BRANCH   8   9
ATOM      9  C   UNL     1      45.863   5.206   9.026  0.00  0.00    +0.000 C 
BRANCH   9  10
ATOM     10  C   UNL     1      45.060   4.081   8.365  0.00  0.00    +0.000 C 
BRANCH  10  11
ATOM     11  C   UNL     1      45.964   3.037   7.759  0.00  0.00    +0.000 A 
ATOM     12  C   UNL     1      46.724   3.335   6.623  0.00  0.00    +0.000 A 
ATOM     13  C   UNL     1      47.531   2.346   6.081  0.00  0.00    +0.000 A 
ATOM     14  N   UNL     1      47.627   1.097   6.582  0.00  0.00    +0.000 NA
ATOM     15  C   UNL     1      46.882   0.828   7.677  0.00  0.00    +0.000 A 
ATOM     16  C   UNL     1      46.047   1.748   8.292  0.00  0.00    +0.000 A 
ENDBRANCH  10  11
ENDBRANCH   9  10
ENDBRANCH   8   9
ENDBRANCH   5   8
ENDBRANCH   1   2
BRANCH   1  19
ATOM     17  C   UNL     1      47.755   5.207  17.456  0.00  0.00    +0.000 C 
ATOM     18  O   UNL     1      47.059   4.447  18.125  0.00  0.00    +0.000 OA
ATOM     19  N   UNL     1      47.901   5.033  16.106  0.00  0.00    +0.000 N 
ATOM     20  H   UNL     1      48.410   5.715  15.561  0.00  0.00    +0.000 HD
BRANCH  17  28
ATOM     21  C   UNL     1      51.089   6.025  17.719  0.00  0.00    +0.000 A 
ATOM     22  N   UNL     1      52.299   6.563  17.986  0.00  0.00    +0.000 NA
ATOM     23  C   UNL     1      52.338   7.695  18.693  0.00  0.00    +0.000 A 
ATOM     24  N   UNL     1      51.302   8.375  19.175  0.00  0.00    +0.000 NA
ATOM     25  C   UNL     1      50.118   7.809  18.882  0.00  0.00    +0.000 A 
ATOM     26  S   UNL     1      48.685   8.547  19.413  0.00  0.00    +0.000 S 
ATOM     27  C   UNL     1      47.736   7.324  18.711  0.00  0.00    +0.000 A 
ATOM     28  C   UNL     1      48.476   6.337  18.069  0.00  0.00    +0.000 A 
ATOM     29  C   UNL     1      49.905   6.638  18.163  0.00  0.00    +0.000 A 
BRANCH  21  31
ATOM     30  C   UNL     1      51.097   3.683  17.709  0.00  0.00    +0.000 C 
ATOM     31  O   UNL     1      51.048   4.886  16.944  0.00  0.00    +0.000 OA
ENDBRANCH  21  31
ENDBRANCH  17  28
ENDBRANCH   1  19
TORSDOF 8
ENDMDL
MODEL 7
REMARK VINA RESULT:    -7.144      1.989      2.574
REMARK INTER + INTRA:         -11.613
REMARK INTER:                 -10.609
REMARK INTRA:                  -1.004
REMARK UNBOUND:                -1.128
REMARK  Name = 
REMARK  9 active torsions:
REMARK  status: ('A' for Active; 'I' for Inactive)
REMARK    1  A    between atoms: C_1  and  O_2
REMARK    2  A    between atoms: O_2  and  C_3
REMARK    3  A    between atoms: C_10  and  C_11
REMARK    4  A    between atoms: N_13  and  C_14
REMARK    5  A    between atoms: C_14  and  C_15
REMARK    6  A    between atoms: C_18  and  C_19
REMARK    7  A    between atoms: C_19  and  C_20
REMARK    8  A    between atoms: C_20  and  C_21
REMARK    9  A    between atoms: C_21  and  C_22
REMARK                            x       y       z     vdW  Elec       q    Type
REMARK                         _______ _______ _______ _____ _____    ______ ____
ROOT
ATOM      1  C   UNL     1      46.783   8.143  13.269  0.00  0.00    +0.000 C 
ENDROOT
BRANCH   1   2
ATOM      2  C   UNL     1      46.097   6.949  12.656  0.00  0.00    +0.000 A 
ATOM      3  C   UNL     1      46.470   5.646  13.015  0.00  0.00    +0.000 A 
ATOM      4  C   UNL     1      45.836   4.538  12.440  0.00  0.00    +0.000 A 
ATOM      5  C   UNL     1      44.819   4.709  11.491  0.00  0.00    +0.000 A 
ATOM      6  C   UNL     1      44.474   6.011  11.107  0.00  0.00    +0.000 A 
ATOM      7  C   UNL     1      45.107   7.118  11.679  0.00  0.00    +0.000 A 
BRANCH   5   8
ATOM      8  C   UNL     1      44.116   3.523  10.874  0.00  0.00    +0.000 C 
BRANCH   8   9
ATOM      9  C   UNL     1      44.053   3.535   9.341  0.00  0.00    +0.000 C 
BRANCH   9  10
ATOM     10  C   UNL     1      45.297   4.141   8.684  0.00  0.00    +0.000 C 
BRANCH  10  11
ATOM     11  C   UNL     1      46.138   3.086   8.010  0.00  0.00    +0.000 A 
ATOM     12  C   UNL     1      45.973   1.736   8.336  0.00  0.00    +0.000 A 
ATOM     13  C   UNL     1      46.775   0.794   7.710  0.00  0.00    +0.000 A 
ATOM     14  N   UNL     1      47.720   1.100   6.797  0.00  0.00    +0.000 NA
ATOM     15  C   UNL     1      47.867   2.410   6.498  0.00  0.00    +0.000 A 
ATOM     16  C   UNL     1      47.114   3.425   7.069  0.00  0.00    +0.000 A 
ENDBRANCH  10  11
ENDBRANCH   9  10
ENDBRANCH   8   9
ENDBRANCH   5   8
ENDBRANCH   1   2
BRANCH   1  19
ATOM     17  C   UNL     1      48.618   8.267  14.911  0.00  0.00    +0.000 C 
ATOM     18  O   UNL     1      47.972   9.022  15.635  0.00  0.00    +0.000 OA
ATOM     19  N   UNL     1      48.102   7.798  13.734  0.00  0.00    +0.000 N 
ATOM     20  H   UNL     1      48.678   7.246  13.115  0.00  0.00    +0.000 HD
BRANCH  17  28
ATOM     21  C   UNL     1      49.822   5.768  16.950  0.00  0.00    +0.000 A 
ATOM     22  N   UNL     1      50.551   4.904  17.689  0.00  0.00    +0.000 NA
ATOM     23  C   UNL     1      51.880   5.016  17.651  0.00  0.00    +0.000 A 
ATOM     24  N   UNL     1      52.591   5.897  16.953  0.00  0.00    +0.000 NA
ATOM     25  C   UNL     1      51.827   6.733  16.228  0.00  0.00    +0.000 A 
ATOM     26  S   UNL     1      52.568   7.921  15.268  0.00  0.00    +0.000 S 
ATOM     27  C   UNL     1      51.062   8.504  14.739  0.00  0.00    +0.000 A 
ATOM     28  C   UNL     1      49.975   7.822  15.275  0.00  0.00    +0.000 A 
ATOM     29  C   UNL     1      50.439   6.752  16.159  0.00  0.00    +0.000 A 
BRANCH  21  31
ATOM     30  C   UNL     1      48.031   4.309  16.565  0.00  0.00    +0.000 C 
ATOM     31  O   UNL     1      48.451   5.616  16.948  0.00  0.00    +0.000 OA
ENDBRANCH  21  31
ENDBRANCH  17  28
ENDBRANCH   1  19
TORSDOF 8
ENDMDL
MODEL 8
REMARK VINA RESULT:    -7.031      3.543      5.436
REMARK INTER + INTRA:         -11.448
REMARK INTER:                  -9.840
REMARK INTRA:                  -1.608
REMARK UNBOUND:                -1.128
REMARK  Name = 
REMARK  9 active torsions:
REMARK  status: ('A' for Active; 'I' for Inactive)
REMARK    1  A    between atoms: C_1  and  O_2
REMARK    2  A    between atoms: O_2  and  C_3
REMARK    3  A    between atoms: C_10  and  C_11
REMARK    4  A    between atoms: N_13  and  C_14
REMARK    5  A    between atoms: C_14  and  C_15
REMARK    6  A    between atoms: C_18  and  C_19
REMARK    7  A    between atoms: C_19  and  C_20
REMARK    8  A    between atoms: C_20  and  C_21
REMARK    9  A    between atoms: C_21  and  C_22
REMARK                            x       y       z     vdW  Elec       q    Type
REMARK                         _______ _______ _______ _____ _____    ______ ____
ROOT
ATOM      1  C   UNL     1      47.953   3.500  17.517  0.00  0.00    +0.000 C 
ENDROOT
BRANCH   1   2
ATOM      2  C   UNL     1      47.818   4.335  16.269  0.00  0.00    +0.000 A 
ATOM      3  C   UNL     1      47.125   3.847  15.152  0.00  0.00    +0.000 A 
ATOM      4  C   UNL     1      47.007   4.620  13.992  0.00  0.00    +0.000 A 
ATOM      5  C   UNL     1      47.581   5.897  13.922  0.00  0.00    +0.000 A 
ATOM      6  C   UNL     1      48.304   6.367  15.025  0.00  0.00    +0.000 A 
ATOM      7  C   UNL     1      48.425   5.594  16.184  0.00  0.00    +0.000 A 
BRANCH   5   8
ATOM      8  C   UNL     1      47.447   6.749  12.682  0.00  0.00    +0.000 C 
BRANCH   8   9
ATOM      9  C   UNL     1      46.008   6.953  12.190  0.00  0.00    +0.000 C 
BRANCH   9  10
ATOM     10  C   UNL     1      45.730   6.306  10.830  0.00  0.00    +0.000 C 
BRANCH  10  11
ATOM     11  C   UNL     1      44.886   5.064  10.969  0.00  0.00    +0.000 A 
ATOM     12  C   UNL     1      44.065   4.890  12.088  0.00  0.00    +0.000 A 
ATOM     13  C   UNL     1      43.316   3.727  12.193  0.00  0.00    +0.000 A 
ATOM     14  N   UNL     1      43.333   2.738  11.276  0.00  0.00    +0.000 NA
ATOM     15  C   UNL     1      44.136   2.924  10.204  0.00  0.00    +0.000 A 
ATOM     16  C   UNL     1      44.920   4.050  10.009  0.00  0.00    +0.000 A 
ENDBRANCH  10  11
ENDBRANCH   9  10
ENDBRANCH   8   9
ENDBRANCH   5   8
ENDBRANCH   1   2
BRANCH   1  19
ATOM     17  C   UNL     1      50.086   2.330  17.116  0.00  0.00    +0.000 C 
ATOM     18  O   UNL     1      49.603   1.684  16.190  0.00  0.00    +0.000 OA
ATOM     19  N   UNL     1      49.337   3.237  17.816  0.00  0.00    +0.000 N 
ATOM     20  H   UNL     1      49.728   3.698  18.625  0.00  0.00    +0.000 HD
BRANCH  17  28
ATOM     21  C   UNL     1      52.621   4.561  17.786  0.00  0.00    +0.000 A 
ATOM     22  N   UNL     1      53.777   5.198  18.073  0.00  0.00    +0.000 NA
ATOM     23  C   UNL     1      54.851   4.453  18.347  0.00  0.00    +0.000 A 
ATOM     24  N   UNL     1      54.918   3.125  18.376  0.00  0.00    +0.000 NA
ATOM     25  C   UNL     1      53.746   2.531  18.092  0.00  0.00    +0.000 A 
ATOM     26  S   UNL     1      53.646   0.837  18.090  0.00  0.00    +0.000 S 
ATOM     27  C   UNL     1      52.000   0.885  17.668  0.00  0.00    +0.000 A 
ATOM     28  C   UNL     1      51.495   2.172  17.517  0.00  0.00    +0.000 A 
ATOM     29  C   UNL     1      52.543   3.157  17.784  0.00  0.00    +0.000 A 
BRANCH  21  31
ATOM     30  C   UNL     1      51.212   6.234  18.622  0.00  0.00    +0.000 C 
ATOM     31  O   UNL     1      51.502   5.332  17.556  0.00  0.00    +0.000 OA
ENDBRANCH  21  31
ENDBRANCH  17  28
ENDBRANCH   1  19
TORSDOF 8
ENDMDL
MODEL 9
REMARK VINA RESULT:    -7.027      4.876      9.176
REMARK INTER + INTRA:         -11.441
REMARK INTER:                 -10.336
REMARK INTRA:                  -1.105
REMARK UNBOUND:                -1.128
REMARK  Name = 
REMARK  9 active torsions:
REMARK  status: ('A' for Active; 'I' for Inactive)
REMARK    1  A    between atoms: C_1  and  O_2
REMARK    2  A    between atoms: O_2  and  C_3
REMARK    3  A    between atoms: C_10  and  C_11
REMARK    4  A    between atoms: N_13  and  C_14
REMARK    5  A    between atoms: C_14  and  C_15
REMARK    6  A    between atoms: C_18  and  C_19
REMARK    7  A    between atoms: C_19  and  C_20
REMARK    8  A    between atoms: C_20  and  C_21
REMARK    9  A    between atoms: C_21  and  C_22
REMARK                            x       y       z     vdW  Elec       q    Type
REMARK                         _______ _______ _______ _____ _____    ______ ____
ROOT
ATOM      1  C   UNL     1      47.260   3.295  16.820  0.00  0.00    +0.000 C 
ENDROOT
BRANCH   1   2
ATOM      2  C   UNL     1      48.737   3.304  17.123  0.00  0.00    +0.000 A 
ATOM      3  C   UNL     1      49.502   2.137  16.988  0.00  0.00    +0.000 A 
ATOM      4  C   UNL     1      50.872   2.144  17.277  0.00  0.00    +0.000 A 
ATOM      5  C   UNL     1      51.505   3.318  17.710  0.00  0.00    +0.000 A 
ATOM      6  C   UNL     1      50.731   4.472  17.879  0.00  0.00    +0.000 A 
ATOM      7  C   UNL     1      49.362   4.465  17.594  0.00  0.00    +0.000 A 
BRANCH   5   8
ATOM      8  C   UNL     1      52.985   3.344  18.009  0.00  0.00    +0.000 C 
BRANCH   8   9
ATOM      9  C   UNL     1      53.603   1.977  18.333  0.00  0.00    +0.000 C 
BRANCH   9  10
ATOM     10  C   UNL     1      54.496   1.430  17.214  0.00  0.00    +0.000 C 
BRANCH  10  11
ATOM     11  C   UNL     1      54.620  -0.071  17.289  0.00  0.00    +0.000 A 
ATOM     12  C   UNL     1      54.999  -0.806  16.161  0.00  0.00    +0.000 A 
ATOM     13  C   UNL     1      55.087  -2.186  16.261  0.00  0.00    +0.000 A 
ATOM     14  N   UNL     1      54.821  -2.876  17.391  0.00  0.00    +0.000 NA
ATOM     15  C   UNL     1      54.452  -2.148  18.468  0.00  0.00    +0.000 A 
ATOM     16  C   UNL     1      54.337  -0.766  18.468  0.00  0.00    +0.000 A 
ENDBRANCH  10  11
ENDBRANCH   9  10
ENDBRANCH   8   9
ENDBRANCH   5   8
ENDBRANCH   1   2
BRANCH   1  19
ATOM     17  C   UNL     1      46.931   4.176  14.541  0.00  0.00    +0.000 C 
ATOM     18  O   UNL     1      47.249   3.102  14.037  0.00  0.00    +0.000 OA
ATOM     19  N   UNL     1      46.916   4.347  15.899  0.00  0.00    +0.000 N 
ATOM     20  H   UNL     1      46.731   5.260  16.291  0.00  0.00    +0.000 HD
BRANCH  17  28
ATOM     21  C   UNL     1      44.171   4.879  12.607  0.00  0.00    +0.000 A 
ATOM     22  N   UNL     1      43.237   5.391  11.776  0.00  0.00    +0.000 NA
ATOM     23  C   UNL     1      43.473   6.587  11.231  0.00  0.00    +0.000 A 
ATOM     24  N   UNL     1      44.542   7.355  11.416  0.00  0.00    +0.000 NA
ATOM     25  C   UNL     1      45.443   6.811  12.254  0.00  0.00    +0.000 A 
ATOM     26  S   UNL     1      46.870   7.658  12.610  0.00  0.00    +0.000 S 
ATOM     27  C   UNL     1      47.416   6.410  13.627  0.00  0.00    +0.000 A 
ATOM     28  C   UNL     1      46.540   5.332  13.714  0.00  0.00    +0.000 A 
ATOM     29  C   UNL     1      45.352   5.583  12.898  0.00  0.00    +0.000 A 
BRANCH  21  31
ATOM     30  C   UNL     1      43.547   2.645  12.283  0.00  0.00    +0.000 C 
ATOM     31  O   UNL     1      43.901   3.669  13.211  0.00  0.00    +0.000 OA
ENDBRANCH  21  31
ENDBRANCH  17  28
ENDBRANCH   1  19
TORSDOF 8
ENDMDL
