MODEL 1
REMARK VINA RESULT:    -8.144      0.000      0.000
REMARK INTER + INTRA:         -11.522
REMARK INTER:                 -11.239
REMARK INTRA:                  -0.282
REMARK UNBOUND:                -0.282
REMARK  Name = 
REMARK  9 active torsions:
REMARK  status: ('A' for Active; 'I' for Inactive)
REMARK    1  A    between atoms: C_1  and  N_2
REMARK    2  A    between atoms: C_8  and  C_9
REMARK    3  A    between atoms: C_9  and  C_10
REMARK    4  A    between atoms: C_10  and  N_11
REMARK    5  A    between atoms: N_11  and  C_12
REMARK    6  A    between atoms: C_15  and  C_16
REMARK    7  A    between atoms: C_16  and  C_17
REMARK    8  A    between atoms: C_16  and  O_18
REMARK    9  A    between atoms: C_16  and  C_19
REMARK                            x       y       z     vdW  Elec       q    Type
REMARK                         _______ _______ _______ _____ _____    ______ ____
ROOT
ATOM      1  N   UNL     1      47.458   7.324  13.068  0.00  0.00    +0.000 N 
ATOM      2  H   UNL     1      48.304   7.854  12.875  0.00  0.00    +0.000 HD
ENDROOT
BRANCH   1   3
ATOM      3  C   UNL     1      47.653   6.355  14.057  0.00  0.00    +0.000 A 
ATOM      4  C   UNL     1      46.985   5.130  14.087  0.00  0.00    +0.000 A 
ATOM      5  C   UNL     1      47.134   4.237  15.156  0.00  0.00    +0.000 A 
ATOM      6  C   UNL     1      47.937   4.554  16.260  0.00  0.00    +0.000 A 
ATOM      7  C   UNL     1      48.610   5.787  16.236  0.00  0.00    +0.000 A 
ATOM      8  C   UNL     1      48.458   6.671  15.157  0.00  0.00    +0.000 A 
BRANCH   6   9
ATOM      9  C   UNL     1      48.045   3.618  17.466  0.00  0.00    +0.000 C 
ATOM     10  C   UNL     1      49.039   2.487  17.161  0.00  0.00    +0.000 C 
BRANCH   9  11
ATOM     11  C   UNL     1      48.458   4.377  18.778  0.00  0.00    +0.000 C 
ATOM     12  F   UNL     1      47.733   5.488  19.030  0.00  0.00    +0.000 F 
ATOM     13  F   UNL     1      48.320   3.562  19.857  0.00  0.00    +0.000 F 
ATOM     14  F   UNL     1      49.760   4.753  18.751  0.00  0.00    +0.000 F 
ENDBRANCH   9  11
BRANCH   9  15
ATOM     15  O   UNL     1      46.773   2.935  17.646  0.00  0.00    +0.000 OA
ATOM     16  H   UNL     1      46.798   2.126  17.103  0.00  0.00    +0.000 HD
ENDBRANCH   9  15
ENDBRANCH   6   9
ENDBRANCH   1   3
BRANCH   1  17
ATOM     17  C   UNL     1      46.631   7.018  11.903  0.00  0.00    +0.000 C 
BRANCH  17  18
ATOM     18  C   UNL     1      45.172   6.815  12.314  0.00  0.00    +0.000 C 
BRANCH  18  26
ATOM     19  C   UNL     1      47.930   1.791   6.142  0.00  0.00    +0.000 C 
ATOM     20  N   UNL     1      46.658   2.138   6.776  0.00  0.00    +0.000 NA
ATOM     21  C   UNL     1      46.459   1.356   8.024  0.00  0.00    +0.000 C 
ATOM     22  C   UNL     1      45.158   1.745   8.786  0.00  0.00    +0.000 C 
ATOM     23  N   UNL     1      45.234   3.181   9.050  0.00  0.00    +0.000 N 
ATOM     24  C   UNL     1      44.623   3.728  10.162  0.00  0.00    +0.000 A 
ATOM     25  C   UNL     1      45.136   4.926  10.665  0.00  0.00    +0.000 A 
ATOM     26  C   UNL     1      44.596   5.521  11.802  0.00  0.00    +0.000 A 
ATOM     27  C   UNL     1      43.543   4.868  12.435  0.00  0.00    +0.000 A 
ATOM     28  C   UNL     1      43.088   3.677  11.892  0.00  0.00    +0.000 A 
ATOM     29  N   UNL     1      43.615   3.089  10.789  0.00  0.00    +0.000 NA
ATOM     30  C   UNL     1      45.331   3.995   7.834  0.00  0.00    +0.000 C 
ATOM     31  C   UNL     1      46.620   3.587   7.086  0.00  0.00    +0.000 C 
ENDBRANCH  18  26
ENDBRANCH  17  18
ENDBRANCH   1  17
TORSDOF 7
ENDMDL
MODEL 2
REMARK VINA RESULT:    -7.628      1.810      2.337
REMARK INTER + INTRA:         -10.809
REMARK INTER:                 -10.046
REMARK INTRA:                  -0.763
REMARK UNBOUND:                -0.282
REMARK  Name = 
REMARK  9 active torsions:
REMARK  status: ('A' for Active; 'I' for Inactive)
REMARK    1  A    between atoms: C_1  and  N_2
REMARK    2  A    between atoms: C_8  and  C_9
REMARK    3  A    between atoms: C_9  and  C_10
REMARK    4  A    between atoms: C_10  and  N_11
REMARK    5  A    between atoms: N_11  and  C_12
REMARK    6  A    between atoms: C_15  and  C_16
REMARK    7  A    between atoms: C_16  and  C_17
REMARK    8  A    between atoms: C_16  and  O_18
REMARK    9  A    between atoms: C_16  and  C_19
REMARK                            x       y       z     vdW  Elec       q    Type
REMARK                         _______ _______ _______ _____ _____    ______ ____
ROOT
ATOM      1  N   UNL     1      46.578   5.065  14.505  0.00  0.00    +0.000 N 
ATOM      2  H   UNL     1      45.646   4.929  14.888  0.00  0.00    +0.000 HD
ENDROOT
BRANCH   1   3
ATOM      3  C   UNL     1      47.571   4.980  15.486  0.00  0.00    +0.000 A 
ATOM      4  C   UNL     1      47.624   3.975  16.452  0.00  0.00    +0.000 A 
ATOM      5  C   UNL     1      48.576   3.993  17.479  0.00  0.00    +0.000 A 
ATOM      6  C   UNL     1      49.497   5.043  17.599  0.00  0.00    +0.000 A 
ATOM      7  C   UNL     1      49.446   6.058  16.630  0.00  0.00    +0.000 A 
ATOM      8  C   UNL     1      48.491   6.028  15.602  0.00  0.00    +0.000 A 
BRANCH   6   9
ATOM      9  C   UNL     1      50.491   5.108  18.761  0.00  0.00    +0.000 C 
ATOM     10  C   UNL     1      49.785   4.731  20.073  0.00  0.00    +0.000 C 
BRANCH   9  11
ATOM     11  C   UNL     1      51.746   4.192  18.527  0.00  0.00    +0.000 C 
ATOM     12  F   UNL     1      51.452   2.934  18.135  0.00  0.00    +0.000 F 
ATOM     13  F   UNL     1      52.547   4.728  17.567  0.00  0.00    +0.000 F 
ATOM     14  F   UNL     1      52.508   4.091  19.643  0.00  0.00    +0.000 F 
ENDBRANCH   9  11
BRANCH   9  15
ATOM     15  O   UNL     1      50.893   6.492  18.958  0.00  0.00    +0.000 OA
ATOM     16  H   UNL     1      50.129   6.966  19.336  0.00  0.00    +0.000 HD
ENDBRANCH   9  15
ENDBRANCH   6   9
ENDBRANCH   1   3
BRANCH   1  17
ATOM     17  C   UNL     1      46.681   6.070  13.450  0.00  0.00    +0.000 C 
BRANCH  17  18
ATOM     18  C   UNL     1      45.308   6.357  12.841  0.00  0.00    +0.000 C 
BRANCH  18  26
ATOM     19  C   UNL     1      47.968   1.992   6.147  0.00  0.00    +0.000 C 
ATOM     20  N   UNL     1      46.701   2.303   6.810  0.00  0.00    +0.000 NA
ATOM     21  C   UNL     1      46.468   1.390   7.958  0.00  0.00    +0.000 C 
ATOM     22  C   UNL     1      45.173   1.728   8.754  0.00  0.00    +0.000 C 
ATOM     23  N   UNL     1      45.289   3.122   9.181  0.00  0.00    +0.000 N 
ATOM     24  C   UNL     1      44.685   3.556  10.345  0.00  0.00    +0.000 A 
ATOM     25  C   UNL     1      45.229   4.673  10.985  0.00  0.00    +0.000 A 
ATOM     26  C   UNL     1      44.698   5.149  12.181  0.00  0.00    +0.000 A 
ATOM     27  C   UNL     1      43.621   4.461  12.729  0.00  0.00    +0.000 A 
ATOM     28  C   UNL     1      43.135   3.354  12.050  0.00  0.00    +0.000 A 
ATOM     29  N   UNL     1      43.653   2.880  10.890  0.00  0.00    +0.000 NA
ATOM     30  C   UNL     1      45.421   4.066   8.067  0.00  0.00    +0.000 C 
ATOM     31  C   UNL     1      46.704   3.708   7.284  0.00  0.00    +0.000 C 
ENDBRANCH  18  26
ENDBRANCH  17  18
ENDBRANCH   1  17
TORSDOF 7
ENDMDL
MODEL 3
REMARK VINA RESULT:    -7.306      4.862      5.704
REMARK INTER + INTRA:         -10.365
REMARK INTER:                  -9.648
REMARK INTRA:                  -0.717
REMARK UNBOUND:                -0.282
REMARK  Name = 
REMARK  9 active torsions:
REMARK  status: ('A' for Active; 'I' for Inactive)
REMARK    1  A    between atoms: C_1  and  N_2
REMARK    2  A    between atoms: C_8  and  C_9
REMARK    3  A    between atoms: C_9  and  C_10
REMARK    4  A    between atoms: C_10  and  N_11
REMARK    5  A    between atoms: N_11  and  C_12
REMARK    6  A    between atoms: C_15  and  C_16
REMARK    7  A    between atoms: C_16  and  C_17
REMARK    8  A    between atoms: C_16  and  O_18
REMARK    9  A    between atoms: C_16  and  C_19
REMARK                            x       y       z     vdW  Elec       q    Type
REMARK                         _______ _______ _______ _____ _____    ______ ____
ROOT
ATOM      1  N   UNL     1      46.423   8.432  12.398  0.00  0.00    +0.000 N 
ATOM      2  H   UNL     1      46.004   9.349  12.529  0.00  0.00    +0.000 HD
ENDROOT
BRANCH   1   3
ATOM      3  C   UNL     1      47.770   8.511  12.032  0.00  0.00    +0.000 A 
ATOM      4  C   UNL     1      48.650   7.429  12.074  0.00  0.00    +0.000 A 
ATOM      5  C   UNL     1      50.016   7.582  11.800  0.00  0.00    +0.000 A 
ATOM      6  C   UNL     1      50.561   8.838  11.503  0.00  0.00    +0.000 A 
ATOM      7  C   UNL     1      49.679   9.931  11.461  0.00  0.00    +0.000 A 
ATOM      8  C   UNL     1      48.312   9.765  11.733  0.00  0.00    +0.000 A 
BRANCH   6   9
ATOM      9  C   UNL     1      52.063   9.026  11.277  0.00  0.00    +0.000 C 
ATOM     10  C   UNL     1      52.843   8.505  12.493  0.00  0.00    +0.000 C 
BRANCH   9  11
ATOM     11  C   UNL     1      52.561   8.327   9.960  0.00  0.00    +0.000 C 
ATOM     12  F   UNL     1      51.989   7.129   9.715  0.00  0.00    +0.000 F 
ATOM     13  F   UNL     1      52.305   9.116   8.883  0.00  0.00    +0.000 F 
ATOM     14  F   UNL     1      53.902   8.129   9.975  0.00  0.00    +0.000 F 
ENDBRANCH   9  11
BRANCH   9  15
ATOM     15  O   UNL     1      52.359  10.450  11.247  0.00  0.00    +0.000 OA
ATOM     16  H   UNL     1      53.328  10.546  11.211  0.00  0.00    +0.000 HD
ENDBRANCH   9  15
ENDBRANCH   6   9
ENDBRANCH   1   3
BRANCH   1  17
ATOM     17  C   UNL     1      45.557   7.431  11.779  0.00  0.00    +0.000 C 
BRANCH  17  18
ATOM     18  C   UNL     1      45.051   6.434  12.822  0.00  0.00    +0.000 C 
BRANCH  18  26
ATOM     19  C   UNL     1      47.895   2.131   6.164  0.00  0.00    +0.000 C 
ATOM     20  N   UNL     1      46.625   2.352   6.854  0.00  0.00    +0.000 NA
ATOM     21  C   UNL     1      46.500   1.454   8.031  0.00  0.00    +0.000 C 
ATOM     22  C   UNL     1      45.201   1.704   8.853  0.00  0.00    +0.000 C 
ATOM     23  N   UNL     1      45.211   3.113   9.243  0.00  0.00    +0.000 N 
ATOM     24  C   UNL     1      44.602   3.525  10.413  0.00  0.00    +0.000 A 
ATOM     25  C   UNL     1      45.066   4.700  11.011  0.00  0.00    +0.000 A 
ATOM     26  C   UNL     1      44.528   5.162  12.209  0.00  0.00    +0.000 A 
ATOM     27  C   UNL     1      43.527   4.400  12.803  0.00  0.00    +0.000 A 
ATOM     28  C   UNL     1      43.119   3.239  12.166  0.00  0.00    +0.000 A 
ATOM     29  N   UNL     1      43.646   2.780  11.003  0.00  0.00    +0.000 NA
ATOM     30  C   UNL     1      45.233   4.035   8.104  0.00  0.00    +0.000 C 
ATOM     31  C   UNL     1      46.521   3.765   7.294  0.00  0.00    +0.000 C 
ENDBRANCH  18  26
ENDBRANCH  17  18
ENDBRANCH   1  17
TORSDOF 7
ENDMDL
MODEL 4
REMARK VINA RESULT:    -7.101      1.800      2.254
REMARK INTER + INTRA:         -10.082
REMARK INTER:                  -9.316
REMARK INTRA:                  -0.766
REMARK UNBOUND:                -0.282
REMARK  Name = 
REMARK  9 active torsions:
REMARK  status: ('A' for Active; 'I' for Inactive)
REMARK    1  A    between atoms: C_1  and  N_2
REMARK    2  A    between atoms: C_8  and  C_9
REMARK    3  A    between atoms: C_9  and  C_10
REMARK    4  A    between atoms: C_10  and  N_11
REMARK    5  A    between atoms: N_11  and  C_12
REMARK    6  A    between atoms: C_15  and  C_16
REMARK    7  A    between atoms: C_16  and  C_17
REMARK    8  A    between atoms: C_16  and  O_18
REMARK    9  A    between atoms: C_16  and  C_19
REMARK                            x       y       z     vdW  Elec       q    Type
REMARK                         _______ _______ _______ _____ _____    ______ ____
ROOT
ATOM      1  N   UNL     1      47.271   7.436  12.005  0.00  0.00    +0.000 N 
ATOM      2  H   UNL     1      47.878   6.928  11.368  0.00  0.00    +0.000 HD
ENDROOT
BRANCH   1   3
ATOM      3  C   UNL     1      47.666   7.297  13.339  0.00  0.00    +0.000 A 
ATOM      4  C   UNL     1      48.081   8.361  14.141  0.00  0.00    +0.000 A 
ATOM      5  C   UNL     1      48.570   8.157  15.438  0.00  0.00    +0.000 A 
ATOM      6  C   UNL     1      48.695   6.867  15.972  0.00  0.00    +0.000 A 
ATOM      7  C   UNL     1      48.280   5.793  15.169  0.00  0.00    +0.000 A 
ATOM      8  C   UNL     1      47.787   6.009  13.873  0.00  0.00    +0.000 A 
BRANCH   6   9
ATOM      9  C   UNL     1      49.298   6.630  17.360  0.00  0.00    +0.000 C 
ATOM     10  C   UNL     1      48.301   5.859  18.237  0.00  0.00    +0.000 C 
BRANCH   9  11
ATOM     11  C   UNL     1      50.674   5.874  17.292  0.00  0.00    +0.000 C 
ATOM     12  F   UNL     1      51.470   6.071  18.365  0.00  0.00    +0.000 F 
ATOM     13  F   UNL     1      50.469   4.534  17.192  0.00  0.00    +0.000 F 
ATOM     14  F   UNL     1      51.390   6.232  16.198  0.00  0.00    +0.000 F 
ENDBRANCH   9  11
BRANCH   9  15
ATOM     15  O   UNL     1      49.447   7.912  18.031  0.00  0.00    +0.000 OA
ATOM     16  H   UNL     1      49.289   8.609  17.368  0.00  0.00    +0.000 HD
ENDBRANCH   9  15
ENDBRANCH   6   9
ENDBRANCH   1   3
BRANCH   1  17
ATOM     17  C   UNL     1      45.851   7.423  11.662  0.00  0.00    +0.000 C 
BRANCH  17  18
ATOM     18  C   UNL     1      45.057   6.598  12.676  0.00  0.00    +0.000 C 
BRANCH  18  26
ATOM     19  C   UNL     1      47.895   2.063   6.170  0.00  0.00    +0.000 C 
ATOM     20  N   UNL     1      46.622   2.325   6.840  0.00  0.00    +0.000 NA
ATOM     21  C   UNL     1      46.469   1.461   8.040  0.00  0.00    +0.000 C 
ATOM     22  C   UNL     1      45.167   1.756   8.841  0.00  0.00    +0.000 C 
ATOM     23  N   UNL     1      45.197   3.175   9.192  0.00  0.00    +0.000 N 
ATOM     24  C   UNL     1      44.584   3.630  10.344  0.00  0.00    +0.000 A 
ATOM     25  C   UNL     1      45.062   4.814  10.913  0.00  0.00    +0.000 A 
ATOM     26  C   UNL     1      44.519   5.318  12.092  0.00  0.00    +0.000 A 
ATOM     27  C   UNL     1      43.500   4.590  12.697  0.00  0.00    +0.000 A 
ATOM     28  C   UNL     1      43.078   3.419  12.087  0.00  0.00    +0.000 A 
ATOM     29  N   UNL     1      43.609   2.919  10.943  0.00  0.00    +0.000 NA
ATOM     30  C   UNL     1      45.247   4.065   8.028  0.00  0.00    +0.000 C 
ATOM     31  C   UNL     1      46.538   3.750   7.239  0.00  0.00    +0.000 C 
ENDBRANCH  18  26
ENDBRANCH  17  18
ENDBRANCH   1  17
TORSDOF 7
ENDMDL
MODEL 5
REMARK VINA RESULT:    -7.060      4.673      8.292
REMARK INTER + INTRA:         -10.025
REMARK INTER:                  -8.845
REMARK INTRA:                  -1.180
REMARK UNBOUND:                -0.282
REMARK  Name = 
REMARK  9 active torsions:
REMARK  status: ('A' for Active; 'I' for Inactive)
REMARK    1  A    between atoms: C_1  and  N_2
REMARK    2  A    between atoms: C_8  and  C_9
REMARK    3  A    between atoms: C_9  and  C_10
REMARK    4  A    between atoms: C_10  and  N_11
REMARK    5  A    between atoms: N_11  and  C_12
REMARK    6  A    between atoms: C_15  and  C_16
REMARK    7  A    between atoms: C_16  and  C_17
REMARK    8  A    between atoms: C_16  and  O_18
REMARK    9  A    between atoms: C_16  and  C_19
REMARK                            x       y       z     vdW  Elec       q    Type
REMARK                         _______ _______ _______ _____ _____    ______ ____
ROOT
ATOM      1  N   UNL     1      44.966   8.935  12.597  0.00  0.00    +0.000 N 
ATOM      2  H   UNL     1      45.057   9.165  13.583  0.00  0.00    +0.000 HD
ENDROOT
BRANCH   1   3
ATOM      3  C   UNL     1      44.850   7.559  12.382  0.00  0.00    +0.000 A 
ATOM      4  C   UNL     1      45.701   6.610  12.949  0.00  0.00    +0.000 A 
ATOM      5  C   UNL     1      45.612   5.252  12.619  0.00  0.00    +0.000 A 
ATOM      6  C   UNL     1      44.683   4.793  11.675  0.00  0.00    +0.000 A 
ATOM      7  C   UNL     1      43.824   5.744  11.100  0.00  0.00    +0.000 A 
ATOM      8  C   UNL     1      43.919   7.102  11.442  0.00  0.00    +0.000 A 
BRANCH   6   9
ATOM      9  C   UNL     1      44.629   3.323  11.253  0.00  0.00    +0.000 C 
ATOM     10  C   UNL     1      43.242   2.741  11.563  0.00  0.00    +0.000 C 
BRANCH   9  11
ATOM     11  C   UNL     1      44.985   3.123   9.736  0.00  0.00    +0.000 C 
ATOM     12  F   UNL     1      45.717   4.123   9.199  0.00  0.00    +0.000 F 
ATOM     13  F   UNL     1      45.698   1.977   9.566  0.00  0.00    +0.000 F 
ATOM     14  F   UNL     1      43.873   2.994   8.972  0.00  0.00    +0.000 F 
ENDBRANCH   9  11
BRANCH   9  15
ATOM     15  O   UNL     1      45.533   2.559  12.098  0.00  0.00    +0.000 OA
ATOM     16  H   UNL     1      46.386   2.494  11.630  0.00  0.00    +0.000 HD
ENDBRANCH   9  15
ENDBRANCH   6   9
ENDBRANCH   1   3
BRANCH   1  17
ATOM     17  C   UNL     1      45.769   9.749  11.688  0.00  0.00    +0.000 C 
BRANCH  17  18
ATOM     18  C   UNL     1      47.026  10.264  12.390  0.00  0.00    +0.000 C 
BRANCH  18  26
ATOM     19  C   UNL     1      47.761   6.736  20.003  0.00  0.00    +0.000 C 
ATOM     20  N   UNL     1      48.601   6.976  18.829  0.00  0.00    +0.000 NA
ATOM     21  C   UNL     1      48.379   5.929  17.798  0.00  0.00    +0.000 C 
ATOM     22  C   UNL     1      49.186   6.181  16.490  0.00  0.00    +0.000 C 
ATOM     23  N   UNL     1      48.810   7.509  16.008  0.00  0.00    +0.000 N 
ATOM     24  C   UNL     1      48.831   7.802  14.658  0.00  0.00    +0.000 A 
ATOM     25  C   UNL     1      47.996   8.824  14.200  0.00  0.00    +0.000 A 
ATOM     26  C   UNL     1      47.935   9.154  12.848  0.00  0.00    +0.000 A 
ATOM     27  C   UNL     1      48.716   8.415  11.967  0.00  0.00    +0.000 A 
ATOM     28  C   UNL     1      49.515   7.407  12.484  0.00  0.00    +0.000 A 
ATOM     29  N   UNL     1      49.572   7.075  13.798  0.00  0.00    +0.000 NA
ATOM     30  C   UNL     1      49.107   8.583  16.962  0.00  0.00    +0.000 C 
ATOM     31  C   UNL     1      48.306   8.311  18.255  0.00  0.00    +0.000 C 
ENDBRANCH  18  26
ENDBRANCH  17  18
ENDBRANCH   1  17
TORSDOF 7
ENDMDL
MODEL 6
REMARK VINA RESULT:    -7.035      2.431      3.090
REMARK INTER + INTRA:          -9.991
REMARK INTER:                  -9.162
REMARK INTRA:                  -0.829
REMARK UNBOUND:                -0.282
REMARK  Name = 
REMARK  9 active torsions:
REMARK  status: ('A' for Active; 'I' for Inactive)
REMARK    1  A    between atoms: C_1  and  N_2
REMARK    2  A    between atoms: C_8  and  C_9
REMARK    3  A    between atoms: C_9  and  C_10
REMARK    4  A    between atoms: C_10  and  N_11
REMARK    5  A    between atoms: N_11  and  C_12
REMARK    6  A    between atoms: C_15  and  C_16
REMARK    7  A    between atoms: C_16  and  C_17
REMARK    8  A    between atoms: C_16  and  O_18
REMARK    9  A    between atoms: C_16  and  C_19
REMARK                            x       y       z     vdW  Elec       q    Type
REMARK                         _______ _______ _______ _____ _____    ______ ____
ROOT
ATOM      1  N   UNL     1      46.967   5.786  14.236  0.00  0.00    +0.000 N 
ATOM      2  H   UNL     1      46.177   5.618  14.853  0.00  0.00    +0.000 HD
ENDROOT
BRANCH   1   3
ATOM      3  C   UNL     1      48.116   6.164  14.938  0.00  0.00    +0.000 A 
ATOM      4  C   UNL     1      49.087   7.028  14.429  0.00  0.00    +0.000 A 
ATOM      5  C   UNL     1      50.273   7.292  15.127  0.00  0.00    +0.000 A 
ATOM      6  C   UNL     1      50.550   6.670  16.351  0.00  0.00    +0.000 A 
ATOM      7  C   UNL     1      49.577   5.797  16.866  0.00  0.00    +0.000 A 
ATOM      8  C   UNL     1      48.390   5.544  16.162  0.00  0.00    +0.000 A 
BRANCH   6   9
ATOM      9  C   UNL     1      51.876   6.895  17.082  0.00  0.00    +0.000 C 
ATOM     10  C   UNL     1      53.025   6.972  16.066  0.00  0.00    +0.000 C 
BRANCH   9  11
ATOM     11  C   UNL     1      51.851   8.181  17.985  0.00  0.00    +0.000 C 
ATOM     12  F   UNL     1      52.445   8.029  19.188  0.00  0.00    +0.000 F 
ATOM     13  F   UNL     1      52.485   9.208  17.358  0.00  0.00    +0.000 F 
ATOM     14  F   UNL     1      50.584   8.604  18.220  0.00  0.00    +0.000 F 
ENDBRANCH   9  11
BRANCH   9  15
ATOM     15  O   UNL     1      52.180   5.715  17.876  0.00  0.00    +0.000 OA
ATOM     16  H   UNL     1      53.049   5.383  17.584  0.00  0.00    +0.000 HD
ENDBRANCH   9  15
ENDBRANCH   6   9
ENDBRANCH   1   3
BRANCH   1  17
ATOM     17  C   UNL     1      46.645   6.432  12.966  0.00  0.00    +0.000 C 
BRANCH  17  18
ATOM     18  C   UNL     1      45.132   6.458  12.742  0.00  0.00    +0.000 C 
BRANCH  18  26
ATOM     19  C   UNL     1      47.895   2.123   6.071  0.00  0.00    +0.000 C 
ATOM     20  N   UNL     1      46.635   2.341   6.781  0.00  0.00    +0.000 NA
ATOM     21  C   UNL     1      46.535   1.450   7.965  0.00  0.00    +0.000 C 
ATOM     22  C   UNL     1      45.249   1.698   8.808  0.00  0.00    +0.000 C 
ATOM     23  N   UNL     1      45.255   3.111   9.186  0.00  0.00    +0.000 N 
ATOM     24  C   UNL     1      44.664   3.528  10.363  0.00  0.00    +0.000 A 
ATOM     25  C   UNL     1      45.130   4.711  10.944  0.00  0.00    +0.000 A 
ATOM     26  C   UNL     1      44.607   5.178  12.147  0.00  0.00    +0.000 A 
ATOM     27  C   UNL     1      43.622   4.415  12.764  0.00  0.00    +0.000 A 
ATOM     28  C   UNL     1      43.211   3.246  12.142  0.00  0.00    +0.000 A 
ATOM     29  N   UNL     1      43.722   2.781  10.974  0.00  0.00    +0.000 NA
ATOM     30  C   UNL     1      45.253   4.024   8.040  0.00  0.00    +0.000 C 
ATOM     31  C   UNL     1      46.530   3.756   7.211  0.00  0.00    +0.000 C 
ENDBRANCH  18  26
ENDBRANCH  17  18
ENDBRANCH   1  17
TORSDOF 7
ENDMDL
MODEL 7
REMARK VINA RESULT:    -6.969      4.651      8.167
REMARK INTER + INTRA:          -9.900
REMARK INTER:                  -8.534
REMARK INTRA:                  -1.366
REMARK UNBOUND:                -0.282
REMARK  Name = 
REMARK  9 active torsions:
REMARK  status: ('A' for Active; 'I' for Inactive)
REMARK    1  A    between atoms: C_1  and  N_2
REMARK    2  A    between atoms: C_8  and  C_9
REMARK    3  A    between atoms: C_9  and  C_10
REMARK    4  A    between atoms: C_10  and  N_11
REMARK    5  A    between atoms: N_11  and  C_12
REMARK    6  A    between atoms: C_15  and  C_16
REMARK    7  A    between atoms: C_16  and  C_17
REMARK    8  A    between atoms: C_16  and  O_18
REMARK    9  A    between atoms: C_16  and  C_19
REMARK                            x       y       z     vdW  Elec       q    Type
REMARK                         _______ _______ _______ _____ _____    ______ ____
ROOT
ATOM      1  N   UNL     1      47.310   9.067  13.466  0.00  0.00    +0.000 N 
ATOM      2  H   UNL     1      46.636   9.748  13.805  0.00  0.00    +0.000 HD
ENDROOT
BRANCH   1   3
ATOM      3  C   UNL     1      46.740   7.805  13.277  0.00  0.00    +0.000 A 
ATOM      4  C   UNL     1      47.446   6.608  13.396  0.00  0.00    +0.000 A 
ATOM      5  C   UNL     1      46.858   5.373  13.093  0.00  0.00    +0.000 A 
ATOM      6  C   UNL     1      45.541   5.293  12.621  0.00  0.00    +0.000 A 
ATOM      7  C   UNL     1      44.825   6.496  12.496  0.00  0.00    +0.000 A 
ATOM      8  C   UNL     1      45.423   7.726  12.809  0.00  0.00    +0.000 A 
BRANCH   6   9
ATOM      9  C   UNL     1      44.915   3.956  12.215  0.00  0.00    +0.000 C 
ATOM     10  C   UNL     1      43.521   3.820  12.844  0.00  0.00    +0.000 C 
BRANCH   9  11
ATOM     11  C   UNL     1      44.836   3.782  10.655  0.00  0.00    +0.000 C 
ATOM     12  F   UNL     1      45.230   2.570  10.209  0.00  0.00    +0.000 F 
ATOM     13  F   UNL     1      43.559   3.965  10.225  0.00  0.00    +0.000 F 
ATOM     14  F   UNL     1      45.590   4.705  10.008  0.00  0.00    +0.000 F 
ENDBRANCH   9  11
BRANCH   9  15
ATOM     15  O   UNL     1      45.684   2.877  12.814  0.00  0.00    +0.000 OA
ATOM     16  H   UNL     1      45.697   3.029  13.777  0.00  0.00    +0.000 HD
ENDBRANCH   9  15
ENDBRANCH   6   9
ENDBRANCH   1   3
BRANCH   1  17
ATOM     17  C   UNL     1      48.654   9.181  14.030  0.00  0.00    +0.000 C 
BRANCH  17  18
ATOM     18  C   UNL     1      48.665  10.158  15.207  0.00  0.00    +0.000 C 
BRANCH  18  26
ATOM     19  C   UNL     1      50.266   2.185  17.402  0.00  0.00    +0.000 C 
ATOM     20  N   UNL     1      49.356   3.261  17.796  0.00  0.00    +0.000 NA
ATOM     21  C   UNL     1      50.021   4.196  18.740  0.00  0.00    +0.000 C 
ATOM     22  C   UNL     1      49.125   5.409  19.129  0.00  0.00    +0.000 C 
ATOM     23  N   UNL     1      48.743   6.072  17.883  0.00  0.00    +0.000 N 
ATOM     24  C   UNL     1      48.499   7.431  17.853  0.00  0.00    +0.000 A 
ATOM     25  C   UNL     1      48.669   8.098  16.637  0.00  0.00    +0.000 A 
ATOM     26  C   UNL     1      48.476   9.473  16.535  0.00  0.00    +0.000 A 
ATOM     27  C   UNL     1      48.132  10.165  17.691  0.00  0.00    +0.000 A 
ATOM     28  C   UNL     1      47.990   9.447  18.868  0.00  0.00    +0.000 A 
ATOM     29  N   UNL     1      48.184   8.108  18.976  0.00  0.00    +0.000 NA
ATOM     30  C   UNL     1      47.995   5.207  16.965  0.00  0.00    +0.000 C 
ATOM     31  C   UNL     1      48.895   4.005  16.599  0.00  0.00    +0.000 C 
ENDBRANCH  18  26
ENDBRANCH  17  18
ENDBRANCH   1  17
TORSDOF 7
ENDMDL
MODEL 8
REMARK VINA RESULT:    -6.951      1.643      2.324
REMARK INTER + INTRA:          -9.875
REMARK INTER:                  -8.961
REMARK INTRA:                  -0.914
REMARK UNBOUND:                -0.282
REMARK  Name = 
REMARK  9 active torsions:
REMARK  status: ('A' for Active; 'I' for Inactive)
REMARK    1  A    between atoms: C_1  and  N_2
REMARK    2  A    between atoms: C_8  and  C_9
REMARK    3  A    between atoms: C_9  and  C_10
REMARK    4  A    between atoms: C_10  and  N_11
REMARK    5  A    between atoms: N_11  and  C_12
REMARK    6  A    between atoms: C_15  and  C_16
REMARK    7  A    between atoms: C_16  and  C_17
REMARK    8  A    between atoms: C_16  and  O_18
REMARK    9  A    between atoms: C_16  and  C_19
REMARK                            x       y       z     vdW  Elec       q    Type
REMARK                         _______ _______ _______ _____ _____    ______ ____
ROOT
ATOM      1  N   UNL     1      48.215   7.660  13.331  0.00  0.00    +0.000 N 
ATOM      2  H   UNL     1      49.096   7.923  12.898  0.00  0.00    +0.000 HD
ENDROOT
BRANCH   1   3
ATOM      3  C   UNL     1      48.338   7.473  14.711  0.00  0.00    +0.000 A 
ATOM      4  C   UNL     1      48.504   8.514  15.625  0.00  0.00    +0.000 A 
ATOM      5  C   UNL     1      48.730   8.270  16.985  0.00  0.00    +0.000 A 
ATOM      6  C   UNL     1      48.834   6.963  17.481  0.00  0.00    +0.000 A 
ATOM      7  C   UNL     1      48.670   5.911  16.565  0.00  0.00    +0.000 A 
ATOM      8  C   UNL     1      48.439   6.167  15.205  0.00  0.00    +0.000 A 
BRANCH   6   9
ATOM      9  C   UNL     1      49.156   6.688  18.952  0.00  0.00    +0.000 C 
ATOM     10  C   UNL     1      49.559   7.995  19.651  0.00  0.00    +0.000 C 
BRANCH   9  11
ATOM     11  C   UNL     1      47.961   6.003  19.708  0.00  0.00    +0.000 C 
ATOM     12  F   UNL     1      47.867   4.671  19.510  0.00  0.00    +0.000 F 
ATOM     13  F   UNL     1      48.080   6.196  21.049  0.00  0.00    +0.000 F 
ATOM     14  F   UNL     1      46.768   6.541  19.352  0.00  0.00    +0.000 F 
ENDBRANCH   9  11
BRANCH   9  15
ATOM     15  O   UNL     1      50.351   5.862  19.024  0.00  0.00    +0.000 OA
ATOM     16  H   UNL     1      50.671   5.892  19.944  0.00  0.00    +0.000 HD
ENDBRANCH   9  15
ENDBRANCH   6   9
ENDBRANCH   1   3
BRANCH   1  17
ATOM     17  C   UNL     1      47.375   6.759  12.546  0.00  0.00    +0.000 C 
BRANCH  17  18
ATOM     18  C   UNL     1      45.902   6.933  12.917  0.00  0.00    +0.000 C 
BRANCH  18  26
ATOM     19  C   UNL     1      47.415   1.635   6.547  0.00  0.00    +0.000 C 
ATOM     20  N   UNL     1      46.262   2.273   7.180  0.00  0.00    +0.000 NA
ATOM     21  C   UNL     1      45.835   1.518   8.385  0.00  0.00    +0.000 C 
ATOM     22  C   UNL     1      44.661   2.199   9.149  0.00  0.00    +0.000 C 
ATOM     23  N   UNL     1      45.101   3.553   9.482  0.00  0.00    +0.000 N 
ATOM     24  C   UNL     1      44.624   4.191  10.611  0.00  0.00    +0.000 A 
ATOM     25  C   UNL     1      45.418   5.192  11.178  0.00  0.00    +0.000 A 
ATOM     26  C   UNL     1      45.022   5.857  12.335  0.00  0.00    +0.000 A 
ATOM     27  C   UNL     1      43.821   5.475  12.922  0.00  0.00    +0.000 A 
ATOM     28  C   UNL     1      43.086   4.467  12.317  0.00  0.00    +0.000 A 
ATOM     29  N   UNL     1      43.470   3.810  11.193  0.00  0.00    +0.000 NA
ATOM     30  C   UNL     1      45.436   4.365   8.308  0.00  0.00    +0.000 C 
ATOM     31  C   UNL     1      46.594   3.668   7.558  0.00  0.00    +0.000 C 
ENDBRANCH  18  26
ENDBRANCH  17  18
ENDBRANCH   1  17
TORSDOF 7
ENDMDL
MODEL 9
REMARK VINA RESULT:    -6.924      4.753      8.447
REMARK INTER + INTRA:          -9.837
REMARK INTER:                  -8.976
REMARK INTRA:                  -0.861
REMARK UNBOUND:                -0.282
REMARK  Name = 
REMARK  9 active torsions:
REMARK  status: ('A' for Active; 'I' for Inactive)
REMARK    1  A    between atoms: C_1  and  N_2
REMARK    2  A    between atoms: C_8  and  C_9
REMARK    3  A    between atoms: C_9  and  C_10
REMARK    4  A    between atoms: C_10  and  N_11
REMARK    5  A    between atoms: N_11  and  C_12
REMARK    6  A    between atoms: C_15  and  C_16
REMARK    7  A    between atoms: C_16  and  C_17
REMARK    8  A    between atoms: C_16  and  O_18
REMARK    9  A    between atoms: C_16  and  C_19
REMARK                            x       y       z     vdW  Elec       q    Type
REMARK                         _______ _______ _______ _____ _____    ______ ____
ROOT
ATOM      1  N   UNL     1      46.640   8.778  13.634  0.00  0.00    +0.000 N 
ATOM      2  H   UNL     1      46.731   8.587  14.628  0.00  0.00    +0.000 HD
ENDROOT
BRANCH   1   3
ATOM      3  C   UNL     1      46.208   7.659  12.915  0.00  0.00    +0.000 A 
ATOM      4  C   UNL     1      45.244   7.709  11.907  0.00  0.00    +0.000 A 
ATOM      5  C   UNL     1      44.767   6.546  11.290  0.00  0.00    +0.000 A 
ATOM      6  C   UNL     1      45.214   5.278  11.685  0.00  0.00    +0.000 A 
ATOM      7  C   UNL     1      46.182   5.222  12.701  0.00  0.00    +0.000 A 
ATOM      8  C   UNL     1      46.658   6.394  13.308  0.00  0.00    +0.000 A 
BRANCH   6   9
ATOM      9  C   UNL     1      44.641   3.999  11.068  0.00  0.00    +0.000 C 
ATOM     10  C   UNL     1      43.136   3.907  11.360  0.00  0.00    +0.000 C 
BRANCH   9  11
ATOM     11  C   UNL     1      44.910   3.908   9.522  0.00  0.00    +0.000 C 
ATOM     12  F   UNL     1      45.976   4.622   9.099  0.00  0.00    +0.000 F 
ATOM     13  F   UNL     1      45.130   2.617   9.158  0.00  0.00    +0.000 F 
ATOM     14  F   UNL     1      43.842   4.329   8.801  0.00  0.00    +0.000 F 
ENDBRANCH   9  11
BRANCH   9  15
ATOM     15  O   UNL     1      45.209   2.851  11.757  0.00  0.00    +0.000 OA
ATOM     16  H   UNL     1      44.836   2.838  12.658  0.00  0.00    +0.000 HD
ENDBRANCH   9  15
ENDBRANCH   6   9
ENDBRANCH   1   3
BRANCH   1  17
ATOM     17  C   UNL     1      47.662   9.656  13.069  0.00  0.00    +0.000 C 
BRANCH  17  18
ATOM     18  C   UNL     1      48.786   8.837  12.432  0.00  0.00    +0.000 C 
BRANCH  18  26
ATOM     19  C   UNL     1      48.661   3.283  18.762  0.00  0.00    +0.000 C 
ATOM     20  N   UNL     1      49.346   4.530  18.423  0.00  0.00    +0.000 NA
ATOM     21  C   UNL     1      50.508   4.270  17.535  0.00  0.00    +0.000 C 
ATOM     22  C   UNL     1      51.226   5.573  17.073  0.00  0.00    +0.000 C 
ATOM     23  N   UNL     1      50.216   6.404  16.420  0.00  0.00    +0.000 N 
ATOM     24  C   UNL     1      50.569   7.276  15.407  0.00  0.00    +0.000 A 
ATOM     25  C   UNL     1      49.585   7.629  14.479  0.00  0.00    +0.000 A 
ATOM     26  C   UNL     1      49.872   8.475  13.411  0.00  0.00    +0.000 A 
ATOM     27  C   UNL     1      51.177   8.937  13.285  0.00  0.00    +0.000 A 
ATOM     28  C   UNL     1      52.109   8.541  14.232  0.00  0.00    +0.000 A 
ATOM     29  N   UNL     1      51.837   7.711  15.270  0.00  0.00    +0.000 NA
ATOM     30  C   UNL     1      49.099   6.766  17.297  0.00  0.00    +0.000 C 
ATOM     31  C   UNL     1      48.407   5.462  17.753  0.00  0.00    +0.000 C 
ENDBRANCH  18  26
ENDBRANCH  17  18
ENDBRANCH   1  17
TORSDOF 7
ENDMDL
