MODEL 1
REMARK VINA RESULT:    -7.602      0.000      0.000
REMARK INTER + INTRA:          -8.662
REMARK INTER:                  -8.935
REMARK INTRA:                   0.273
REMARK UNBOUND:                 0.273
REMARK  Name = 
REMARK  5 active torsions:
REMARK  status: ('A' for Active; 'I' for Inactive)
REMARK    1  A    between atoms: C_1  and  C_2
REMARK    2  A    between atoms: C_2  and  C_3
REMARK    3  A    between atoms: C_2  and  N_4
REMARK    4  A    between atoms: C_2  and  C_14
REMARK    5  A    between atoms: C_8  and  C_9
REMARK                            x       y       z     vdW  Elec       q    Type
REMARK                         _______ _______ _______ _____ _____    ______ ____
ROOT
ATOM      1  N   UNL     1      43.789   3.454  10.786  0.00  0.00    +0.000 N 
ATOM      2  C   UNL     1      44.671   3.220   9.727  0.00  0.00    +0.000 A 
ATOM      3  C   UNL     1      44.965   1.907   9.329  0.00  0.00    +0.000 A 
ATOM      4  N   UNL     1      45.824   1.581   8.321  0.00  0.00    +0.000 NA
ATOM      5  C   UNL     1      46.369   2.655   7.687  0.00  0.00    +0.000 A 
ATOM      6  C   UNL     1      46.054   3.955   8.029  0.00  0.00    +0.000 A 
ATOM      7  N   UNL     1      45.213   4.249   9.051  0.00  0.00    +0.000 NA
ATOM      8  H   UNL     1      42.847   3.243  10.466  0.00  0.00    +0.000 HD
ENDROOT
BRANCH   5   9
ATOM      9  C   UNL     1      47.364   2.417   6.610  0.00  0.00    +0.000 C 
ATOM     10  N   UNL     1      47.238   3.198   5.494  0.00  0.00    +0.000 N 
ATOM     11  O   UNL     1      48.237   1.559   6.695  0.00  0.00    +0.000 OA
ATOM     12  H   UNL     1      46.483   3.869   5.428  0.00  0.00    +0.000 HD
ATOM     13  H   UNL     1      47.847   3.034   4.704  0.00  0.00    +0.000 HD
ENDBRANCH   5   9
BRANCH   1  15
ATOM     14  C   UNL     1      43.315   5.872  10.719  0.00  0.00    +0.000 C 
ATOM     15  C   UNL     1      43.870   4.709  11.575  0.00  0.00    +0.000 C 
ATOM     16  C   UNL     1      43.077   4.636  12.897  0.00  0.00    +0.000 C 
BRANCH  15  17
ATOM     17  C   UNL     1      45.393   4.997  11.919  0.00  0.00    +0.000 C 
ATOM     18  C   UNL     1      45.796   4.584  13.353  0.00  0.00    +0.000 C 
ATOM     19  C   UNL     1      47.264   4.883  13.659  0.00  0.00    +0.000 C 
ATOM     20  C   UNL     1      47.602   6.345  13.413  0.00  0.00    +0.000 C 
ATOM     21  C   UNL     1      47.279   6.736  11.979  0.00  0.00    +0.000 C 
ATOM     22  C   UNL     1      45.816   6.460  11.638  0.00  0.00    +0.000 C 
ENDBRANCH  15  17
ENDBRANCH   1  15
TORSDOF 3
ENDMDL
MODEL 2
REMARK VINA RESULT:    -6.658      3.641      6.255
REMARK INTER + INTRA:          -7.552
REMARK INTER:                  -7.791
REMARK INTRA:                   0.239
REMARK UNBOUND:                 0.273
REMARK  Name = 
REMARK  5 active torsions:
REMARK  status: ('A' for Active; 'I' for Inactive)
REMARK    1  A    between atoms: C_1  and  C_2
REMARK    2  A    between atoms: C_2  and  C_3
REMARK    3  A    between atoms: C_2  and  N_4
REMARK    4  A    between atoms: C_2  and  C_14
REMARK    5  A    between atoms: C_8  and  C_9
REMARK                            x       y       z     vdW  Elec       q    Type
REMARK                         _______ _______ _______ _____ _____    ______ ____
ROOT
ATOM      1  N   UNL     1      45.495   3.349  12.859  0.00  0.00    +0.000 N 
ATOM      2  C   UNL     1      46.350   4.330  13.370  0.00  0.00    +0.000 A 
ATOM      3  C   UNL     1      46.825   4.237  14.688  0.00  0.00    +0.000 A 
ATOM      4  N   UNL     1      47.646   5.151  15.277  0.00  0.00    +0.000 NA
ATOM      5  C   UNL     1      48.011   6.178  14.461  0.00  0.00    +0.000 A 
ATOM      6  C   UNL     1      47.595   6.261  13.147  0.00  0.00    +0.000 A 
ATOM      7  N   UNL     1      46.760   5.349  12.594  0.00  0.00    +0.000 NA
ATOM      8  H   UNL     1      46.039   2.506  12.699  0.00  0.00    +0.000 HD
ENDROOT
BRANCH   5   9
ATOM      9  C   UNL     1      48.858   7.264  15.017  0.00  0.00    +0.000 C 
ATOM     10  N   UNL     1      48.193   8.301  15.610  0.00  0.00    +0.000 N 
ATOM     11  O   UNL     1      50.082   7.254  14.934  0.00  0.00    +0.000 OA
ATOM     12  H   UNL     1      47.180   8.308  15.628  0.00  0.00    +0.000 HD
ATOM     13  H   UNL     1      48.716   9.097  15.947  0.00  0.00    +0.000 HD
ENDBRANCH   5   9
BRANCH   1  15
ATOM     14  C   UNL     1      43.401   2.644  11.768  0.00  0.00    +0.000 C 
ATOM     15  C   UNL     1      44.564   3.663  11.746  0.00  0.00    +0.000 C 
ATOM     16  C   UNL     1      43.982   5.090  11.838  0.00  0.00    +0.000 C 
BRANCH  15  17
ATOM     17  C   UNL     1      45.348   3.528  10.372  0.00  0.00    +0.000 C 
ATOM     18  C   UNL     1      45.259   4.787   9.479  0.00  0.00    +0.000 C 
ATOM     19  C   UNL     1      46.013   4.624   8.159  0.00  0.00    +0.000 C 
ATOM     20  C   UNL     1      45.546   3.396   7.393  0.00  0.00    +0.000 C 
ATOM     21  C   UNL     1      45.705   2.143   8.241  0.00  0.00    +0.000 C 
ATOM     22  C   UNL     1      44.956   2.264   9.567  0.00  0.00    +0.000 C 
ENDBRANCH  15  17
ENDBRANCH   1  15
TORSDOF 3
ENDMDL
MODEL 3
REMARK VINA RESULT:    -5.991      3.463      6.241
REMARK INTER + INTRA:          -6.769
REMARK INTER:                  -7.626
REMARK INTRA:                   0.858
REMARK UNBOUND:                 0.273
REMARK  Name = 
REMARK  5 active torsions:
REMARK  status: ('A' for Active; 'I' for Inactive)
REMARK    1  A    between atoms: C_1  and  C_2
REMARK    2  A    between atoms: C_2  and  C_3
REMARK    3  A    between atoms: C_2  and  N_4
REMARK    4  A    between atoms: C_2  and  C_14
REMARK    5  A    between atoms: C_8  and  C_9
REMARK                            x       y       z     vdW  Elec       q    Type
REMARK                         _______ _______ _______ _____ _____    ______ ____
ROOT
ATOM      1  N   UNL     1      45.353   5.692  10.873  0.00  0.00    +0.000 N 
ATOM      2  C   UNL     1      46.216   5.962  11.939  0.00  0.00    +0.000 A 
ATOM      3  C   UNL     1      47.290   6.850  11.772  0.00  0.00    +0.000 A 
ATOM      4  N   UNL     1      48.191   7.162  12.746  0.00  0.00    +0.000 NA
ATOM      5  C   UNL     1      47.950   6.555  13.940  0.00  0.00    +0.000 A 
ATOM      6  C   UNL     1      46.870   5.717  14.140  0.00  0.00    +0.000 A 
ATOM      7  N   UNL     1      46.003   5.407  13.146  0.00  0.00    +0.000 NA
ATOM      8  H   UNL     1      44.770   6.511  10.722  0.00  0.00    +0.000 HD
ENDROOT
BRANCH   5   9
ATOM      9  C   UNL     1      48.903   6.777  15.058  0.00  0.00    +0.000 C 
ATOM     10  N   UNL     1      48.352   6.871  16.306  0.00  0.00    +0.000 N 
ATOM     11  O   UNL     1      50.111   6.894  14.882  0.00  0.00    +0.000 OA
ATOM     12  H   UNL     1      47.347   6.816  16.422  0.00  0.00    +0.000 HD
ATOM     13  H   UNL     1      48.947   7.087  17.095  0.00  0.00    +0.000 HD
ENDBRANCH   5   9
BRANCH   1  15
ATOM     14  C   UNL     1      45.079   3.500  11.966  0.00  0.00    +0.000 C 
ATOM     15  C   UNL     1      44.595   4.416  10.818  0.00  0.00    +0.000 C 
ATOM     16  C   UNL     1      43.070   4.622  10.950  0.00  0.00    +0.000 C 
BRANCH  15  17
ATOM     17  C   UNL     1      44.887   3.707   9.428  0.00  0.00    +0.000 C 
ATOM     18  C   UNL     1      45.339   2.235   9.564  0.00  0.00    +0.000 C 
ATOM     19  C   UNL     1      45.623   1.582   8.211  0.00  0.00    +0.000 C 
ATOM     20  C   UNL     1      46.639   2.377   7.406  0.00  0.00    +0.000 C 
ATOM     21  C   UNL     1      46.162   3.807   7.204  0.00  0.00    +0.000 C 
ATOM     22  C   UNL     1      45.876   4.497   8.536  0.00  0.00    +0.000 C 
ENDBRANCH  15  17
ENDBRANCH   1  15
TORSDOF 3
ENDMDL
MODEL 4
REMARK VINA RESULT:    -5.946      4.038      6.316
REMARK INTER + INTRA:          -6.716
REMARK INTER:                  -7.045
REMARK INTRA:                   0.329
REMARK UNBOUND:                 0.273
REMARK  Name = 
REMARK  5 active torsions:
REMARK  status: ('A' for Active; 'I' for Inactive)
REMARK    1  A    between atoms: C_1  and  C_2
REMARK    2  A    between atoms: C_2  and  C_3
REMARK    3  A    between atoms: C_2  and  N_4
REMARK    4  A    between atoms: C_2  and  C_14
REMARK    5  A    between atoms: C_8  and  C_9
REMARK                            x       y       z     vdW  Elec       q    Type
REMARK                         _______ _______ _______ _____ _____    ______ ____
ROOT
ATOM      1  N   UNL     1      45.974   4.973  13.325  0.00  0.00    +0.000 N 
ATOM      2  C   UNL     1      47.107   5.791  13.375  0.00  0.00    +0.000 A 
ATOM      3  C   UNL     1      47.836   5.916  14.568  0.00  0.00    +0.000 A 
ATOM      4  N   UNL     1      48.941   6.700  14.717  0.00  0.00    +0.000 NA
ATOM      5  C   UNL     1      49.318   7.351  13.582  0.00  0.00    +0.000 A 
ATOM      6  C   UNL     1      48.644   7.202  12.386  0.00  0.00    +0.000 A 
ATOM      7  N   UNL     1      47.534   6.432  12.272  0.00  0.00    +0.000 NA
ATOM      8  H   UNL     1      46.281   4.004  13.345  0.00  0.00    +0.000 HD
ENDROOT
BRANCH   5   9
ATOM      9  C   UNL     1      50.476   8.279  13.643  0.00  0.00    +0.000 C 
ATOM     10  N   UNL     1      51.683   7.713  13.944  0.00  0.00    +0.000 N 
ATOM     11  O   UNL     1      50.363   9.487  13.460  0.00  0.00    +0.000 OA
ATOM     12  H   UNL     1      51.743   6.720  14.135  0.00  0.00    +0.000 HD
ATOM     13  H   UNL     1      52.493   8.307  14.063  0.00  0.00    +0.000 HD
ENDBRANCH   5   9
BRANCH   1  15
ATOM     14  C   UNL     1      43.552   4.760  12.921  0.00  0.00    +0.000 C 
ATOM     15  C   UNL     1      44.903   5.226  12.329  0.00  0.00    +0.000 C 
ATOM     16  C   UNL     1      44.791   6.715  11.937  0.00  0.00    +0.000 C 
BRANCH  15  17
ATOM     17  C   UNL     1      45.214   4.384  11.019  0.00  0.00    +0.000 C 
ATOM     18  C   UNL     1      45.484   5.254   9.770  0.00  0.00    +0.000 C 
ATOM     19  C   UNL     1      45.770   4.416   8.523  0.00  0.00    +0.000 C 
ATOM     20  C   UNL     1      44.653   3.421   8.247  0.00  0.00    +0.000 C 
ATOM     21  C   UNL     1      44.437   2.512   9.446  0.00  0.00    +0.000 C 
ATOM     22  C   UNL     1      44.139   3.313  10.712  0.00  0.00    +0.000 C 
ENDBRANCH  15  17
ENDBRANCH   1  15
TORSDOF 3
ENDMDL
MODEL 5
REMARK VINA RESULT:    -5.909      3.637      6.361
REMARK INTER + INTRA:          -6.672
REMARK INTER:                  -7.444
REMARK INTRA:                   0.772
REMARK UNBOUND:                 0.273
REMARK  Name = 
REMARK  5 active torsions:
REMARK  status: ('A' for Active; 'I' for Inactive)
REMARK    1  A    between atoms: C_1  and  C_2
REMARK    2  A    between atoms: C_2  and  C_3
REMARK    3  A    between atoms: C_2  and  N_4
REMARK    4  A    between atoms: C_2  and  C_14
REMARK    5  A    between atoms: C_8  and  C_9
REMARK                            x       y       z     vdW  Elec       q    Type
REMARK                         _______ _______ _______ _____ _____    ______ ____
ROOT
ATOM      1  N   UNL     1      45.497   5.354  11.423  0.00  0.00    +0.000 N 
ATOM      2  C   UNL     1      46.187   5.330  12.638  0.00  0.00    +0.000 A 
ATOM      3  C   UNL     1      47.393   6.032  12.781  0.00  0.00    +0.000 A 
ATOM      4  N   UNL     1      48.143   6.054  13.920  0.00  0.00    +0.000 NA
ATOM      5  C   UNL     1      47.605   5.348  14.952  0.00  0.00    +0.000 A 
ATOM      6  C   UNL     1      46.395   4.691  14.848  0.00  0.00    +0.000 A 
ATOM      7  N   UNL     1      45.682   4.668  13.696  0.00  0.00    +0.000 NA
ATOM      8  H   UNL     1      45.079   6.274  11.314  0.00  0.00    +0.000 HD
ENDROOT
BRANCH   5   9
ATOM      9  C   UNL     1      48.366   5.254  16.224  0.00  0.00    +0.000 C 
ATOM     10  N   UNL     1      48.253   6.322  17.071  0.00  0.00    +0.000 N 
ATOM     11  O   UNL     1      49.075   4.292  16.500  0.00  0.00    +0.000 OA
ATOM     12  H   UNL     1      47.697   7.125  16.802  0.00  0.00    +0.000 HD
ATOM     13  H   UNL     1      48.800   6.341  17.920  0.00  0.00    +0.000 HD
ENDBRANCH   5   9
BRANCH   1  15
ATOM     14  C   UNL     1      44.802   3.068  12.027  0.00  0.00    +0.000 C 
ATOM     15  C   UNL     1      44.579   4.247  11.052  0.00  0.00    +0.000 C 
ATOM     16  C   UNL     1      43.093   4.663  11.098  0.00  0.00    +0.000 C 
BRANCH  15  17
ATOM     17  C   UNL     1      44.922   3.773   9.576  0.00  0.00    +0.000 C 
ATOM     18  C   UNL     1      45.432   2.315   9.494  0.00  0.00    +0.000 C 
ATOM     19  C   UNL     1      45.763   1.890   8.063  0.00  0.00    +0.000 C 
ATOM     20  C   UNL     1      46.758   2.838   7.412  0.00  0.00    +0.000 C 
ATOM     21  C   UNL     1      46.225   4.263   7.421  0.00  0.00    +0.000 C 
ATOM     22  C   UNL     1      45.891   4.728   8.836  0.00  0.00    +0.000 C 
ENDBRANCH  15  17
ENDBRANCH   1  15
TORSDOF 3
ENDMDL
MODEL 6
REMARK VINA RESULT:    -5.888      4.623      7.071
REMARK INTER + INTRA:          -6.647
REMARK INTER:                  -7.015
REMARK INTRA:                   0.368
REMARK UNBOUND:                 0.273
REMARK  Name = 
REMARK  5 active torsions:
REMARK  status: ('A' for Active; 'I' for Inactive)
REMARK    1  A    between atoms: C_1  and  C_2
REMARK    2  A    between atoms: C_2  and  C_3
REMARK    3  A    between atoms: C_2  and  N_4
REMARK    4  A    between atoms: C_2  and  C_14
REMARK    5  A    between atoms: C_8  and  C_9
REMARK                            x       y       z     vdW  Elec       q    Type
REMARK                         _______ _______ _______ _____ _____    ______ ____
ROOT
ATOM      1  N   UNL     1      46.335   4.646  12.992  0.00  0.00    +0.000 N 
ATOM      2  C   UNL     1      47.122   5.112  14.049  0.00  0.00    +0.000 A 
ATOM      3  C   UNL     1      47.281   4.336  15.208  0.00  0.00    +0.000 A 
ATOM      4  N   UNL     1      48.013   4.714  16.294  0.00  0.00    +0.000 NA
ATOM      5  C   UNL     1      48.625   5.922  16.158  0.00  0.00    +0.000 A 
ATOM      6  C   UNL     1      48.522   6.679  15.007  0.00  0.00    +0.000 A 
ATOM      7  N   UNL     1      47.768   6.288  13.951  0.00  0.00    +0.000 NA
ATOM      8  H   UNL     1      46.839   3.895  12.529  0.00  0.00    +0.000 HD
ENDROOT
BRANCH   5   9
ATOM      9  C   UNL     1      49.402   6.460  17.304  0.00  0.00    +0.000 C 
ATOM     10  N   UNL     1      50.731   6.139  17.331  0.00  0.00    +0.000 N 
ATOM     11  O   UNL     1      48.889   7.134  18.191  0.00  0.00    +0.000 OA
ATOM     12  H   UNL     1      51.123   5.544  16.610  0.00  0.00    +0.000 HD
ATOM     13  H   UNL     1      51.294   6.423  18.121  0.00  0.00    +0.000 HD
ENDBRANCH   5   9
BRANCH   1  15
ATOM     14  C   UNL     1      44.647   6.432  12.806  0.00  0.00    +0.000 C 
ATOM     15  C   UNL     1      45.702   5.597  12.044  0.00  0.00    +0.000 C 
ATOM     16  C   UNL     1      46.722   6.554  11.389  0.00  0.00    +0.000 C 
BRANCH  15  17
ATOM     17  C   UNL     1      44.981   4.770  10.896  0.00  0.00    +0.000 C 
ATOM     18  C   UNL     1      44.867   3.258  11.197  0.00  0.00    +0.000 C 
ATOM     19  C   UNL     1      44.178   2.487  10.071  0.00  0.00    +0.000 C 
ATOM     20  C   UNL     1      44.867   2.711   8.734  0.00  0.00    +0.000 C 
ATOM     21  C   UNL     1      44.912   4.194   8.397  0.00  0.00    +0.000 C 
ATOM     22  C   UNL     1      45.603   4.998   9.496  0.00  0.00    +0.000 C 
ENDBRANCH  15  17
ENDBRANCH   1  15
TORSDOF 3
ENDMDL
MODEL 7
REMARK VINA RESULT:    -5.845      3.059      4.970
REMARK INTER + INTRA:          -6.596
REMARK INTER:                  -6.915
REMARK INTRA:                   0.318
REMARK UNBOUND:                 0.273
REMARK  Name = 
REMARK  5 active torsions:
REMARK  status: ('A' for Active; 'I' for Inactive)
REMARK    1  A    between atoms: C_1  and  C_2
REMARK    2  A    between atoms: C_2  and  C_3
REMARK    3  A    between atoms: C_2  and  N_4
REMARK    4  A    between atoms: C_2  and  C_14
REMARK    5  A    between atoms: C_8  and  C_9
REMARK                            x       y       z     vdW  Elec       q    Type
REMARK                         _______ _______ _______ _____ _____    ______ ____
ROOT
ATOM      1  N   UNL     1      46.967   6.156  14.066  0.00  0.00    +0.000 N 
ATOM      2  C   UNL     1      46.281   5.532  13.020  0.00  0.00    +0.000 A 
ATOM      3  C   UNL     1      45.823   4.213  13.162  0.00  0.00    +0.000 A 
ATOM      4  N   UNL     1      45.162   3.518  12.194  0.00  0.00    +0.000 NA
ATOM      5  C   UNL     1      44.942   4.228  11.053  0.00  0.00    +0.000 A 
ATOM      6  C   UNL     1      45.339   5.543  10.912  0.00  0.00    +0.000 A 
ATOM      7  N   UNL     1      46.016   6.202  11.884  0.00  0.00    +0.000 NA
ATOM      8  H   UNL     1      46.297   6.372  14.800  0.00  0.00    +0.000 HD
ENDROOT
BRANCH   5   9
ATOM      9  C   UNL     1      44.280   3.550   9.908  0.00  0.00    +0.000 C 
ATOM     10  N   UNL     1      44.056   4.323   8.802  0.00  0.00    +0.000 N 
ATOM     11  O   UNL     1      43.930   2.375   9.950  0.00  0.00    +0.000 OA
ATOM     12  H   UNL     1      44.314   5.303   8.808  0.00  0.00    +0.000 HD
ATOM     13  H   UNL     1      43.550   3.932   8.020  0.00  0.00    +0.000 HD
ENDBRANCH   5   9
BRANCH   1  15
ATOM     14  C   UNL     1      48.699   6.946  12.502  0.00  0.00    +0.000 C 
ATOM     15  C   UNL     1      47.912   7.268  13.794  0.00  0.00    +0.000 C 
ATOM     16  C   UNL     1      47.202   8.628  13.622  0.00  0.00    +0.000 C 
BRANCH  15  17
ATOM     17  C   UNL     1      48.929   7.383  15.007  0.00  0.00    +0.000 C 
ATOM     18  C   UNL     1      50.390   7.639  14.572  0.00  0.00    +0.000 C 
ATOM     19  C   UNL     1      51.348   7.735  15.760  0.00  0.00    +0.000 C 
ATOM     20  C   UNL     1      51.266   6.502  16.647  0.00  0.00    +0.000 C 
ATOM     21  C   UNL     1      49.844   6.290  17.141  0.00  0.00    +0.000 C 
ATOM     22  C   UNL     1      48.857   6.180  15.980  0.00  0.00    +0.000 C 
ENDBRANCH  15  17
ENDBRANCH   1  15
TORSDOF 3
ENDMDL
MODEL 8
REMARK VINA RESULT:    -5.823      3.286      5.289
REMARK INTER + INTRA:          -6.571
REMARK INTER:                  -7.059
REMARK INTRA:                   0.488
REMARK UNBOUND:                 0.273
REMARK  Name = 
REMARK  5 active torsions:
REMARK  status: ('A' for Active; 'I' for Inactive)
REMARK    1  A    between atoms: C_1  and  C_2
REMARK    2  A    between atoms: C_2  and  C_3
REMARK    3  A    between atoms: C_2  and  N_4
REMARK    4  A    between atoms: C_2  and  C_14
REMARK    5  A    between atoms: C_8  and  C_9
REMARK                            x       y       z     vdW  Elec       q    Type
REMARK                         _______ _______ _______ _____ _____    ______ ____
ROOT
ATOM      1  N   UNL     1      46.967   6.908  13.703  0.00  0.00    +0.000 N 
ATOM      2  C   UNL     1      46.262   5.918  13.014  0.00  0.00    +0.000 A 
ATOM      3  C   UNL     1      45.796   4.781  13.691  0.00  0.00    +0.000 A 
ATOM      4  N   UNL     1      45.115   3.757  13.102  0.00  0.00    +0.000 NA
ATOM      5  C   UNL     1      44.886   3.936  11.772  0.00  0.00    +0.000 A 
ATOM      6  C   UNL     1      45.292   5.070  11.097  0.00  0.00    +0.000 A 
ATOM      7  N   UNL     1      45.987   6.062  11.705  0.00  0.00    +0.000 NA
ATOM      8  H   UNL     1      46.309   7.416  14.289  0.00  0.00    +0.000 HD
ENDROOT
BRANCH   5   9
ATOM      9  C   UNL     1      44.203   2.855  11.014  0.00  0.00    +0.000 C 
ATOM     10  N   UNL     1      44.888   2.347   9.945  0.00  0.00    +0.000 N 
ATOM     11  O   UNL     1      43.082   2.451  11.307  0.00  0.00    +0.000 OA
ATOM     12  H   UNL     1      45.793   2.727   9.697  0.00  0.00    +0.000 HD
ATOM     13  H   UNL     1      44.444   1.656   9.356  0.00  0.00    +0.000 HD
ENDBRANCH   5   9
BRANCH   1  15
ATOM     14  C   UNL     1      48.795   8.528  14.030  0.00  0.00    +0.000 C 
ATOM     15  C   UNL     1      47.918   7.796  12.988  0.00  0.00    +0.000 C 
ATOM     16  C   UNL     1      48.835   7.027  12.012  0.00  0.00    +0.000 C 
BRANCH  15  17
ATOM     17  C   UNL     1      47.091   8.869  12.159  0.00  0.00    +0.000 C 
ATOM     18  C   UNL     1      47.887  10.154  11.837  0.00  0.00    +0.000 C 
ATOM     19  C   UNL     1      47.063  11.172  11.048  0.00  0.00    +0.000 C 
ATOM     20  C   UNL     1      45.764  11.516  11.762  0.00  0.00    +0.000 C 
ATOM     21  C   UNL     1      44.942  10.262  12.011  0.00  0.00    +0.000 C 
ATOM     22  C   UNL     1      45.730   9.223  12.806  0.00  0.00    +0.000 C 
ENDBRANCH  15  17
ENDBRANCH   1  15
TORSDOF 3
ENDMDL
MODEL 9
REMARK VINA RESULT:    -5.453      3.463      5.378
REMARK INTER + INTRA:          -6.137
REMARK INTER:                  -6.447
REMARK INTRA:                   0.310
REMARK UNBOUND:                 0.273
REMARK  Name = 
REMARK  5 active torsions:
REMARK  status: ('A' for Active; 'I' for Inactive)
REMARK    1  A    between atoms: C_1  and  C_2
REMARK    2  A    between atoms: C_2  and  C_3
REMARK    3  A    between atoms: C_2  and  N_4
REMARK    4  A    between atoms: C_2  and  C_14
REMARK    5  A    between atoms: C_8  and  C_9
REMARK                            x       y       z     vdW  Elec       q    Type
REMARK                         _______ _______ _______ _____ _____    ______ ____
ROOT
ATOM      1  N   UNL     1      46.877   7.041  13.740  0.00  0.00    +0.000 N 
ATOM      2  C   UNL     1      46.171   6.036  13.072  0.00  0.00    +0.000 A 
ATOM      3  C   UNL     1      45.923   4.808  13.702  0.00  0.00    +0.000 A 
ATOM      4  N   UNL     1      45.259   3.765  13.126  0.00  0.00    +0.000 NA
ATOM      5  C   UNL     1      44.813   4.020  11.865  0.00  0.00    +0.000 A 
ATOM      6  C   UNL     1      45.003   5.240  11.246  0.00  0.00    +0.000 A 
ATOM      7  N   UNL     1      45.687   6.251  11.835  0.00  0.00    +0.000 NA
ATOM      8  H   UNL     1      46.272   7.429  14.459  0.00  0.00    +0.000 HD
ENDROOT
BRANCH   5   9
ATOM      9  C   UNL     1      44.127   2.935  11.118  0.00  0.00    +0.000 C 
ATOM     10  N   UNL     1      44.787   2.450  10.023  0.00  0.00    +0.000 N 
ATOM     11  O   UNL     1      43.024   2.507  11.441  0.00  0.00    +0.000 OA
ATOM     12  H   UNL     1      45.677   2.850   9.750  0.00  0.00    +0.000 HD
ATOM     13  H   UNL     1      44.338   1.757   9.440  0.00  0.00    +0.000 HD
ENDBRANCH   5   9
BRANCH   1  15
ATOM     14  C   UNL     1      48.344   7.400  11.792  0.00  0.00    +0.000 C 
ATOM     15  C   UNL     1      47.620   8.077  12.980  0.00  0.00    +0.000 C 
ATOM     16  C   UNL     1      46.701   9.193  12.436  0.00  0.00    +0.000 C 
BRANCH  15  17
ATOM     17  C   UNL     1      48.700   8.738  13.938  0.00  0.00    +0.000 C 
ATOM     18  C   UNL     1      49.170  10.136  13.474  0.00  0.00    +0.000 C 
ATOM     19  C   UNL     1      50.216  10.743  14.410  0.00  0.00    +0.000 C 
ATOM     20  C   UNL     1      51.408   9.816  14.595  0.00  0.00    +0.000 C 
ATOM     21  C   UNL     1      50.958   8.464  15.125  0.00  0.00    +0.000 C 
ATOM     22  C   UNL     1      49.917   7.821  14.211  0.00  0.00    +0.000 C 
ENDBRANCH  15  17
ENDBRANCH   1  15
TORSDOF 3
ENDMDL
