MODEL 1
REMARK VINA RESULT:    -6.484      0.000      0.000
REMARK INTER + INTRA:          -8.367
REMARK INTER:                  -8.000
REMARK INTRA:                  -0.367
REMARK UNBOUND:                -0.367
REMARK  Name = 
REMARK  7 active torsions:
REMARK  status: ('A' for Active; 'I' for Inactive)
REMARK    1  A    between atoms: C_1  and  C_2
REMARK    2  A    between atoms: C_2  and  C_3
REMARK    3  A    between atoms: C_2  and  C_4
REMARK    4  A    between atoms: C_2  and  C_5
REMARK    5  A    between atoms: C_9  and  C_10
REMARK    6  A    between atoms: N_16  and  C_17
REMARK    7  A    between atoms: C_17  and  C_18
REMARK                            x       y       z     vdW  Elec       q    Type
REMARK                         _______ _______ _______ _____ _____    ______ ____
ROOT
ATOM      1  C   UNL     1      47.828   7.558  13.401  0.00  0.00    +0.000 A 
ATOM      2  N   UNL     1      48.145   7.294  14.662  0.00  0.00    +0.000 NA
ATOM      3  C   UNL     1      47.892   5.968  14.877  0.00  0.00    +0.000 A 
ATOM      4  C   UNL     1      48.041   5.226  16.049  0.00  0.00    +0.000 A 
ATOM      5  C   UNL     1      47.685   3.892  15.954  0.00  0.00    +0.000 A 
ATOM      6  N   UNL     1      47.254   3.277  14.813  0.00  0.00    +0.000 NA
ATOM      7  C   UNL     1      47.126   4.012  13.680  0.00  0.00    +0.000 A 
ATOM      8  C   UNL     1      47.420   5.368  13.719  0.00  0.00    +0.000 A 
ATOM      9  N   UNL     1      47.312   6.410  12.809  0.00  0.00    +0.000 N 
ENDROOT
BRANCH   5  10
ATOM     10  C   UNL     1      47.729   3.049  17.196  0.00  0.00    +0.000 C 
ATOM     11  N   UNL     1      48.970   2.878  17.755  0.00  0.00    +0.000 N 
ATOM     12  O   UNL     1      46.737   2.528  17.682  0.00  0.00    +0.000 OA
ATOM     13  H   UNL     1      49.784   3.285  17.312  0.00  0.00    +0.000 HD
ATOM     14  H   UNL     1      49.067   2.279  18.565  0.00  0.00    +0.000 HD
ENDBRANCH   5  10
BRANCH   1  16
ATOM     15  C   UNL     1      48.643   9.880  13.845  0.00  0.00    +0.000 C 
ATOM     16  C   UNL     1      48.041   8.936  12.769  0.00  0.00    +0.000 C 
ATOM     17  C   UNL     1      46.745   9.602  12.283  0.00  0.00    +0.000 C 
ATOM     18  C   UNL     1      49.052   8.865  11.609  0.00  0.00    +0.000 C 
ENDBRANCH   1  16
BRANCH   9  19
ATOM     19  C   UNL     1      46.669   6.288  11.508  0.00  0.00    +0.000 C 
BRANCH  19  20
ATOM     20  C   UNL     1      45.245   5.771  11.563  0.00  0.00    +0.000 A 
ATOM     21  C   UNL     1      44.331   6.114  12.566  0.00  0.00    +0.000 A 
ATOM     22  C   UNL     1      43.058   5.561  12.537  0.00  0.00    +0.000 A 
ATOM     23  N   UNL     1      42.632   4.713  11.581  0.00  0.00    +0.000 NA
ATOM     24  C   UNL     1      43.510   4.410  10.605  0.00  0.00    +0.000 A 
ATOM     25  C   UNL     1      44.805   4.908  10.550  0.00  0.00    +0.000 A 
ENDBRANCH  19  20
ENDBRANCH   9  19
TORSDOF 4
ENDMDL
MODEL 2
REMARK VINA RESULT:    -6.407      1.768      4.296
REMARK INTER + INTRA:          -8.272
REMARK INTER:                  -7.679
REMARK INTRA:                  -0.593
REMARK UNBOUND:                -0.367
REMARK  Name = 
REMARK  7 active torsions:
REMARK  status: ('A' for Active; 'I' for Inactive)
REMARK    1  A    between atoms: C_1  and  C_2
REMARK    2  A    between atoms: C_2  and  C_3
REMARK    3  A    between atoms: C_2  and  C_4
REMARK    4  A    between atoms: C_2  and  C_5
REMARK    5  A    between atoms: C_9  and  C_10
REMARK    6  A    between atoms: N_16  and  C_17
REMARK    7  A    between atoms: C_17  and  C_18
REMARK                            x       y       z     vdW  Elec       q    Type
REMARK                         _______ _______ _______ _____ _____    ______ ____
ROOT
ATOM      1  C   UNL     1      45.447   4.770  12.564  0.00  0.00    +0.000 A 
ATOM      2  N   UNL     1      45.523   4.025  13.660  0.00  0.00    +0.000 NA
ATOM      3  C   UNL     1      46.536   4.531  14.427  0.00  0.00    +0.000 A 
ATOM      4  C   UNL     1      47.015   4.076  15.655  0.00  0.00    +0.000 A 
ATOM      5  C   UNL     1      48.071   4.798  16.183  0.00  0.00    +0.000 A 
ATOM      6  N   UNL     1      48.620   5.911  15.611  0.00  0.00    +0.000 NA
ATOM      7  C   UNL     1      48.133   6.346  14.422  0.00  0.00    +0.000 A 
ATOM      8  C   UNL     1      47.106   5.636  13.814  0.00  0.00    +0.000 A 
ATOM      9  N   UNL     1      46.452   5.730  12.593  0.00  0.00    +0.000 N 
ENDROOT
BRANCH   5  10
ATOM     10  C   UNL     1      48.703   4.316  17.456  0.00  0.00    +0.000 C 
ATOM     11  N   UNL     1      47.843   4.100  18.503  0.00  0.00    +0.000 N 
ATOM     12  O   UNL     1      49.906   4.139  17.577  0.00  0.00    +0.000 OA
ATOM     13  H   UNL     1      46.855   4.293  18.393  0.00  0.00    +0.000 HD
ATOM     14  H   UNL     1      48.218   3.822  19.400  0.00  0.00    +0.000 HD
ENDBRANCH   5  10
BRANCH   1  16
ATOM     15  C   UNL     1      43.701   3.177  11.750  0.00  0.00    +0.000 C 
ATOM     16  C   UNL     1      44.379   4.549  11.490  0.00  0.00    +0.000 C 
ATOM     17  C   UNL     1      44.939   4.493  10.061  0.00  0.00    +0.000 C 
ATOM     18  C   UNL     1      43.278   5.623  11.571  0.00  0.00    +0.000 C 
ENDBRANCH   1  16
BRANCH   9  19
ATOM     19  C   UNL     1      46.858   6.632  11.523  0.00  0.00    +0.000 C 
BRANCH  19  20
ATOM     20  C   UNL     1      46.468   8.079  11.746  0.00  0.00    +0.000 A 
ATOM     21  C   UNL     1      45.143   8.535  11.764  0.00  0.00    +0.000 A 
ATOM     22  C   UNL     1      44.897   9.887  11.949  0.00  0.00    +0.000 A 
ATOM     23  N   UNL     1      45.865  10.807  12.130  0.00  0.00    +0.000 NA
ATOM     24  C   UNL     1      47.135  10.356  12.138  0.00  0.00    +0.000 A 
ATOM     25  C   UNL     1      47.481   9.024  11.957  0.00  0.00    +0.000 A 
ENDBRANCH  19  20
ENDBRANCH   9  19
TORSDOF 4
ENDMDL
MODEL 3
REMARK VINA RESULT:    -5.999      2.653      5.573
REMARK INTER + INTRA:          -7.769
REMARK INTER:                  -7.258
REMARK INTRA:                  -0.511
REMARK UNBOUND:                -0.367
REMARK  Name = 
REMARK  7 active torsions:
REMARK  status: ('A' for Active; 'I' for Inactive)
REMARK    1  A    between atoms: C_1  and  C_2
REMARK    2  A    between atoms: C_2  and  C_3
REMARK    3  A    between atoms: C_2  and  C_4
REMARK    4  A    between atoms: C_2  and  C_5
REMARK    5  A    between atoms: C_9  and  C_10
REMARK    6  A    between atoms: N_16  and  C_17
REMARK    7  A    between atoms: C_17  and  C_18
REMARK                            x       y       z     vdW  Elec       q    Type
REMARK                         _______ _______ _______ _____ _____    ______ ____
ROOT
ATOM      1  C   UNL     1      48.150   6.594  14.441  0.00  0.00    +0.000 A 
ATOM      2  N   UNL     1      47.529   5.427  14.561  0.00  0.00    +0.000 NA
ATOM      3  C   UNL     1      46.792   5.239  13.426  0.00  0.00    +0.000 A 
ATOM      4  C   UNL     1      45.950   4.177  13.094  0.00  0.00    +0.000 A 
ATOM      5  C   UNL     1      45.323   4.281  11.863  0.00  0.00    +0.000 A 
ATOM      6  N   UNL     1      45.508   5.303  10.977  0.00  0.00    +0.000 NA
ATOM      7  C   UNL     1      46.339   6.321  11.312  0.00  0.00    +0.000 A 
ATOM      8  C   UNL     1      46.961   6.303  12.553  0.00  0.00    +0.000 A 
ATOM      9  N   UNL     1      47.769   7.194  13.246  0.00  0.00    +0.000 N 
ENDROOT
BRANCH   5  10
ATOM     10  C   UNL     1      44.331   3.224  11.474  0.00  0.00    +0.000 C 
ATOM     11  N   UNL     1      43.829   2.471  12.505  0.00  0.00    +0.000 N 
ATOM     12  O   UNL     1      43.994   3.020  10.318  0.00  0.00    +0.000 OA
ATOM     13  H   UNL     1      44.153   2.629  13.451  0.00  0.00    +0.000 HD
ATOM     14  H   UNL     1      43.194   1.711  12.297  0.00  0.00    +0.000 HD
ENDBRANCH   5  10
BRANCH   1  16
ATOM     15  C   UNL     1      48.616   8.495  15.998  0.00  0.00    +0.000 C 
ATOM     16  C   UNL     1      49.129   7.119  15.495  0.00  0.00    +0.000 C 
ATOM     17  C   UNL     1      50.549   7.354  14.959  0.00  0.00    +0.000 C 
ATOM     18  C   UNL     1      49.186   6.181  16.716  0.00  0.00    +0.000 C 
ENDBRANCH   1  16
BRANCH   9  19
ATOM     19  C   UNL     1      48.053   8.550  12.797  0.00  0.00    +0.000 C 
BRANCH  19  20
ATOM     20  C   UNL     1      49.347   8.691  12.020  0.00  0.00    +0.000 A 
ATOM     21  C   UNL     1      50.040   7.611  11.459  0.00  0.00    +0.000 A 
ATOM     22  C   UNL     1      51.232   7.848  10.790  0.00  0.00    +0.000 A 
ATOM     23  N   UNL     1      51.770   9.073  10.628  0.00  0.00    +0.000 NA
ATOM     24  C   UNL     1      51.082  10.109  11.148  0.00  0.00    +0.000 A 
ATOM     25  C   UNL     1      49.885   9.972  11.838  0.00  0.00    +0.000 A 
ENDBRANCH  19  20
ENDBRANCH   9  19
TORSDOF 4
ENDMDL
MODEL 4
REMARK VINA RESULT:    -5.761      2.811      6.733
REMARK INTER + INTRA:          -7.475
REMARK INTER:                  -6.953
REMARK INTRA:                  -0.522
REMARK UNBOUND:                -0.367
REMARK  Name = 
REMARK  7 active torsions:
REMARK  status: ('A' for Active; 'I' for Inactive)
REMARK    1  A    between atoms: C_1  and  C_2
REMARK    2  A    between atoms: C_2  and  C_3
REMARK    3  A    between atoms: C_2  and  C_4
REMARK    4  A    between atoms: C_2  and  C_5
REMARK    5  A    between atoms: C_9  and  C_10
REMARK    6  A    between atoms: N_16  and  C_17
REMARK    7  A    between atoms: C_17  and  C_18
REMARK                            x       y       z     vdW  Elec       q    Type
REMARK                         _______ _______ _______ _____ _____    ______ ____
ROOT
ATOM      1  C   UNL     1      47.749   4.686  16.018  0.00  0.00    +0.000 A 
ATOM      2  N   UNL     1      46.979   3.981  15.198  0.00  0.00    +0.000 NA
ATOM      3  C   UNL     1      46.796   4.727  14.068  0.00  0.00    +0.000 A 
ATOM      4  C   UNL     1      46.044   4.426  12.932  0.00  0.00    +0.000 A 
ATOM      5  C   UNL     1      46.043   5.400  11.947  0.00  0.00    +0.000 A 
ATOM      6  N   UNL     1      46.741   6.572  12.008  0.00  0.00    +0.000 NA
ATOM      7  C   UNL     1      47.476   6.842  13.115  0.00  0.00    +0.000 A 
ATOM      8  C   UNL     1      47.481   5.929  14.161  0.00  0.00    +0.000 A 
ATOM      9  N   UNL     1      48.021   5.921  15.439  0.00  0.00    +0.000 N 
ENDROOT
BRANCH   5  10
ATOM     10  C   UNL     1      45.183   5.192  10.735  0.00  0.00    +0.000 C 
ATOM     11  N   UNL     1      45.743   5.560   9.538  0.00  0.00    +0.000 N 
ATOM     12  O   UNL     1      44.049   4.741  10.792  0.00  0.00    +0.000 OA
ATOM     13  H   UNL     1      46.668   5.969   9.518  0.00  0.00    +0.000 HD
ATOM     14  H   UNL     1      45.191   5.488   8.693  0.00  0.00    +0.000 HD
ENDBRANCH   5  10
BRANCH   1  16
ATOM     15  C   UNL     1      47.438   2.847  17.683  0.00  0.00    +0.000 C 
ATOM     16  C   UNL     1      48.229   4.145  17.367  0.00  0.00    +0.000 C 
ATOM     17  C   UNL     1      47.982   5.102  18.542  0.00  0.00    +0.000 C 
ATOM     18  C   UNL     1      49.721   3.766  17.313  0.00  0.00    +0.000 C 
ENDBRANCH   1  16
BRANCH   9  19
ATOM     19  C   UNL     1      48.663   7.074  16.056  0.00  0.00    +0.000 C 
BRANCH  19  20
ATOM     20  C   UNL     1      50.098   7.295  15.620  0.00  0.00    +0.000 A 
ATOM     21  C   UNL     1      50.465   8.070  14.513  0.00  0.00    +0.000 A 
ATOM     22  C   UNL     1      51.808   8.185  14.184  0.00  0.00    +0.000 A 
ATOM     23  N   UNL     1      52.802   7.601  14.881  0.00  0.00    +0.000 NA
ATOM     24  C   UNL     1      52.442   6.880  15.961  0.00  0.00    +0.000 A 
ATOM     25  C   UNL     1      51.126   6.703  16.367  0.00  0.00    +0.000 A 
ENDBRANCH  19  20
ENDBRANCH   9  19
TORSDOF 4
ENDMDL
MODEL 5
REMARK VINA RESULT:    -5.706      2.299      5.883
REMARK INTER + INTRA:          -7.407
REMARK INTER:                  -7.489
REMARK INTRA:                   0.082
REMARK UNBOUND:                -0.367
REMARK  Name = 
REMARK  7 active torsions:
REMARK  status: ('A' for Active; 'I' for Inactive)
REMARK    1  A    between atoms: C_1  and  C_2
REMARK    2  A    between atoms: C_2  and  C_3
REMARK    3  A    between atoms: C_2  and  C_4
REMARK    4  A    between atoms: C_2  and  C_5
REMARK    5  A    between atoms: C_9  and  C_10
REMARK    6  A    between atoms: N_16  and  C_17
REMARK    7  A    between atoms: C_17  and  C_18
REMARK                            x       y       z     vdW  Elec       q    Type
REMARK                         _______ _______ _______ _____ _____    ______ ____
ROOT
ATOM      1  C   UNL     1      47.396   4.671  15.170  0.00  0.00    +0.000 A 
ATOM      2  N   UNL     1      46.690   3.705  14.594  0.00  0.00    +0.000 NA
ATOM      3  C   UNL     1      46.243   4.187  13.396  0.00  0.00    +0.000 A 
ATOM      4  C   UNL     1      45.442   3.557  12.443  0.00  0.00    +0.000 A 
ATOM      5  C   UNL     1      45.144   4.316  11.324  0.00  0.00    +0.000 A 
ATOM      6  N   UNL     1      45.607   5.580  11.093  0.00  0.00    +0.000 NA
ATOM      7  C   UNL     1      46.395   6.172  12.025  0.00  0.00    +0.000 A 
ATOM      8  C   UNL     1      46.691   5.483  13.193  0.00  0.00    +0.000 A 
ATOM      9  N   UNL     1      47.360   5.804  14.366  0.00  0.00    +0.000 N 
ENDROOT
BRANCH   5  10
ATOM     10  C   UNL     1      44.211   3.743  10.298  0.00  0.00    +0.000 C 
ATOM     11  N   UNL     1      43.900   4.571   9.248  0.00  0.00    +0.000 N 
ATOM     12  O   UNL     1      43.736   2.621  10.382  0.00  0.00    +0.000 OA
ATOM     13  H   UNL     1      44.272   5.512   9.220  0.00  0.00    +0.000 HD
ATOM     14  H   UNL     1      43.237   4.256   8.553  0.00  0.00    +0.000 HD
ENDBRANCH   5  10
BRANCH   1  16
ATOM     15  C   UNL     1      47.157   4.905  17.648  0.00  0.00    +0.000 C 
ATOM     16  C   UNL     1      48.119   4.479  16.506  0.00  0.00    +0.000 C 
ATOM     17  C   UNL     1      49.381   5.340  16.657  0.00  0.00    +0.000 C 
ATOM     18  C   UNL     1      48.473   2.998  16.738  0.00  0.00    +0.000 C 
ENDBRANCH   1  16
BRANCH   9  19
ATOM     19  C   UNL     1      47.834   7.144  14.688  0.00  0.00    +0.000 C 
BRANCH  19  20
ATOM     20  C   UNL     1      48.543   7.846  13.548  0.00  0.00    +0.000 A 
ATOM     21  C   UNL     1      48.098   9.044  12.974  0.00  0.00    +0.000 A 
ATOM     22  C   UNL     1      48.808   9.589  11.914  0.00  0.00    +0.000 A 
ATOM     23  N   UNL     1      49.926   9.039  11.399  0.00  0.00    +0.000 NA
ATOM     24  C   UNL     1      50.361   7.902  11.975  0.00  0.00    +0.000 A 
ATOM     25  C   UNL     1      49.718   7.278  13.036  0.00  0.00    +0.000 A 
ENDBRANCH  19  20
ENDBRANCH   9  19
TORSDOF 4
ENDMDL
MODEL 6
REMARK VINA RESULT:    -5.662      2.726      6.612
REMARK INTER + INTRA:          -7.353
REMARK INTER:                  -6.817
REMARK INTRA:                  -0.536
REMARK UNBOUND:                -0.367
REMARK  Name = 
REMARK  7 active torsions:
REMARK  status: ('A' for Active; 'I' for Inactive)
REMARK    1  A    between atoms: C_1  and  C_2
REMARK    2  A    between atoms: C_2  and  C_3
REMARK    3  A    between atoms: C_2  and  C_4
REMARK    4  A    between atoms: C_2  and  C_5
REMARK    5  A    between atoms: C_9  and  C_10
REMARK    6  A    between atoms: N_16  and  C_17
REMARK    7  A    between atoms: C_17  and  C_18
REMARK                            x       y       z     vdW  Elec       q    Type
REMARK                         _______ _______ _______ _____ _____    ______ ____
ROOT
ATOM      1  C   UNL     1      47.839   4.638  16.186  0.00  0.00    +0.000 A 
ATOM      2  N   UNL     1      46.835   4.230  15.419  0.00  0.00    +0.000 NA
ATOM      3  C   UNL     1      46.835   5.012  14.298  0.00  0.00    +0.000 A 
ATOM      4  C   UNL     1      45.960   4.986  13.212  0.00  0.00    +0.000 A 
ATOM      5  C   UNL     1      46.213   5.923  12.225  0.00  0.00    +0.000 A 
ATOM      6  N   UNL     1      47.255   6.807  12.236  0.00  0.00    +0.000 NA
ATOM      7  C   UNL     1      48.102   6.810  13.295  0.00  0.00    +0.000 A 
ATOM      8  C   UNL     1      47.875   5.928  14.342  0.00  0.00    +0.000 A 
ATOM      9  N   UNL     1      48.459   5.728  15.586  0.00  0.00    +0.000 N 
ENDROOT
BRANCH   5  10
ATOM     10  C   UNL     1      45.261   6.020  11.069  0.00  0.00    +0.000 C 
ATOM     11  N   UNL     1      44.469   7.141  11.042  0.00  0.00    +0.000 N 
ATOM     12  O   UNL     1      45.170   5.160  10.207  0.00  0.00    +0.000 OA
ATOM     13  H   UNL     1      44.533   7.821  11.789  0.00  0.00    +0.000 HD
ATOM     14  H   UNL     1      43.774   7.236  10.314  0.00  0.00    +0.000 HD
ENDBRANCH   5  10
BRANCH   1  16
ATOM     15  C   UNL     1      47.270   2.720  17.686  0.00  0.00    +0.000 C 
ATOM     16  C   UNL     1      48.200   3.951  17.506  0.00  0.00    +0.000 C 
ATOM     17  C   UNL     1      47.993   4.837  18.743  0.00  0.00    +0.000 C 
ATOM     18  C   UNL     1      49.648   3.427  17.482  0.00  0.00    +0.000 C 
ENDBRANCH   1  16
BRANCH   9  19
ATOM     19  C   UNL     1      49.475   6.603  16.155  0.00  0.00    +0.000 C 
BRANCH  19  20
ATOM     20  C   UNL     1      48.952   7.950  16.612  0.00  0.00    +0.000 A 
ATOM     21  C   UNL     1      49.115   9.136  15.886  0.00  0.00    +0.000 A 
ATOM     22  C   UNL     1      48.620  10.322  16.409  0.00  0.00    +0.000 A 
ATOM     23  N   UNL     1      47.968  10.408  17.585  0.00  0.00    +0.000 NA
ATOM     24  C   UNL     1      47.792   9.257  18.264  0.00  0.00    +0.000 A 
ATOM     25  C   UNL     1      48.254   8.023  17.826  0.00  0.00    +0.000 A 
ENDBRANCH  19  20
ENDBRANCH   9  19
TORSDOF 4
ENDMDL
MODEL 7
REMARK VINA RESULT:    -5.385      1.722      4.590
REMARK INTER + INTRA:          -7.011
REMARK INTER:                  -6.748
REMARK INTRA:                  -0.263
REMARK UNBOUND:                -0.367
REMARK  Name = 
REMARK  7 active torsions:
REMARK  status: ('A' for Active; 'I' for Inactive)
REMARK    1  A    between atoms: C_1  and  C_2
REMARK    2  A    between atoms: C_2  and  C_3
REMARK    3  A    between atoms: C_2  and  C_4
REMARK    4  A    between atoms: C_2  and  C_5
REMARK    5  A    between atoms: C_9  and  C_10
REMARK    6  A    between atoms: N_16  and  C_17
REMARK    7  A    between atoms: C_17  and  C_18
REMARK                            x       y       z     vdW  Elec       q    Type
REMARK                         _______ _______ _______ _____ _____    ______ ____
ROOT
ATOM      1  C   UNL     1      46.131   5.055  13.074  0.00  0.00    +0.000 A 
ATOM      2  N   UNL     1      46.375   3.912  13.703  0.00  0.00    +0.000 NA
ATOM      3  C   UNL     1      47.217   4.192  14.743  0.00  0.00    +0.000 A 
ATOM      4  C   UNL     1      47.777   3.318  15.676  0.00  0.00    +0.000 A 
ATOM      5  C   UNL     1      48.610   3.907  16.613  0.00  0.00    +0.000 A 
ATOM      6  N   UNL     1      48.869   5.245  16.696  0.00  0.00    +0.000 NA
ATOM      7  C   UNL     1      48.306   6.081  15.787  0.00  0.00    +0.000 A 
ATOM      8  C   UNL     1      47.500   5.548  14.791  0.00  0.00    +0.000 A 
ATOM      9  N   UNL     1      46.862   6.073  13.675  0.00  0.00    +0.000 N 
ENDROOT
BRANCH   5  10
ATOM     10  C   UNL     1      49.323   3.022  17.592  0.00  0.00    +0.000 C 
ATOM     11  N   UNL     1      48.846   3.051  18.878  0.00  0.00    +0.000 N 
ATOM     12  O   UNL     1      50.280   2.327  17.287  0.00  0.00    +0.000 OA
ATOM     13  H   UNL     1      48.079   3.665  19.118  0.00  0.00    +0.000 HD
ATOM     14  H   UNL     1      49.320   2.512  19.591  0.00  0.00    +0.000 HD
ENDBRANCH   5  10
BRANCH   1  16
ATOM     15  C   UNL     1      45.911   5.840  10.710  0.00  0.00    +0.000 C 
ATOM     16  C   UNL     1      45.168   5.152  11.887  0.00  0.00    +0.000 C 
ATOM     17  C   UNL     1      43.920   6.002  12.170  0.00  0.00    +0.000 C 
ATOM     18  C   UNL     1      44.742   3.754  11.401  0.00  0.00    +0.000 C 
ENDBRANCH   1  16
BRANCH   9  19
ATOM     19  C   UNL     1      47.043   7.440  13.205  0.00  0.00    +0.000 C 
BRANCH  19  20
ATOM     20  C   UNL     1      48.477   7.797  12.866  0.00  0.00    +0.000 A 
ATOM     21  C   UNL     1      49.289   8.604  13.672  0.00  0.00    +0.000 A 
ATOM     22  C   UNL     1      50.581   8.892  13.255  0.00  0.00    +0.000 A 
ATOM     23  N   UNL     1      51.119   8.427  12.111  0.00  0.00    +0.000 NA
ATOM     24  C   UNL     1      50.339   7.629  11.355  0.00  0.00    +0.000 A 
ATOM     25  C   UNL     1      49.035   7.288  11.686  0.00  0.00    +0.000 A 
ENDBRANCH  19  20
ENDBRANCH   9  19
TORSDOF 4
ENDMDL
MODEL 8
REMARK VINA RESULT:    -5.373      2.921      5.194
REMARK INTER + INTRA:          -6.996
REMARK INTER:                  -6.914
REMARK INTRA:                  -0.082
REMARK UNBOUND:                -0.367
REMARK  Name = 
REMARK  7 active torsions:
REMARK  status: ('A' for Active; 'I' for Inactive)
REMARK    1  A    between atoms: C_1  and  C_2
REMARK    2  A    between atoms: C_2  and  C_3
REMARK    3  A    between atoms: C_2  and  C_4
REMARK    4  A    between atoms: C_2  and  C_5
REMARK    5  A    between atoms: C_9  and  C_10
REMARK    6  A    between atoms: N_16  and  C_17
REMARK    7  A    between atoms: C_17  and  C_18
REMARK                            x       y       z     vdW  Elec       q    Type
REMARK                         _______ _______ _______ _____ _____    ______ ____
ROOT
ATOM      1  C   UNL     1      44.757   5.102  12.289  0.00  0.00    +0.000 A 
ATOM      2  N   UNL     1      45.564   5.251  13.333  0.00  0.00    +0.000 NA
ATOM      3  C   UNL     1      46.654   5.957  12.907  0.00  0.00    +0.000 A 
ATOM      4  C   UNL     1      47.786   6.339  13.628  0.00  0.00    +0.000 A 
ATOM      5  C   UNL     1      48.736   7.043  12.908  0.00  0.00    +0.000 A 
ATOM      6  N   UNL     1      48.614   7.404  11.597  0.00  0.00    +0.000 NA
ATOM      7  C   UNL     1      47.501   7.033  10.915  0.00  0.00    +0.000 A 
ATOM      8  C   UNL     1      46.531   6.283  11.565  0.00  0.00    +0.000 A 
ATOM      9  N   UNL     1      45.353   5.666  11.166  0.00  0.00    +0.000 N 
ENDROOT
BRANCH   5  10
ATOM     10  C   UNL     1      50.023   7.409  13.589  0.00  0.00    +0.000 C 
ATOM     11  N   UNL     1      51.016   7.884  12.769  0.00  0.00    +0.000 N 
ATOM     12  O   UNL     1      50.200   7.283  14.791  0.00  0.00    +0.000 OA
ATOM     13  H   UNL     1      50.861   7.941  11.770  0.00  0.00    +0.000 HD
ATOM     14  H   UNL     1      51.921   8.100  13.165  0.00  0.00    +0.000 HD
ENDBRANCH   5  10
BRANCH   1  16
ATOM     15  C   UNL     1      43.513   2.991  11.791  0.00  0.00    +0.000 C 
ATOM     16  C   UNL     1      43.392   4.417  12.394  0.00  0.00    +0.000 C 
ATOM     17  C   UNL     1      42.280   5.128  11.609  0.00  0.00    +0.000 C 
ATOM     18  C   UNL     1      42.964   4.254  13.865  0.00  0.00    +0.000 C 
ENDBRANCH   1  16
BRANCH   9  19
ATOM     19  C   UNL     1      44.916   5.571   9.780  0.00  0.00    +0.000 C 
BRANCH  19  20
ATOM     20  C   UNL     1      45.467   4.372   9.034  0.00  0.00    +0.000 A 
ATOM     21  C   UNL     1      45.141   3.045   9.344  0.00  0.00    +0.000 A 
ATOM     22  C   UNL     1      45.724   2.019   8.614  0.00  0.00    +0.000 A 
ATOM     23  N   UNL     1      46.587   2.218   7.599  0.00  0.00    +0.000 NA
ATOM     24  C   UNL     1      46.874   3.499   7.291  0.00  0.00    +0.000 A 
ATOM     25  C   UNL     1      46.346   4.592   7.965  0.00  0.00    +0.000 A 
ENDBRANCH  19  20
ENDBRANCH   9  19
TORSDOF 4
ENDMDL
MODEL 9
REMARK VINA RESULT:    -5.213      2.405      3.183
REMARK INTER + INTRA:          -6.799
REMARK INTER:                  -6.220
REMARK INTRA:                  -0.578
REMARK UNBOUND:                -0.367
REMARK  Name = 
REMARK  7 active torsions:
REMARK  status: ('A' for Active; 'I' for Inactive)
REMARK    1  A    between atoms: C_1  and  C_2
REMARK    2  A    between atoms: C_2  and  C_3
REMARK    3  A    between atoms: C_2  and  C_4
REMARK    4  A    between atoms: C_2  and  C_5
REMARK    5  A    between atoms: C_9  and  C_10
REMARK    6  A    between atoms: N_16  and  C_17
REMARK    7  A    between atoms: C_17  and  C_18
REMARK                            x       y       z     vdW  Elec       q    Type
REMARK                         _______ _______ _______ _____ _____    ______ ____
ROOT
ATOM      1  C   UNL     1      49.826   7.797  13.986  0.00  0.00    +0.000 A 
ATOM      2  N   UNL     1      49.921   7.325  15.223  0.00  0.00    +0.000 NA
ATOM      3  C   UNL     1      48.962   6.362  15.366  0.00  0.00    +0.000 A 
ATOM      4  C   UNL     1      48.650   5.597  16.490  0.00  0.00    +0.000 A 
ATOM      5  C   UNL     1      47.605   4.703  16.326  0.00  0.00    +0.000 A 
ATOM      6  N   UNL     1      46.919   4.508  15.161  0.00  0.00    +0.000 NA
ATOM      7  C   UNL     1      47.244   5.253  14.075  0.00  0.00    +0.000 A 
ATOM      8  C   UNL     1      48.250   6.203  14.187  0.00  0.00    +0.000 A 
ATOM      9  N   UNL     1      48.762   7.177  13.340  0.00  0.00    +0.000 N 
ENDROOT
BRANCH   5  10
ATOM     10  C   UNL     1      47.148   3.910  17.516  0.00  0.00    +0.000 C 
ATOM     11  N   UNL     1      47.551   4.385  18.738  0.00  0.00    +0.000 N 
ATOM     12  O   UNL     1      46.476   2.895  17.421  0.00  0.00    +0.000 OA
ATOM     13  H   UNL     1      48.143   5.205  18.791  0.00  0.00    +0.000 HD
ATOM     14  H   UNL     1      47.315   3.863  19.572  0.00  0.00    +0.000 HD
ENDBRANCH   5  10
BRANCH   1  16
ATOM     15  C   UNL     1      52.115   8.773  14.233  0.00  0.00    +0.000 C 
ATOM     16  C   UNL     1      50.789   8.851  13.430  0.00  0.00    +0.000 C 
ATOM     17  C   UNL     1      50.278  10.292  13.572  0.00  0.00    +0.000 C 
ATOM     18  C   UNL     1      51.132   8.567  11.956  0.00  0.00    +0.000 C 
ENDBRANCH   1  16
BRANCH   9  19
ATOM     19  C   UNL     1      48.181   7.517  12.049  0.00  0.00    +0.000 C 
BRANCH  19  20
ATOM     20  C   UNL     1      47.099   8.577  12.112  0.00  0.00    +0.000 A 
ATOM     21  C   UNL     1      45.783   8.322  12.516  0.00  0.00    +0.000 A 
ATOM     22  C   UNL     1      44.863   9.361  12.511  0.00  0.00    +0.000 A 
ATOM     23  N   UNL     1      45.160  10.624  12.150  0.00  0.00    +0.000 NA
ATOM     24  C   UNL     1      46.436  10.865  11.789  0.00  0.00    +0.000 A 
ATOM     25  C   UNL     1      47.426   9.893  11.757  0.00  0.00    +0.000 A 
ENDBRANCH  19  20
ENDBRANCH   9  19
TORSDOF 4
ENDMDL
