MODEL 1
REMARK VINA RESULT:    -8.809      0.000      0.000
REMARK INTER + INTRA:         -10.296
REMARK INTER:                 -10.354
REMARK INTRA:                   0.058
REMARK UNBOUND:                 0.058
REMARK  Name = 
REMARK  3 active torsions:
REMARK  status: ('A' for Active; 'I' for Inactive)
REMARK    1  A    between atoms: C_2  and  C_4
REMARK    2  A    between atoms: N_8  and  C_9
REMARK    3  A    between atoms: C_9  and  C_10
REMARK                            x       y       z     vdW  Elec       q    Type
REMARK                         _______ _______ _______ _____ _____    ______ ____
ROOT
ATOM      1  C   UNL     1      46.446   2.709   7.532  0.00  0.00    +0.000 A 
ATOM      2  C   UNL     1      46.123   4.029   7.812  0.00  0.00    +0.000 A 
ATOM      3  C   UNL     1      45.297   4.306   8.901  0.00  0.00    +0.000 A 
ATOM      4  C   UNL     1      44.810   3.273   9.695  0.00  0.00    +0.000 A 
ATOM      5  N   UNL     1      43.972   3.494  10.797  0.00  0.00    +0.000 N 
ATOM      6  N   UNL     1      45.103   1.985   9.418  0.00  0.00    +0.000 NA
ATOM      7  C   UNL     1      45.899   1.728   8.344  0.00  0.00    +0.000 A 
ATOM      8  H   UNL     1      43.838   2.608  11.277  0.00  0.00    +0.000 HD
ENDROOT
BRANCH   1  10
ATOM      9  N   UNL     1      47.257   3.103   5.278  0.00  0.00    +0.000 N 
ATOM     10  C   UNL     1      47.320   2.328   6.402  0.00  0.00    +0.000 C 
ATOM     11  O   UNL     1      48.087   1.379   6.484  0.00  0.00    +0.000 OA
ATOM     12  H   UNL     1      47.928   2.891   4.544  0.00  0.00    +0.000 HD
ATOM     13  H   UNL     1      46.821   4.014   5.259  0.00  0.00    +0.000 HD
ENDBRANCH   1  10
BRANCH   5  14
ATOM     14  C   UNL     1      43.901   4.757  11.542  0.00  0.00    +0.000 C 
ATOM     15  C   UNL     1      42.599   5.155  12.215  0.00  0.00    +0.000 C 
ATOM     16  C   UNL     1      43.028   5.874  10.981  0.00  0.00    +0.000 C 
BRANCH  14  17
ATOM     17  C   UNL     1      45.225   5.212  12.162  0.00  0.00    +0.000 A 
ATOM     18  C   UNL     1      46.003   6.224  11.571  0.00  0.00    +0.000 A 
ATOM     19  C   UNL     1      47.167   6.703  12.186  0.00  0.00    +0.000 A 
ATOM     20  C   UNL     1      47.597   6.162  13.398  0.00  0.00    +0.000 A 
ATOM     21 CL   UNL     1      49.009   6.827  14.133  0.00  0.00    +0.000 Cl
ATOM     22  C   UNL     1      46.868   5.127  13.983  0.00  0.00    +0.000 A 
ATOM     23 CL   UNL     1      47.337   4.371  15.466  0.00  0.00    +0.000 Cl
ATOM     24  C   UNL     1      45.695   4.673  13.373  0.00  0.00    +0.000 A 
ENDBRANCH  14  17
ENDBRANCH   5  14
TORSDOF 3
ENDMDL
MODEL 2
REMARK VINA RESULT:    -8.361      4.253      6.502
REMARK INTER + INTRA:          -9.769
REMARK INTER:                  -9.262
REMARK INTRA:                  -0.507
REMARK UNBOUND:                 0.058
REMARK  Name = 
REMARK  3 active torsions:
REMARK  status: ('A' for Active; 'I' for Inactive)
REMARK    1  A    between atoms: C_2  and  C_4
REMARK    2  A    between atoms: N_8  and  C_9
REMARK    3  A    between atoms: C_9  and  C_10
REMARK                            x       y       z     vdW  Elec       q    Type
REMARK                         _______ _______ _______ _____ _____    ______ ____
ROOT
ATOM      1  C   UNL     1      47.764   5.948  14.360  0.00  0.00    +0.000 A 
ATOM      2  C   UNL     1      47.264   6.226  13.096  0.00  0.00    +0.000 A 
ATOM      3  C   UNL     1      46.486   5.266  12.451  0.00  0.00    +0.000 A 
ATOM      4  C   UNL     1      46.213   4.049  13.069  0.00  0.00    +0.000 A 
ATOM      5  N   UNL     1      45.443   3.047  12.463  0.00  0.00    +0.000 N 
ATOM      6  N   UNL     1      46.712   3.763  14.289  0.00  0.00    +0.000 NA
ATOM      7  C   UNL     1      47.482   4.704  14.903  0.00  0.00    +0.000 A 
ATOM      8  H   UNL     1      45.296   2.306  13.143  0.00  0.00    +0.000 HD
ENDROOT
BRANCH   1  10
ATOM      9  N   UNL     1      48.027   8.124  15.402  0.00  0.00    +0.000 N 
ATOM     10  C   UNL     1      48.590   6.911  15.118  0.00  0.00    +0.000 C 
ATOM     11  O   UNL     1      49.715   6.622  15.501  0.00  0.00    +0.000 OA
ATOM     12  H   UNL     1      48.565   8.743  16.004  0.00  0.00    +0.000 HD
ATOM     13  H   UNL     1      47.038   8.309  15.312  0.00  0.00    +0.000 HD
ENDBRANCH   1  10
BRANCH   5  14
ATOM     14  C   UNL     1      44.454   3.289  11.405  0.00  0.00    +0.000 C 
ATOM     15  C   UNL     1      43.265   4.191  11.687  0.00  0.00    +0.000 C 
ATOM     16  C   UNL     1      43.052   2.718  11.589  0.00  0.00    +0.000 C 
BRANCH  14  17
ATOM     17  C   UNL     1      45.008   3.214   9.980  0.00  0.00    +0.000 A 
ATOM     18  C   UNL     1      45.093   4.356   9.164  0.00  0.00    +0.000 A 
ATOM     19  C   UNL     1      45.683   4.304   7.895  0.00  0.00    +0.000 A 
ATOM     20  C   UNL     1      46.180   3.100   7.398  0.00  0.00    +0.000 A 
ATOM     21 CL   UNL     1      46.942   3.108   5.850  0.00  0.00    +0.000 Cl
ATOM     22  C   UNL     1      46.070   1.942   8.169  0.00  0.00    +0.000 A 
ATOM     23 CL   UNL     1      46.628   0.398   7.628  0.00  0.00    +0.000 Cl
ATOM     24  C   UNL     1      45.500   2.010   9.444  0.00  0.00    +0.000 A 
ENDBRANCH  14  17
ENDBRANCH   5  14
TORSDOF 3
ENDMDL
MODEL 3
REMARK VINA RESULT:    -7.103      4.273      6.491
REMARK INTER + INTRA:          -8.291
REMARK INTER:                  -8.852
REMARK INTRA:                   0.561
REMARK UNBOUND:                 0.058
REMARK  Name = 
REMARK  3 active torsions:
REMARK  status: ('A' for Active; 'I' for Inactive)
REMARK    1  A    between atoms: C_2  and  C_4
REMARK    2  A    between atoms: N_8  and  C_9
REMARK    3  A    between atoms: C_9  and  C_10
REMARK                            x       y       z     vdW  Elec       q    Type
REMARK                         _______ _______ _______ _____ _____    ______ ____
ROOT
ATOM      1  C   UNL     1      47.114   7.684  12.945  0.00  0.00    +0.000 A 
ATOM      2  C   UNL     1      47.143   6.321  13.203  0.00  0.00    +0.000 A 
ATOM      3  C   UNL     1      46.212   5.494  12.576  0.00  0.00    +0.000 A 
ATOM      4  C   UNL     1      45.271   6.030  11.703  0.00  0.00    +0.000 A 
ATOM      5  N   UNL     1      44.308   5.246  11.051  0.00  0.00    +0.000 N 
ATOM      6  N   UNL     1      45.222   7.357  11.462  0.00  0.00    +0.000 NA
ATOM      7  C   UNL     1      46.129   8.155  12.091  0.00  0.00    +0.000 A 
ATOM      8  H   UNL     1      43.810   5.839  10.393  0.00  0.00    +0.000 HD
ENDROOT
BRANCH   1  10
ATOM      9  N   UNL     1      47.753   9.959  13.498  0.00  0.00    +0.000 N 
ATOM     10  C   UNL     1      48.068   8.630  13.561  0.00  0.00    +0.000 C 
ATOM     11  O   UNL     1      49.078   8.237  14.128  0.00  0.00    +0.000 OA
ATOM     12  H   UNL     1      48.365  10.593  14.005  0.00  0.00    +0.000 HD
ATOM     13  H   UNL     1      46.834  10.298  13.254  0.00  0.00    +0.000 HD
ENDBRANCH   1  10
BRANCH   5  14
ATOM     14  C   UNL     1      44.448   3.808  10.794  0.00  0.00    +0.000 C 
ATOM     15  C   UNL     1      43.397   2.848  11.325  0.00  0.00    +0.000 C 
ATOM     16  C   UNL     1      44.737   2.891  11.979  0.00  0.00    +0.000 C 
BRANCH  14  17
ATOM     17  C   UNL     1      45.188   3.456   9.501  0.00  0.00    +0.000 A 
ATOM     18  C   UNL     1      45.617   4.451   8.606  0.00  0.00    +0.000 A 
ATOM     19  C   UNL     1      46.373   4.135   7.470  0.00  0.00    +0.000 A 
ATOM     20  C   UNL     1      46.696   2.808   7.186  0.00  0.00    +0.000 A 
ATOM     21 CL   UNL     1      47.673   2.485   5.800  0.00  0.00    +0.000 Cl
ATOM     22  C   UNL     1      46.245   1.797   8.033  0.00  0.00    +0.000 A 
ATOM     23 CL   UNL     1      46.568   0.122   7.750  0.00  0.00    +0.000 Cl
ATOM     24  C   UNL     1      45.512   2.126   9.177  0.00  0.00    +0.000 A 
ENDBRANCH  14  17
ENDBRANCH   5  14
TORSDOF 3
ENDMDL
MODEL 4
REMARK VINA RESULT:    -6.653      4.667      7.070
REMARK INTER + INTRA:          -7.762
REMARK INTER:                  -7.328
REMARK INTRA:                  -0.435
REMARK UNBOUND:                 0.058
REMARK  Name = 
REMARK  3 active torsions:
REMARK  status: ('A' for Active; 'I' for Inactive)
REMARK    1  A    between atoms: C_2  and  C_4
REMARK    2  A    between atoms: N_8  and  C_9
REMARK    3  A    between atoms: C_9  and  C_10
REMARK                            x       y       z     vdW  Elec       q    Type
REMARK                         _______ _______ _______ _____ _____    ______ ____
ROOT
ATOM      1  C   UNL     1      48.266   3.897  17.426  0.00  0.00    +0.000 A 
ATOM      2  C   UNL     1      47.660   5.019  16.881  0.00  0.00    +0.000 A 
ATOM      3  C   UNL     1      47.170   4.958  15.578  0.00  0.00    +0.000 A 
ATOM      4  C   UNL     1      47.285   3.785  14.837  0.00  0.00    +0.000 A 
ATOM      5  N   UNL     1      46.816   3.670  13.521  0.00  0.00    +0.000 N 
ATOM      6  N   UNL     1      47.890   2.695  15.352  0.00  0.00    +0.000 NA
ATOM      7  C   UNL     1      48.376   2.773  16.622  0.00  0.00    +0.000 A 
ATOM      8  H   UNL     1      46.915   2.700  13.233  0.00  0.00    +0.000 HD
ENDROOT
BRANCH   1  10
ATOM      9  N   UNL     1      48.256   2.969  19.669  0.00  0.00    +0.000 N 
ATOM     10  C   UNL     1      48.805   3.873  18.802  0.00  0.00    +0.000 C 
ATOM     11  O   UNL     1      49.722   4.607  19.139  0.00  0.00    +0.000 OA
ATOM     12  H   UNL     1      48.696   2.893  20.583  0.00  0.00    +0.000 HD
ATOM     13  H   UNL     1      47.674   2.200  19.370  0.00  0.00    +0.000 HD
ENDBRANCH   1  10
BRANCH   5  14
ATOM     14  C   UNL     1      45.761   4.511  12.942  0.00  0.00    +0.000 C 
ATOM     15  C   UNL     1      44.307   4.217  13.271  0.00  0.00    +0.000 C 
ATOM     16  C   UNL     1      44.828   3.884  11.913  0.00  0.00    +0.000 C 
BRANCH  14  17
ATOM     17  C   UNL     1      46.178   5.955  12.651  0.00  0.00    +0.000 A 
ATOM     18  C   UNL     1      45.300   7.031  12.869  0.00  0.00    +0.000 A 
ATOM     19  C   UNL     1      45.711   8.358  12.690  0.00  0.00    +0.000 A 
ATOM     20  C   UNL     1      47.009   8.641  12.261  0.00  0.00    +0.000 A 
ATOM     21 CL   UNL     1      47.475  10.295  12.107  0.00  0.00    +0.000 Cl
ATOM     22  C   UNL     1      47.887   7.590  11.995  0.00  0.00    +0.000 A 
ATOM     23 CL   UNL     1      49.502   7.838  11.431  0.00  0.00    +0.000 Cl
ATOM     24  C   UNL     1      47.472   6.271  12.201  0.00  0.00    +0.000 A 
ENDBRANCH  14  17
ENDBRANCH   5  14
TORSDOF 3
ENDMDL
MODEL 5
REMARK VINA RESULT:    -6.626      4.286      6.272
REMARK INTER + INTRA:          -7.730
REMARK INTER:                  -8.038
REMARK INTRA:                   0.308
REMARK UNBOUND:                 0.058
REMARK  Name = 
REMARK  3 active torsions:
REMARK  status: ('A' for Active; 'I' for Inactive)
REMARK    1  A    between atoms: C_2  and  C_4
REMARK    2  A    between atoms: N_8  and  C_9
REMARK    3  A    between atoms: C_9  and  C_10
REMARK                            x       y       z     vdW  Elec       q    Type
REMARK                         _______ _______ _______ _____ _____    ______ ____
ROOT
ATOM      1  C   UNL     1      48.306   6.944  13.908  0.00  0.00    +0.000 A 
ATOM      2  C   UNL     1      47.639   5.728  13.910  0.00  0.00    +0.000 A 
ATOM      3  C   UNL     1      46.348   5.664  13.386  0.00  0.00    +0.000 A 
ATOM      4  C   UNL     1      45.742   6.804  12.867  0.00  0.00    +0.000 A 
ATOM      5  N   UNL     1      44.446   6.798  12.335  0.00  0.00    +0.000 N 
ATOM      6  N   UNL     1      46.376   7.995  12.880  0.00  0.00    +0.000 NA
ATOM      7  C   UNL     1      47.631   8.046  13.407  0.00  0.00    +0.000 A 
ATOM      8  H   UNL     1      44.266   7.712  11.926  0.00  0.00    +0.000 HD
ENDROOT
BRANCH   1  10
ATOM      9  N   UNL     1      50.565   7.797  13.665  0.00  0.00    +0.000 N 
ATOM     10  C   UNL     1      49.678   7.099  14.436  0.00  0.00    +0.000 C 
ATOM     11  O   UNL     1      49.994   6.649  15.528  0.00  0.00    +0.000 OA
ATOM     12  H   UNL     1      51.477   7.980  14.077  0.00  0.00    +0.000 HD
ATOM     13  H   UNL     1      50.285   8.374  12.886  0.00  0.00    +0.000 HD
ENDBRANCH   1  10
BRANCH   5  14
ATOM     14  C   UNL     1      43.774   5.605  11.805  0.00  0.00    +0.000 C 
ATOM     15  C   UNL     1      42.269   5.467  11.955  0.00  0.00    +0.000 C 
ATOM     16  C   UNL     1      43.164   4.624  12.799  0.00  0.00    +0.000 C 
BRANCH  14  17
ATOM     17  C   UNL     1      44.460   4.966  10.595  0.00  0.00    +0.000 A 
ATOM     18  C   UNL     1      45.363   5.690   9.796  0.00  0.00    +0.000 A 
ATOM     19  C   UNL     1      46.059   5.080   8.744  0.00  0.00    +0.000 A 
ATOM     20  C   UNL     1      45.850   3.732   8.449  0.00  0.00    +0.000 A 
ATOM     21 CL   UNL     1      46.773   3.022   7.177  0.00  0.00    +0.000 Cl
ATOM     22  C   UNL     1      44.927   3.002   9.199  0.00  0.00    +0.000 A 
ATOM     23 CL   UNL     1      44.576   1.338   8.891  0.00  0.00    +0.000 Cl
ATOM     24  C   UNL     1      44.255   3.616  10.261  0.00  0.00    +0.000 A 
ENDBRANCH  14  17
ENDBRANCH   5  14
TORSDOF 3
ENDMDL
MODEL 6
REMARK VINA RESULT:    -6.612      2.948      3.547
REMARK INTER + INTRA:          -7.713
REMARK INTER:                  -7.134
REMARK INTRA:                  -0.579
REMARK UNBOUND:                 0.058
REMARK  Name = 
REMARK  3 active torsions:
REMARK  status: ('A' for Active; 'I' for Inactive)
REMARK    1  A    between atoms: C_2  and  C_4
REMARK    2  A    between atoms: N_8  and  C_9
REMARK    3  A    between atoms: C_9  and  C_10
REMARK                            x       y       z     vdW  Elec       q    Type
REMARK                         _______ _______ _______ _____ _____    ______ ____
ROOT
ATOM      1  C   UNL     1      46.310   3.657   7.332  0.00  0.00    +0.000 A 
ATOM      2  C   UNL     1      46.751   4.611   8.237  0.00  0.00    +0.000 A 
ATOM      3  C   UNL     1      45.886   5.040   9.243  0.00  0.00    +0.000 A 
ATOM      4  C   UNL     1      44.602   4.514   9.338  0.00  0.00    +0.000 A 
ATOM      5  N   UNL     1      43.690   4.913  10.325  0.00  0.00    +0.000 N 
ATOM      6  N   UNL     1      44.158   3.600   8.450  0.00  0.00    +0.000 NA
ATOM      7  C   UNL     1      45.008   3.199   7.465  0.00  0.00    +0.000 A 
ATOM      8  H   UNL     1      42.868   4.319  10.256  0.00  0.00    +0.000 HD
ENDROOT
BRANCH   1  10
ATOM      9  N   UNL     1      48.397   2.665   6.589  0.00  0.00    +0.000 N 
ATOM     10  C   UNL     1      47.164   3.141   6.241  0.00  0.00    +0.000 C 
ATOM     11  O   UNL     1      46.770   3.113   5.084  0.00  0.00    +0.000 OA
ATOM     12  H   UNL     1      48.938   2.226   5.848  0.00  0.00    +0.000 HD
ATOM     13  H   UNL     1      48.660   2.456   7.541  0.00  0.00    +0.000 HD
ENDBRANCH   1  10
BRANCH   5  14
ATOM     14  C   UNL     1      44.071   5.505  11.613  0.00  0.00    +0.000 C 
ATOM     15  C   UNL     1      44.812   4.658  12.634  0.00  0.00    +0.000 C 
ATOM     16  C   UNL     1      43.378   4.992  12.871  0.00  0.00    +0.000 C 
BRANCH  14  17
ATOM     17  C   UNL     1      44.325   7.014  11.577  0.00  0.00    +0.000 A 
ATOM     18  C   UNL     1      45.491   7.575  12.126  0.00  0.00    +0.000 A 
ATOM     19  C   UNL     1      45.767   8.944  12.012  0.00  0.00    +0.000 A 
ATOM     20  C   UNL     1      44.866   9.792  11.366  0.00  0.00    +0.000 A 
ATOM     21 CL   UNL     1      45.283  11.459  11.211  0.00  0.00    +0.000 Cl
ATOM     22  C   UNL     1      43.681   9.268  10.851  0.00  0.00    +0.000 A 
ATOM     23 CL   UNL     1      42.490  10.242  10.062  0.00  0.00    +0.000 Cl
ATOM     24  C   UNL     1      43.428   7.897  10.950  0.00  0.00    +0.000 A 
ENDBRANCH  14  17
ENDBRANCH   5  14
TORSDOF 3
ENDMDL
MODEL 7
REMARK VINA RESULT:    -6.260      4.666      6.815
REMARK INTER + INTRA:          -7.300
REMARK INTER:                  -6.895
REMARK INTRA:                  -0.405
REMARK UNBOUND:                 0.058
REMARK  Name = 
REMARK  3 active torsions:
REMARK  status: ('A' for Active; 'I' for Inactive)
REMARK    1  A    between atoms: C_2  and  C_4
REMARK    2  A    between atoms: N_8  and  C_9
REMARK    3  A    between atoms: C_9  and  C_10
REMARK                            x       y       z     vdW  Elec       q    Type
REMARK                         _______ _______ _______ _____ _____    ______ ____
ROOT
ATOM      1  C   UNL     1      46.066   5.128  12.553  0.00  0.00    +0.000 A 
ATOM      2  C   UNL     1      46.280   4.093  13.451  0.00  0.00    +0.000 A 
ATOM      3  C   UNL     1      47.067   4.327  14.578  0.00  0.00    +0.000 A 
ATOM      4  C   UNL     1      47.625   5.583  14.798  0.00  0.00    +0.000 A 
ATOM      5  N   UNL     1      48.428   5.871  15.910  0.00  0.00    +0.000 N 
ATOM      6  N   UNL     1      47.438   6.590  13.920  0.00  0.00    +0.000 NA
ATOM      7  C   UNL     1      46.678   6.344  12.817  0.00  0.00    +0.000 A 
ATOM      8  H   UNL     1      48.627   6.869  15.908  0.00  0.00    +0.000 HD
ENDROOT
BRANCH   1  10
ATOM      9  N   UNL     1      44.932   6.105  10.643  0.00  0.00    +0.000 N 
ATOM     10  C   UNL     1      45.239   4.969  11.338  0.00  0.00    +0.000 C 
ATOM     11  O   UNL     1      44.874   3.866  10.957  0.00  0.00    +0.000 OA
ATOM     12  H   UNL     1      44.444   5.977   9.760  0.00  0.00    +0.000 HD
ATOM     13  H   UNL     1      45.401   6.987  10.789  0.00  0.00    +0.000 HD
ENDBRANCH   1  10
BRANCH   5  14
ATOM     14  C   UNL     1      48.390   5.126  17.174  0.00  0.00    +0.000 C 
ATOM     15  C   UNL     1      47.061   4.923  17.881  0.00  0.00    +0.000 C 
ATOM     16  C   UNL     1      48.045   5.891  18.448  0.00  0.00    +0.000 C 
BRANCH  14  17
ATOM     17  C   UNL     1      49.481   4.064  17.326  0.00  0.00    +0.000 A 
ATOM     18  C   UNL     1      49.204   2.696  17.154  0.00  0.00    +0.000 A 
ATOM     19  C   UNL     1      50.220   1.732  17.204  0.00  0.00    +0.000 A 
ATOM     20  C   UNL     1      51.539   2.112  17.453  0.00  0.00    +0.000 A 
ATOM     21 CL   UNL     1      52.755   0.888  17.451  0.00  0.00    +0.000 Cl
ATOM     22  C   UNL     1      51.835   3.458  17.671  0.00  0.00    +0.000 A 
ATOM     23 CL   UNL     1      53.432   4.022  18.018  0.00  0.00    +0.000 Cl
ATOM     24  C   UNL     1      50.817   4.413  17.596  0.00  0.00    +0.000 A 
ENDBRANCH  14  17
ENDBRANCH   5  14
TORSDOF 3
ENDMDL
MODEL 8
REMARK VINA RESULT:    -6.187      3.699      5.691
REMARK INTER + INTRA:          -7.214
REMARK INTER:                  -6.725
REMARK INTRA:                  -0.489
REMARK UNBOUND:                 0.058
REMARK  Name = 
REMARK  3 active torsions:
REMARK  status: ('A' for Active; 'I' for Inactive)
REMARK    1  A    between atoms: C_2  and  C_4
REMARK    2  A    between atoms: N_8  and  C_9
REMARK    3  A    between atoms: C_9  and  C_10
REMARK                            x       y       z     vdW  Elec       q    Type
REMARK                         _______ _______ _______ _____ _____    ______ ____
ROOT
ATOM      1  C   UNL     1      44.689   5.221  10.985  0.00  0.00    +0.000 A 
ATOM      2  C   UNL     1      45.995   5.622  10.742  0.00  0.00    +0.000 A 
ATOM      3  C   UNL     1      46.587   6.552  11.596  0.00  0.00    +0.000 A 
ATOM      4  C   UNL     1      45.878   7.065  12.677  0.00  0.00    +0.000 A 
ATOM      5  N   UNL     1      46.422   8.006  13.563  0.00  0.00    +0.000 N 
ATOM      6  N   UNL     1      44.601   6.696  12.909  0.00  0.00    +0.000 NA
ATOM      7  C   UNL     1      44.030   5.798  12.060  0.00  0.00    +0.000 A 
ATOM      8  H   UNL     1      45.761   8.146  14.322  0.00  0.00    +0.000 HD
ENDROOT
BRANCH   1  10
ATOM      9  N   UNL     1      44.070   4.413   8.782  0.00  0.00    +0.000 N 
ATOM     10  C   UNL     1      43.989   4.236  10.135  0.00  0.00    +0.000 C 
ATOM     11  O   UNL     1      43.391   3.287  10.622  0.00  0.00    +0.000 OA
ATOM     12  H   UNL     1      43.666   3.680   8.205  0.00  0.00    +0.000 HD
ATOM     13  H   UNL     1      44.736   5.033   8.345  0.00  0.00    +0.000 HD
ENDBRANCH   1  10
BRANCH   5  14
ATOM     14  C   UNL     1      47.860   8.194  13.789  0.00  0.00    +0.000 C 
ATOM     15  C   UNL     1      48.633   7.157  14.585  0.00  0.00    +0.000 C 
ATOM     16  C   UNL     1      48.332   8.477  15.211  0.00  0.00    +0.000 C 
BRANCH  14  17
ATOM     17  C   UNL     1      48.585   8.979  12.692  0.00  0.00    +0.000 A 
ATOM     18  C   UNL     1      48.072  10.189  12.194  0.00  0.00    +0.000 A 
ATOM     19  C   UNL     1      48.781  10.952  11.257  0.00  0.00    +0.000 A 
ATOM     20  C   UNL     1      50.012  10.508  10.774  0.00  0.00    +0.000 A 
ATOM     21 CL   UNL     1      50.863  11.514   9.660  0.00  0.00    +0.000 Cl
ATOM     22  C   UNL     1      50.523   9.289  11.218  0.00  0.00    +0.000 A 
ATOM     23 CL   UNL     1      52.024   8.640  10.656  0.00  0.00    +0.000 Cl
ATOM     24  C   UNL     1      49.819   8.548  12.172  0.00  0.00    +0.000 A 
ENDBRANCH  14  17
ENDBRANCH   5  14
TORSDOF 3
ENDMDL
