MODEL 1
REMARK VINA RESULT:    -7.536      0.000      0.000
REMARK INTER + INTRA:         -11.380
REMARK INTER:                 -10.620
REMARK INTRA:                  -0.760
REMARK UNBOUND:                -0.760
REMARK  Name = 
REMARK  8 active torsions:
REMARK  status: ('A' for Active; 'I' for Inactive)
REMARK    1  A    between atoms: C_1  and  O_2
REMARK    2  A    between atoms: O_2  and  C_3
REMARK    3  A    between atoms: C_8  and  C_9
REMARK    4  A    between atoms: N_11  and  C_12
REMARK    5  A    between atoms: C_12  and  C_13
REMARK    6  A    between atoms: C_16  and  C_17
REMARK    7  A    between atoms: C_17  and  N_18
REMARK    8  A    between atoms: C_19  and  C_21
REMARK                            x       y       z     vdW  Elec       q    Type
REMARK                         _______ _______ _______ _____ _____    ______ ____
ROOT
ATOM      1  C   UNL     1      45.927   4.621  13.006  0.00  0.00    +0.000 A 
ATOM      2  C   UNL     1      46.505   3.996  14.119  0.00  0.00    +0.000 A 
ATOM      3  C   UNL     1      47.398   4.690  14.949  0.00  0.00    +0.000 A 
ATOM      4  C   UNL     1      47.720   6.029  14.693  0.00  0.00    +0.000 A 
ATOM      5  C   UNL     1      47.166   6.644  13.562  0.00  0.00    +0.000 A 
ATOM      6  C   UNL     1      46.272   5.953  12.736  0.00  0.00    +0.000 A 
ENDROOT
BRANCH   1   7
ATOM      7  C   UNL     1      44.954   3.883  12.118  0.00  0.00    +0.000 C 
BRANCH   7  10
ATOM      8  C   UNL     1      44.883   2.654   9.970  0.00  0.00    +0.000 C 
ATOM      9  O   UNL     1      43.784   2.172  10.224  0.00  0.00    +0.000 OA
ATOM     10  N   UNL     1      45.532   3.508  10.849  0.00  0.00    +0.000 N 
ATOM     11  H   UNL     1      46.454   3.838  10.576  0.00  0.00    +0.000 HD
BRANCH   8  17
ATOM     12  C   UNL     1      45.922   3.365   7.732  0.00  0.00    +0.000 A 
ATOM     13  C   UNL     1      46.645   2.970   6.598  0.00  0.00    +0.000 A 
ATOM     14  C   UNL     1      47.053   1.646   6.450  0.00  0.00    +0.000 A 
ATOM     15  C   UNL     1      46.728   0.742   7.442  0.00  0.00    +0.000 A 
ATOM     16  N   UNL     1      46.038   1.067   8.555  0.00  0.00    +0.000 NA
ATOM     17  C   UNL     1      45.650   2.378   8.690  0.00  0.00    +0.000 A 
BRANCH  12  19
ATOM     18  C   UNL     1      46.402   5.477   8.724  0.00  0.00    +0.000 C 
ATOM     19  O   UNL     1      45.532   4.657   7.950  0.00  0.00    +0.000 OA
ENDBRANCH  12  19
ENDBRANCH   8  17
ENDBRANCH   7  10
ENDBRANCH   1   7
BRANCH   4  20
ATOM     20  C   UNL     1      48.659   6.791  15.596  0.00  0.00    +0.000 C 
BRANCH  20  21
ATOM     21  N   UNL     1      49.718   5.948  16.090  0.00  0.00    +0.000 N 
ATOM     22  C   UNL     1      49.967   5.820  17.435  0.00  0.00    +0.000 C 
ATOM     23  O   UNL     1      49.267   6.371  18.283  0.00  0.00    +0.000 OA
ATOM     24  H   UNL     1      50.438   5.687  15.427  0.00  0.00    +0.000 HD
BRANCH  22  25
ATOM     25  C   UNL     1      51.078   4.938  17.813  0.00  0.00    +0.000 A 
ATOM     26  C   UNL     1      52.225   5.476  18.383  0.00  0.00    +0.000 A 
ATOM     27  S   UNL     1      53.386   4.306  18.822  0.00  0.00    +0.000 S 
ATOM     28  C   UNL     1      52.423   3.042  18.214  0.00  0.00    +0.000 A 
ATOM     29  N   UNL     1      52.850   1.751  18.264  0.00  0.00    +0.000 NA
ATOM     30  C   UNL     1      52.037   0.899  17.737  0.00  0.00    +0.000 A 
ATOM     31  N   UNL     1      50.832   1.221  17.166  0.00  0.00    +0.000 N 
ATOM     32  C   UNL     1      50.348   2.506  17.117  0.00  0.00    +0.000 A 
ATOM     33  O   UNL     1      49.250   2.755  16.631  0.00  0.00    +0.000 OA
ATOM     34  C   UNL     1      51.227   3.505  17.694  0.00  0.00    +0.000 A 
ATOM     35  H   UNL     1      50.237   0.506  16.774  0.00  0.00    +0.000 HD
ENDBRANCH  22  25
ENDBRANCH  20  21
ENDBRANCH   4  20
TORSDOF 7
ENDMDL
MODEL 2
REMARK VINA RESULT:    -7.481      2.144      3.680
REMARK INTER + INTRA:         -11.302
REMARK INTER:                 -10.161
REMARK INTRA:                  -1.141
REMARK UNBOUND:                -0.760
REMARK  Name = 
REMARK  8 active torsions:
REMARK  status: ('A' for Active; 'I' for Inactive)
REMARK    1  A    between atoms: C_1  and  O_2
REMARK    2  A    between atoms: O_2  and  C_3
REMARK    3  A    between atoms: C_8  and  C_9
REMARK    4  A    between atoms: N_11  and  C_12
REMARK    5  A    between atoms: C_12  and  C_13
REMARK    6  A    between atoms: C_16  and  C_17
REMARK    7  A    between atoms: C_17  and  N_18
REMARK    8  A    between atoms: C_19  and  C_21
REMARK                            x       y       z     vdW  Elec       q    Type
REMARK                         _______ _______ _______ _____ _____    ______ ____
ROOT
ATOM      1  C   UNL     1      47.512   5.648  14.536  0.00  0.00    +0.000 A 
ATOM      2  C   UNL     1      48.404   6.219  15.455  0.00  0.00    +0.000 A 
ATOM      3  C   UNL     1      48.721   5.560  16.651  0.00  0.00    +0.000 A 
ATOM      4  C   UNL     1      48.167   4.308  16.948  0.00  0.00    +0.000 A 
ATOM      5  C   UNL     1      47.251   3.752  16.044  0.00  0.00    +0.000 A 
ATOM      6  C   UNL     1      46.936   4.409  14.848  0.00  0.00    +0.000 A 
ENDROOT
BRANCH   1   7
ATOM      7  C   UNL     1      47.178   6.347  13.241  0.00  0.00    +0.000 C 
BRANCH   7  10
ATOM      8  C   UNL     1      45.779   5.831  11.264  0.00  0.00    +0.000 C 
ATOM      9  O   UNL     1      45.323   6.969  11.227  0.00  0.00    +0.000 OA
ATOM     10  N   UNL     1      46.700   5.440  12.224  0.00  0.00    +0.000 N 
ATOM     11  H   UNL     1      47.003   4.470  12.205  0.00  0.00    +0.000 HD
BRANCH   8  17
ATOM     12  C   UNL     1      44.873   3.499  10.686  0.00  0.00    +0.000 A 
ATOM     13  C   UNL     1      44.561   2.582   9.674  0.00  0.00    +0.000 A 
ATOM     14  C   UNL     1      44.783   2.907   8.337  0.00  0.00    +0.000 A 
ATOM     15  C   UNL     1      45.313   4.146   8.040  0.00  0.00    +0.000 A 
ATOM     16  N   UNL     1      45.630   5.069   8.972  0.00  0.00    +0.000 NA
ATOM     17  C   UNL     1      45.398   4.737  10.285  0.00  0.00    +0.000 A 
BRANCH  12  19
ATOM     18  C   UNL     1      43.354   3.591  12.517  0.00  0.00    +0.000 C 
ATOM     19  O   UNL     1      44.640   3.251  12.010  0.00  0.00    +0.000 OA
ENDBRANCH  12  19
ENDBRANCH   8  17
ENDBRANCH   7  10
ENDBRANCH   1   7
BRANCH   4  20
ATOM     20  C   UNL     1      48.524   3.580  18.221  0.00  0.00    +0.000 C 
BRANCH  20  21
ATOM     21  N   UNL     1      49.934   3.289  18.287  0.00  0.00    +0.000 N 
ATOM     22  C   UNL     1      50.518   2.369  17.453  0.00  0.00    +0.000 C 
ATOM     23  O   UNL     1      49.882   1.789  16.574  0.00  0.00    +0.000 OA
ATOM     24  H   UNL     1      50.415   3.563  19.136  0.00  0.00    +0.000 HD
BRANCH  22  25
ATOM     25  C   UNL     1      51.961   2.156  17.622  0.00  0.00    +0.000 A 
ATOM     26  C   UNL     1      52.461   0.864  17.734  0.00  0.00    +0.000 A 
ATOM     27  S   UNL     1      54.161   0.795  17.857  0.00  0.00    +0.000 S 
ATOM     28  C   UNL     1      54.287   2.492  17.822  0.00  0.00    +0.000 A 
ATOM     29  N   UNL     1      55.499   3.105  17.909  0.00  0.00    +0.000 NA
ATOM     30  C   UNL     1      55.446   4.394  17.905  0.00  0.00    +0.000 A 
ATOM     31  N   UNL     1      54.290   5.127  17.820  0.00  0.00    +0.000 N 
ATOM     32  C   UNL     1      53.047   4.553  17.704  0.00  0.00    +0.000 A 
ATOM     33  O   UNL     1      52.036   5.238  17.594  0.00  0.00    +0.000 OA
ATOM     34  C   UNL     1      53.050   3.102  17.707  0.00  0.00    +0.000 A 
ATOM     35  H   UNL     1      54.315   6.137  17.817  0.00  0.00    +0.000 HD
ENDBRANCH  22  25
ENDBRANCH  20  21
ENDBRANCH   4  20
TORSDOF 7
ENDMDL
MODEL 3
REMARK VINA RESULT:    -7.456      4.060     10.079
REMARK INTER + INTRA:         -11.267
REMARK INTER:                 -10.124
REMARK INTRA:                  -1.144
REMARK UNBOUND:                -0.760
REMARK  Name = 
REMARK  8 active torsions:
REMARK  status: ('A' for Active; 'I' for Inactive)
REMARK    1  A    between atoms: C_1  and  O_2
REMARK    2  A    between atoms: O_2  and  C_3
REMARK    3  A    between atoms: C_8  and  C_9
REMARK    4  A    between atoms: N_11  and  C_12
REMARK    5  A    between atoms: C_12  and  C_13
REMARK    6  A    between atoms: C_16  and  C_17
REMARK    7  A    between atoms: C_17  and  N_18
REMARK    8  A    between atoms: C_19  and  C_21
REMARK                            x       y       z     vdW  Elec       q    Type
REMARK                         _______ _______ _______ _____ _____    ______ ____
ROOT
ATOM      1  C   UNL     1      51.406   2.976  17.715  0.00  0.00    +0.000 A 
ATOM      2  C   UNL     1      50.633   1.963  17.131  0.00  0.00    +0.000 A 
ATOM      3  C   UNL     1      49.261   2.147  16.905  0.00  0.00    +0.000 A 
ATOM      4  C   UNL     1      48.635   3.353  17.244  0.00  0.00    +0.000 A 
ATOM      5  C   UNL     1      49.402   4.354  17.856  0.00  0.00    +0.000 A 
ATOM      6  C   UNL     1      50.772   4.172  18.079  0.00  0.00    +0.000 A 
ENDROOT
BRANCH   1   7
ATOM      7  C   UNL     1      52.886   2.789  17.947  0.00  0.00    +0.000 C 
BRANCH   7  10
ATOM      8  C   UNL     1      54.468   0.998  17.297  0.00  0.00    +0.000 C 
ATOM      9  O   UNL     1      55.235   1.798  16.772  0.00  0.00    +0.000 OA
ATOM     10  N   UNL     1      53.286   1.402  17.900  0.00  0.00    +0.000 N 
ATOM     11  H   UNL     1      52.691   0.673  18.283  0.00  0.00    +0.000 HD
BRANCH   8  17
ATOM     12  C   UNL     1      54.757  -1.227  18.545  0.00  0.00    +0.000 A 
ATOM     13  C   UNL     1      54.987  -2.605  18.443  0.00  0.00    +0.000 A 
ATOM     14  C   UNL     1      55.172  -3.198  17.196  0.00  0.00    +0.000 A 
ATOM     15  C   UNL     1      55.122  -2.396  16.072  0.00  0.00    +0.000 A 
ATOM     16  N   UNL     1      54.901  -1.065  16.110  0.00  0.00    +0.000 NA
ATOM     17  C   UNL     1      54.713  -0.498  17.347  0.00  0.00    +0.000 A 
BRANCH  12  19
ATOM     18  C   UNL     1      55.607  -0.557  20.667  0.00  0.00    +0.000 C 
ATOM     19  O   UNL     1      54.529  -0.600  19.738  0.00  0.00    +0.000 OA
ENDBRANCH  12  19
ENDBRANCH   8  17
ENDBRANCH   7  10
ENDBRANCH   1   7
BRANCH   4  20
ATOM     20  C   UNL     1      47.165   3.569  16.980  0.00  0.00    +0.000 C 
BRANCH  20  21
ATOM     21  N   UNL     1      46.950   4.571  15.967  0.00  0.00    +0.000 N 
ATOM     22  C   UNL     1      47.040   4.272  14.630  0.00  0.00    +0.000 C 
ATOM     23  O   UNL     1      47.252   3.128  14.230  0.00  0.00    +0.000 OA
ATOM     24  H   UNL     1      47.016   5.538  16.263  0.00  0.00    +0.000 HD
BRANCH  22  25
ATOM     25  C   UNL     1      46.807   5.380  13.695  0.00  0.00    +0.000 A 
ATOM     26  C   UNL     1      47.834   6.273  13.411  0.00  0.00    +0.000 A 
ATOM     27  S   UNL     1      47.413   7.456  12.257  0.00  0.00    +0.000 S 
ATOM     28  C   UNL     1      45.827   6.854  12.136  0.00  0.00    +0.000 A 
ATOM     29  N   UNL     1      44.916   7.440  11.311  0.00  0.00    +0.000 NA
ATOM     30  C   UNL     1      43.743   6.904  11.343  0.00  0.00    +0.000 A 
ATOM     31  N   UNL     1      43.397   5.831  12.125  0.00  0.00    +0.000 N 
ATOM     32  C   UNL     1      44.288   5.191  12.953  0.00  0.00    +0.000 A 
ATOM     33  O   UNL     1      43.955   4.212  13.613  0.00  0.00    +0.000 OA
ATOM     34  C   UNL     1      45.624   5.758  12.956  0.00  0.00    +0.000 A 
ATOM     35  H   UNL     1      42.461   5.454  12.102  0.00  0.00    +0.000 HD
ENDBRANCH  22  25
ENDBRANCH  20  21
ENDBRANCH   4  20
TORSDOF 7
ENDMDL
MODEL 4
REMARK VINA RESULT:    -7.420      1.886      2.736
REMARK INTER + INTRA:         -11.216
REMARK INTER:                 -10.320
REMARK INTRA:                  -0.896
REMARK UNBOUND:                -0.760
REMARK  Name = 
REMARK  8 active torsions:
REMARK  status: ('A' for Active; 'I' for Inactive)
REMARK    1  A    between atoms: C_1  and  O_2
REMARK    2  A    between atoms: O_2  and  C_3
REMARK    3  A    between atoms: C_8  and  C_9
REMARK    4  A    between atoms: N_11  and  C_12
REMARK    5  A    between atoms: C_12  and  C_13
REMARK    6  A    between atoms: C_16  and  C_17
REMARK    7  A    between atoms: C_17  and  N_18
REMARK    8  A    between atoms: C_19  and  C_21
REMARK                            x       y       z     vdW  Elec       q    Type
REMARK                         _______ _______ _______ _____ _____    ______ ____
ROOT
ATOM      1  C   UNL     1      47.246   6.214  13.810  0.00  0.00    +0.000 A 
ATOM      2  C   UNL     1      46.724   4.978  14.218  0.00  0.00    +0.000 A 
ATOM      3  C   UNL     1      47.168   4.366  15.398  0.00  0.00    +0.000 A 
ATOM      4  C   UNL     1      48.131   4.982  16.206  0.00  0.00    +0.000 A 
ATOM      5  C   UNL     1      48.676   6.202  15.783  0.00  0.00    +0.000 A 
ATOM      6  C   UNL     1      48.231   6.815  14.605  0.00  0.00    +0.000 A 
ENDROOT
BRANCH   1   7
ATOM      7  C   UNL     1      46.761   6.884  12.547  0.00  0.00    +0.000 C 
BRANCH   7  10
ATOM      8  C   UNL     1      45.265   5.842  10.872  0.00  0.00    +0.000 C 
ATOM      9  O   UNL     1      44.317   6.544  11.208  0.00  0.00    +0.000 OA
ATOM     10  N   UNL     1      46.507   5.945  11.480  0.00  0.00    +0.000 N 
ATOM     11  H   UNL     1      47.230   5.304  11.164  0.00  0.00    +0.000 HD
BRANCH   8  17
ATOM     12  C   UNL     1      44.330   3.693   9.822  0.00  0.00    +0.000 A 
ATOM     13  C   UNL     1      44.366   2.809   8.736  0.00  0.00    +0.000 A 
ATOM     14  C   UNL     1      45.240   3.034   7.674  0.00  0.00    +0.000 A 
ATOM     15  C   UNL     1      46.061   4.143   7.721  0.00  0.00    +0.000 A 
ATOM     16  N   UNL     1      46.067   5.029   8.739  0.00  0.00    +0.000 NA
ATOM     17  C   UNL     1      45.194   4.797   9.774  0.00  0.00    +0.000 A 
BRANCH  12  19
ATOM     18  C   UNL     1      43.996   3.010  12.079  0.00  0.00    +0.000 C 
ATOM     19  O   UNL     1      43.466   3.545  10.871  0.00  0.00    +0.000 OA
ENDBRANCH  12  19
ENDBRANCH   8  17
ENDBRANCH   7  10
ENDBRANCH   1   7
BRANCH   4  20
ATOM     20  C   UNL     1      48.595   4.343  17.492  0.00  0.00    +0.000 C 
BRANCH  20  21
ATOM     21  N   UNL     1      49.981   3.954  17.421  0.00  0.00    +0.000 N 
ATOM     22  C   UNL     1      50.851   4.203  18.453  0.00  0.00    +0.000 C 
ATOM     23  O   UNL     1      50.482   4.717  19.508  0.00  0.00    +0.000 OA
ATOM     24  H   UNL     1      50.351   3.759  16.498  0.00  0.00    +0.000 HD
BRANCH  22  25
ATOM     25  C   UNL     1      52.240   3.766  18.258  0.00  0.00    +0.000 A 
ATOM     26  C   UNL     1      53.281   4.664  18.453  0.00  0.00    +0.000 A 
ATOM     27  S   UNL     1      54.828   3.974  18.250  0.00  0.00    +0.000 S 
ATOM     28  C   UNL     1      54.161   2.464  17.838  0.00  0.00    +0.000 A 
ATOM     29  N   UNL     1      54.961   1.408  17.523  0.00  0.00    +0.000 NA
ATOM     30  C   UNL     1      54.323   0.335  17.198  0.00  0.00    +0.000 A 
ATOM     31  N   UNL     1      52.957   0.220  17.160  0.00  0.00    +0.000 N 
ATOM     32  C   UNL     1      52.110   1.249  17.495  0.00  0.00    +0.000 A 
ATOM     33  O   UNL     1      50.893   1.102  17.486  0.00  0.00    +0.000 OA
ATOM     34  C   UNL     1      52.778   2.483  17.867  0.00  0.00    +0.000 A 
ATOM     35  H   UNL     1      52.517  -0.651  16.901  0.00  0.00    +0.000 HD
ENDBRANCH  22  25
ENDBRANCH  20  21
ENDBRANCH   4  20
TORSDOF 7
ENDMDL
MODEL 5
REMARK VINA RESULT:    -7.275      2.866      9.498
REMARK INTER + INTRA:         -11.012
REMARK INTER:                  -9.800
REMARK INTRA:                  -1.212
REMARK UNBOUND:                -0.760
REMARK  Name = 
REMARK  8 active torsions:
REMARK  status: ('A' for Active; 'I' for Inactive)
REMARK    1  A    between atoms: C_1  and  O_2
REMARK    2  A    between atoms: O_2  and  C_3
REMARK    3  A    between atoms: C_8  and  C_9
REMARK    4  A    between atoms: N_11  and  C_12
REMARK    5  A    between atoms: C_12  and  C_13
REMARK    6  A    between atoms: C_16  and  C_17
REMARK    7  A    between atoms: C_17  and  N_18
REMARK    8  A    between atoms: C_19  and  C_21
REMARK                            x       y       z     vdW  Elec       q    Type
REMARK                         _______ _______ _______ _____ _____    ______ ____
ROOT
ATOM      1  C   UNL     1      50.091   7.237  15.551  0.00  0.00    +0.000 A 
ATOM      2  C   UNL     1      50.422   8.108  14.503  0.00  0.00    +0.000 A 
ATOM      3  C   UNL     1      49.580   8.242  13.389  0.00  0.00    +0.000 A 
ATOM      4  C   UNL     1      48.382   7.522  13.306  0.00  0.00    +0.000 A 
ATOM      5  C   UNL     1      48.067   6.629  14.340  0.00  0.00    +0.000 A 
ATOM      6  C   UNL     1      48.905   6.497  15.453  0.00  0.00    +0.000 A 
ENDROOT
BRANCH   1   7
ATOM      7  C   UNL     1      50.987   7.100  16.759  0.00  0.00    +0.000 C 
BRANCH   7  10
ATOM      8  C   UNL     1      51.160   4.997  18.054  0.00  0.00    +0.000 C 
ATOM      9  O   UNL     1      50.441   5.430  18.948  0.00  0.00    +0.000 OA
ATOM     10  N   UNL     1      51.480   5.755  16.937  0.00  0.00    +0.000 N 
ATOM     11  H   UNL     1      52.108   5.334  16.258  0.00  0.00    +0.000 HD
BRANCH   8  17
ATOM     12  C   UNL     1      51.236   2.529  17.349  0.00  0.00    +0.000 A 
ATOM     13  C   UNL     1      51.911   1.305  17.444  0.00  0.00    +0.000 A 
ATOM     14  C   UNL     1      53.058   1.192  18.227  0.00  0.00    +0.000 A 
ATOM     15  C   UNL     1      53.507   2.309  18.901  0.00  0.00    +0.000 A 
ATOM     16  N   UNL     1      52.900   3.513  18.845  0.00  0.00    +0.000 NA
ATOM     17  C   UNL     1      51.775   3.610  18.062  0.00  0.00    +0.000 A 
BRANCH  12  19
ATOM     18  C   UNL     1      48.861   2.640  17.206  0.00  0.00    +0.000 C 
ATOM     19  O   UNL     1      50.131   2.708  16.565  0.00  0.00    +0.000 OA
ENDBRANCH  12  19
ENDBRANCH   8  17
ENDBRANCH   7  10
ENDBRANCH   1   7
BRANCH   4  20
ATOM     20  C   UNL     1      47.457   7.680  12.124  0.00  0.00    +0.000 C 
BRANCH  20  21
ATOM     21  N   UNL     1      46.791   6.444  11.804  0.00  0.00    +0.000 N 
ATOM     22  C   UNL     1      45.421   6.344  11.803  0.00  0.00    +0.000 C 
ATOM     23  O   UNL     1      44.697   7.315  12.021  0.00  0.00    +0.000 OA
ATOM     24  H   UNL     1      47.348   5.599  11.860  0.00  0.00    +0.000 HD
BRANCH  22  25
ATOM     25  C   UNL     1      44.860   5.030  11.467  0.00  0.00    +0.000 A 
ATOM     26  C   UNL     1      44.129   4.327  12.416  0.00  0.00    +0.000 A 
ATOM     27  S   UNL     1      43.496   2.852  11.839  0.00  0.00    +0.000 S 
ATOM     28  C   UNL     1      44.224   3.071  10.318  0.00  0.00    +0.000 A 
ATOM     29  N   UNL     1      44.087   2.138   9.335  0.00  0.00    +0.000 NA
ATOM     30  C   UNL     1      44.720   2.415   8.245  0.00  0.00    +0.000 A 
ATOM     31  N   UNL     1      45.476   3.542   8.046  0.00  0.00    +0.000 N 
ATOM     32  C   UNL     1      45.621   4.523   8.998  0.00  0.00    +0.000 A 
ATOM     33  O   UNL     1      46.275   5.535   8.775  0.00  0.00    +0.000 OA
ATOM     34  C   UNL     1      44.931   4.258  10.247  0.00  0.00    +0.000 A 
ATOM     35  H   UNL     1      45.944   3.703   7.166  0.00  0.00    +0.000 HD
ENDBRANCH  22  25
ENDBRANCH  20  21
ENDBRANCH   4  20
TORSDOF 7
ENDMDL
MODEL 6
REMARK VINA RESULT:    -7.184      5.918      7.836
REMARK INTER + INTRA:         -10.884
REMARK INTER:                  -9.567
REMARK INTRA:                  -1.317
REMARK UNBOUND:                -0.760
REMARK  Name = 
REMARK  8 active torsions:
REMARK  status: ('A' for Active; 'I' for Inactive)
REMARK    1  A    between atoms: C_1  and  O_2
REMARK    2  A    between atoms: O_2  and  C_3
REMARK    3  A    between atoms: C_8  and  C_9
REMARK    4  A    between atoms: N_11  and  C_12
REMARK    5  A    between atoms: C_12  and  C_13
REMARK    6  A    between atoms: C_16  and  C_17
REMARK    7  A    between atoms: C_17  and  N_18
REMARK    8  A    between atoms: C_19  and  C_21
REMARK                            x       y       z     vdW  Elec       q    Type
REMARK                         _______ _______ _______ _____ _____    ______ ____
ROOT
ATOM      1  C   UNL     1      49.033   7.014  13.890  0.00  0.00    +0.000 A 
ATOM      2  C   UNL     1      48.976   7.055  12.490  0.00  0.00    +0.000 A 
ATOM      3  C   UNL     1      49.921   7.782  11.753  0.00  0.00    +0.000 A 
ATOM      4  C   UNL     1      50.955   8.472  12.399  0.00  0.00    +0.000 A 
ATOM      5  C   UNL     1      50.995   8.456  13.800  0.00  0.00    +0.000 A 
ATOM      6  C   UNL     1      50.052   7.728  14.536  0.00  0.00    +0.000 A 
ENDROOT
BRANCH   1   7
ATOM      7  C   UNL     1      48.025   6.221  14.686  0.00  0.00    +0.000 C 
BRANCH   7  10
ATOM      8  C   UNL     1      46.675   4.562  13.440  0.00  0.00    +0.000 C 
ATOM      9  O   UNL     1      47.481   3.665  13.661  0.00  0.00    +0.000 OA
ATOM     10  N   UNL     1      46.866   5.853  13.909  0.00  0.00    +0.000 N 
ATOM     11  H   UNL     1      46.166   6.545  13.654  0.00  0.00    +0.000 HD
BRANCH   8  17
ATOM     12  C   UNL     1      44.917   5.322  11.729  0.00  0.00    +0.000 A 
ATOM     13  C   UNL     1      43.727   5.014  11.057  0.00  0.00    +0.000 A 
ATOM     14  C   UNL     1      43.066   3.815  11.312  0.00  0.00    +0.000 A 
ATOM     15  C   UNL     1      43.611   2.946  12.236  0.00  0.00    +0.000 A 
ATOM     16  N   UNL     1      44.754   3.189  12.910  0.00  0.00    +0.000 NA
ATOM     17  C   UNL     1      45.399   4.372  12.642  0.00  0.00    +0.000 A 
BRANCH  12  19
ATOM     18  C   UNL     1      44.910   7.693  11.499  0.00  0.00    +0.000 C 
ATOM     19  O   UNL     1      45.630   6.464  11.490  0.00  0.00    +0.000 OA
ENDBRANCH  12  19
ENDBRANCH   8  17
ENDBRANCH   7  10
ENDBRANCH   1   7
BRANCH   4  20
ATOM     20  C   UNL     1      51.993   9.234  11.613  0.00  0.00    +0.000 C 
BRANCH  20  21
ATOM     21  N   UNL     1      52.205   8.653  10.311  0.00  0.00    +0.000 N 
ATOM     22  C   UNL     1      53.285   8.998   9.536  0.00  0.00    +0.000 C 
ATOM     23  O   UNL     1      54.151   9.775   9.935  0.00  0.00    +0.000 OA
ATOM     24  H   UNL     1      51.403   8.212   9.875  0.00  0.00    +0.000 HD
BRANCH  22  25
ATOM     25  C   UNL     1      53.386   8.342   8.227  0.00  0.00    +0.000 A 
ATOM     26  C   UNL     1      53.334   9.104   7.066  0.00  0.00    +0.000 A 
ATOM     27  S   UNL     1      53.534   8.191   5.638  0.00  0.00    +0.000 S 
ATOM     28  C   UNL     1      53.640   6.738   6.516  0.00  0.00    +0.000 A 
ATOM     29  N   UNL     1      53.801   5.546   5.879  0.00  0.00    +0.000 NA
ATOM     30  C   UNL     1      53.831   4.521   6.663  0.00  0.00    +0.000 A 
ATOM     31  N   UNL     1      53.716   4.580   8.028  0.00  0.00    +0.000 N 
ATOM     32  C   UNL     1      53.578   5.762   8.717  0.00  0.00    +0.000 A 
ATOM     33  O   UNL     1      53.514   5.782   9.941  0.00  0.00    +0.000 OA
ATOM     34  C   UNL     1      53.536   6.947   7.880  0.00  0.00    +0.000 A 
ATOM     35  H   UNL     1      53.752   3.741   8.588  0.00  0.00    +0.000 HD
ENDBRANCH  22  25
ENDBRANCH  20  21
ENDBRANCH   4  20
TORSDOF 7
ENDMDL
MODEL 7
REMARK VINA RESULT:    -7.000      3.388      9.406
REMARK INTER + INTRA:         -10.624
REMARK INTER:                  -9.395
REMARK INTRA:                  -1.228
REMARK UNBOUND:                -0.760
REMARK  Name = 
REMARK  8 active torsions:
REMARK  status: ('A' for Active; 'I' for Inactive)
REMARK    1  A    between atoms: C_1  and  O_2
REMARK    2  A    between atoms: O_2  and  C_3
REMARK    3  A    between atoms: C_8  and  C_9
REMARK    4  A    between atoms: N_11  and  C_12
REMARK    5  A    between atoms: C_12  and  C_13
REMARK    6  A    between atoms: C_16  and  C_17
REMARK    7  A    between atoms: C_17  and  N_18
REMARK    8  A    between atoms: C_19  and  C_21
REMARK                            x       y       z     vdW  Elec       q    Type
REMARK                         _______ _______ _______ _____ _____    ______ ____
ROOT
ATOM      1  C   UNL     1      49.032   4.909  17.306  0.00  0.00    +0.000 A 
ATOM      2  C   UNL     1      49.786   5.982  16.809  0.00  0.00    +0.000 A 
ATOM      3  C   UNL     1      49.428   6.616  15.611  0.00  0.00    +0.000 A 
ATOM      4  C   UNL     1      48.298   6.204  14.892  0.00  0.00    +0.000 A 
ATOM      5  C   UNL     1      47.562   5.113  15.373  0.00  0.00    +0.000 A 
ATOM      6  C   UNL     1      47.919   4.480  16.571  0.00  0.00    +0.000 A 
ENDROOT
BRANCH   1   7
ATOM      7  C   UNL     1      49.406   4.232  18.602  0.00  0.00    +0.000 C 
BRANCH   7  10
ATOM      8  C   UNL     1      51.078   2.598  17.788  0.00  0.00    +0.000 C 
ATOM      9  O   UNL     1      50.258   2.045  17.063  0.00  0.00    +0.000 OA
ATOM     10  N   UNL     1      50.741   3.685  18.581  0.00  0.00    +0.000 N 
ATOM     11  H   UNL     1      51.472   4.064  19.177  0.00  0.00    +0.000 HD
BRANCH   8  17
ATOM     12  C   UNL     1      53.601   3.070  17.859  0.00  0.00    +0.000 A 
ATOM     13  C   UNL     1      54.889   2.534  17.983  0.00  0.00    +0.000 A 
ATOM     14  C   UNL     1      55.069   1.160  18.132  0.00  0.00    +0.000 A 
ATOM     15  C   UNL     1      53.952   0.349  18.155  0.00  0.00    +0.000 A 
ATOM     16  N   UNL     1      52.688   0.810  18.042  0.00  0.00    +0.000 NA
ATOM     17  C   UNL     1      52.528   2.167  17.904  0.00  0.00    +0.000 A 
BRANCH  12  19
ATOM     18  C   UNL     1      54.326   5.188  17.045  0.00  0.00    +0.000 C 
ATOM     19  O   UNL     1      53.363   4.412  17.751  0.00  0.00    +0.000 OA
ENDBRANCH  12  19
ENDBRANCH   8  17
ENDBRANCH   7  10
ENDBRANCH   1   7
BRANCH   4  20
ATOM     20  C   UNL     1      47.890   6.899  13.616  0.00  0.00    +0.000 C 
BRANCH  20  21
ATOM     21  N   UNL     1      47.218   5.999  12.715  0.00  0.00    +0.000 N 
ATOM     22  C   UNL     1      46.263   6.443  11.834  0.00  0.00    +0.000 C 
ATOM     23  O   UNL     1      45.974   7.634  11.732  0.00  0.00    +0.000 OA
ATOM     24  H   UNL     1      47.260   5.012  12.943  0.00  0.00    +0.000 HD
BRANCH  22  25
ATOM     25  C   UNL     1      45.645   5.427  10.972  0.00  0.00    +0.000 A 
ATOM     26  C   UNL     1      45.756   5.533   9.591  0.00  0.00    +0.000 A 
ATOM     27  S   UNL     1      45.039   4.236   8.745  0.00  0.00    +0.000 S 
ATOM     28  C   UNL     1      44.505   3.517  10.191  0.00  0.00    +0.000 A 
ATOM     29  N   UNL     1      43.792   2.357  10.173  0.00  0.00    +0.000 NA
ATOM     30  C   UNL     1      43.421   1.941  11.337  0.00  0.00    +0.000 A 
ATOM     31  N   UNL     1      43.700   2.578  12.519  0.00  0.00    +0.000 N 
ATOM     32  C   UNL     1      44.438   3.736  12.588  0.00  0.00    +0.000 A 
ATOM     33  O   UNL     1      44.700   4.261  13.665  0.00  0.00    +0.000 OA
ATOM     34  C   UNL     1      44.878   4.249  11.304  0.00  0.00    +0.000 A 
ATOM     35  H   UNL     1      43.385   2.199  13.400  0.00  0.00    +0.000 HD
ENDBRANCH  22  25
ENDBRANCH  20  21
ENDBRANCH   4  20
TORSDOF 7
ENDMDL
MODEL 8
REMARK VINA RESULT:    -6.992      1.641      2.395
REMARK INTER + INTRA:         -10.613
REMARK INTER:                  -9.944
REMARK INTRA:                  -0.669
REMARK UNBOUND:                -0.760
REMARK  Name = 
REMARK  8 active torsions:
REMARK  status: ('A' for Active; 'I' for Inactive)
REMARK    1  A    between atoms: C_1  and  O_2
REMARK    2  A    between atoms: O_2  and  C_3
REMARK    3  A    between atoms: C_8  and  C_9
REMARK    4  A    between atoms: N_11  and  C_12
REMARK    5  A    between atoms: C_12  and  C_13
REMARK    6  A    between atoms: C_16  and  C_17
REMARK    7  A    between atoms: C_17  and  N_18
REMARK    8  A    between atoms: C_19  and  C_21
REMARK                            x       y       z     vdW  Elec       q    Type
REMARK                         _______ _______ _______ _____ _____    ______ ____
ROOT
ATOM      1  C   UNL     1      46.311   7.370  13.055  0.00  0.00    +0.000 A 
ATOM      2  C   UNL     1      47.137   6.364  13.577  0.00  0.00    +0.000 A 
ATOM      3  C   UNL     1      48.253   6.686  14.361  0.00  0.00    +0.000 A 
ATOM      4  C   UNL     1      48.560   8.020  14.656  0.00  0.00    +0.000 A 
ATOM      5  C   UNL     1      47.753   9.028  14.110  0.00  0.00    +0.000 A 
ATOM      6  C   UNL     1      46.636   8.706  13.328  0.00  0.00    +0.000 A 
ENDROOT
BRANCH   1   7
ATOM      7  C   UNL     1      45.101   7.027  12.221  0.00  0.00    +0.000 C 
BRANCH   7  10
ATOM      8  C   UNL     1      44.327   5.356  10.566  0.00  0.00    +0.000 C 
ATOM      9  O   UNL     1      43.162   5.725  10.663  0.00  0.00    +0.000 OA
ATOM     10  N   UNL     1      45.347   5.945  11.298  0.00  0.00    +0.000 N 
ATOM     11  H   UNL     1      46.280   5.558  11.183  0.00  0.00    +0.000 HD
BRANCH   8  17
ATOM     12  C   UNL     1      44.377   2.901   9.814  0.00  0.00    +0.000 A 
ATOM     13  C   UNL     1      44.874   1.968   8.895  0.00  0.00    +0.000 A 
ATOM     14  C   UNL     1      45.741   2.371   7.882  0.00  0.00    +0.000 A 
ATOM     15  C   UNL     1      46.094   3.704   7.809  0.00  0.00    +0.000 A 
ATOM     16  N   UNL     1      45.645   4.646   8.665  0.00  0.00    +0.000 NA
ATOM     17  C   UNL     1      44.784   4.234   9.653  0.00  0.00    +0.000 A 
BRANCH  12  19
ATOM     18  C   UNL     1      43.958   2.654  12.146  0.00  0.00    +0.000 C 
ATOM     19  O   UNL     1      43.493   2.571  10.803  0.00  0.00    +0.000 OA
ENDBRANCH  12  19
ENDBRANCH   8  17
ENDBRANCH   7  10
ENDBRANCH   1   7
BRANCH   4  20
ATOM     20  C   UNL     1      49.743   8.375  15.523  0.00  0.00    +0.000 C 
BRANCH  20  21
ATOM     21  N   UNL     1      50.510   7.207  15.876  0.00  0.00    +0.000 N 
ATOM     22  C   UNL     1      50.431   6.646  17.126  0.00  0.00    +0.000 C 
ATOM     23  O   UNL     1      49.665   7.077  17.987  0.00  0.00    +0.000 OA
ATOM     24  H   UNL     1      51.304   6.989  15.285  0.00  0.00    +0.000 HD
BRANCH  22  25
ATOM     25  C   UNL     1      51.266   5.462  17.366  0.00  0.00    +0.000 A 
ATOM     26  C   UNL     1      52.604   5.618  17.710  0.00  0.00    +0.000 A 
ATOM     27  S   UNL     1      53.408   4.145  18.017  0.00  0.00    +0.000 S 
ATOM     28  C   UNL     1      52.013   3.243  17.647  0.00  0.00    +0.000 A 
ATOM     29  N   UNL     1      52.026   1.883  17.699  0.00  0.00    +0.000 NA
ATOM     30  C   UNL     1      50.912   1.325  17.361  0.00  0.00    +0.000 A 
ATOM     31  N   UNL     1      49.785   2.006  16.978  0.00  0.00    +0.000 N 
ATOM     32  C   UNL     1      49.717   3.378  16.937  0.00  0.00    +0.000 A 
ATOM     33  O   UNL     1      48.681   3.955  16.624  0.00  0.00    +0.000 OA
ATOM     34  C   UNL     1      50.946   4.054  17.305  0.00  0.00    +0.000 A 
ATOM     35  H   UNL     1      48.940   1.511  16.729  0.00  0.00    +0.000 HD
ENDBRANCH  22  25
ENDBRANCH  20  21
ENDBRANCH   4  20
TORSDOF 7
ENDMDL
MODEL 9
REMARK VINA RESULT:    -6.949      5.696      8.782
REMARK INTER + INTRA:         -10.553
REMARK INTER:                  -9.306
REMARK INTRA:                  -1.248
REMARK UNBOUND:                -0.760
REMARK  Name = 
REMARK  8 active torsions:
REMARK  status: ('A' for Active; 'I' for Inactive)
REMARK    1  A    between atoms: C_1  and  O_2
REMARK    2  A    between atoms: O_2  and  C_3
REMARK    3  A    between atoms: C_8  and  C_9
REMARK    4  A    between atoms: N_11  and  C_12
REMARK    5  A    between atoms: C_12  and  C_13
REMARK    6  A    between atoms: C_16  and  C_17
REMARK    7  A    between atoms: C_17  and  N_18
REMARK    8  A    between atoms: C_19  and  C_21
REMARK                            x       y       z     vdW  Elec       q    Type
REMARK                         _______ _______ _______ _____ _____    ______ ____
ROOT
ATOM      1  C   UNL     1      50.370   8.949  11.361  0.00  0.00    +0.000 A 
ATOM      2  C   UNL     1      49.948   7.630  11.581  0.00  0.00    +0.000 A 
ATOM      3  C   UNL     1      48.672   7.361  12.097  0.00  0.00    +0.000 A 
ATOM      4  C   UNL     1      47.783   8.403  12.389  0.00  0.00    +0.000 A 
ATOM      5  C   UNL     1      48.216   9.722  12.197  0.00  0.00    +0.000 A 
ATOM      6  C   UNL     1      49.489   9.992  11.680  0.00  0.00    +0.000 A 
ENDROOT
BRANCH   1   7
ATOM      7  C   UNL     1      51.737   9.244  10.793  0.00  0.00    +0.000 C 
BRANCH   7  10
ATOM      8  C   UNL     1      52.983   8.138   8.961  0.00  0.00    +0.000 C 
ATOM      9  O   UNL     1      53.047   9.177   8.311  0.00  0.00    +0.000 OA
ATOM     10  N   UNL     1      52.354   8.083  10.196  0.00  0.00    +0.000 N 
ATOM     11  H   UNL     1      52.316   7.177  10.654  0.00  0.00    +0.000 HD
BRANCH   8  17
ATOM     12  C   UNL     1      54.687   6.223   9.104  0.00  0.00    +0.000 A 
ATOM     13  C   UNL     1      55.118   4.998   8.578  0.00  0.00    +0.000 A 
ATOM     14  C   UNL     1      54.454   4.424   7.497  0.00  0.00    +0.000 A 
ATOM     15  C   UNL     1      53.369   5.088   6.962  0.00  0.00    +0.000 A 
ATOM     16  N   UNL     1      52.908   6.268   7.428  0.00  0.00    +0.000 NA
ATOM     17  C   UNL     1      53.568   6.817   8.500  0.00  0.00    +0.000 A 
BRANCH  12  19
ATOM     18  C   UNL     1      55.418   6.019  11.361  0.00  0.00    +0.000 C 
ATOM     19  O   UNL     1      55.274   6.813  10.188  0.00  0.00    +0.000 OA
ENDBRANCH  12  19
ENDBRANCH   8  17
ENDBRANCH   7  10
ENDBRANCH   1   7
BRANCH   4  20
ATOM     20  C   UNL     1      46.399   8.121  12.918  0.00  0.00    +0.000 C 
BRANCH  20  21
ATOM     21  N   UNL     1      45.960   6.792  12.573  0.00  0.00    +0.000 N 
ATOM     22  C   UNL     1      44.868   6.581  11.768  0.00  0.00    +0.000 C 
ATOM     23  O   UNL     1      44.245   7.512  11.259  0.00  0.00    +0.000 OA
ATOM     24  H   UNL     1      46.296   6.036  13.159  0.00  0.00    +0.000 HD
BRANCH  22  25
ATOM     25  C   UNL     1      44.517   5.182  11.494  0.00  0.00    +0.000 A 
ATOM     26  C   UNL     1      43.789   4.457  12.430  0.00  0.00    +0.000 A 
ATOM     27  S   UNL     1      43.411   2.872  11.924  0.00  0.00    +0.000 S 
ATOM     28  C   UNL     1      44.255   3.079  10.461  0.00  0.00    +0.000 A 
ATOM     29  N   UNL     1      44.337   2.069   9.552  0.00  0.00    +0.000 NA
ATOM     30  C   UNL     1      45.035   2.350   8.503  0.00  0.00    +0.000 A 
ATOM     31  N   UNL     1      45.657   3.552   8.280  0.00  0.00    +0.000 N 
ATOM     32  C   UNL     1      45.579   4.608   9.155  0.00  0.00    +0.000 A 
ATOM     33  O   UNL     1      46.118   5.682   8.908  0.00  0.00    +0.000 OA
ATOM     34  C   UNL     1      44.807   4.343  10.355  0.00  0.00    +0.000 A 
ATOM     35  H   UNL     1      46.186   3.712   7.435  0.00  0.00    +0.000 HD
ENDBRANCH  22  25
ENDBRANCH  20  21
ENDBRANCH   4  20
TORSDOF 7
ENDMDL
