MODEL 1
REMARK VINA RESULT:    -8.338      0.000      0.000
REMARK INTER + INTRA:         -11.890
REMARK INTER:                 -11.262
REMARK INTRA:                  -0.628
REMARK UNBOUND:                -0.628
REMARK  Name = 
REMARK  7 active torsions:
REMARK  status: ('A' for Active; 'I' for Inactive)
REMARK    1  A    between atoms: C_1  and  C_2
REMARK    2  A    between atoms: C_7  and  C_8
REMARK    3  A    between atoms: N_10  and  C_11
REMARK    4  A    between atoms: C_11  and  C_12
REMARK    5  A    between atoms: C_15  and  C_16
REMARK    6  A    between atoms: C_16  and  N_17
REMARK    7  A    between atoms: N_17  and  C_18
REMARK                            x       y       z     vdW  Elec       q    Type
REMARK                         _______ _______ _______ _____ _____    ______ ____
ROOT
ATOM      1  C   UNL     1      47.412   4.053  16.601  0.00  0.00    +0.000 C 
ATOM      2  O   UNL     1      46.671   3.275  17.196  0.00  0.00    +0.000 OA
ATOM      3  N   UNL     1      47.011   4.675  15.443  0.00  0.00    +0.000 N 
ATOM      4  H   UNL     1      47.622   5.327  14.965  0.00  0.00    +0.000 HD
ENDROOT
BRANCH   1  11
ATOM      5  C   UNL     1      53.699   1.678  17.966  0.00  0.00    +0.000 C 
ATOM      6  C   UNL     1      52.407   2.410  17.749  0.00  0.00    +0.000 A 
ATOM      7  N   UNL     1      52.265   3.663  18.047  0.00  0.00    +0.000 NA
ATOM      8  C   UNL     1      51.031   4.178  17.791  0.00  0.00    +0.000 A 
ATOM      9  S   UNL     1      50.672   5.804  18.131  0.00  0.00    +0.000 S 
ATOM     10  C   UNL     1      49.070   5.627  17.565  0.00  0.00    +0.000 A 
ATOM     11  C   UNL     1      48.770   4.348  17.112  0.00  0.00    +0.000 A 
ATOM     12  C   UNL     1      49.947   3.510  17.252  0.00  0.00    +0.000 A 
ATOM     13  C   UNL     1      50.161   2.123  16.925  0.00  0.00    +0.000 A 
ATOM     14  O   UNL     1      49.318   1.386  16.417  0.00  0.00    +0.000 OA
ATOM     15  N   UNL     1      51.408   1.637  17.217  0.00  0.00    +0.000 N 
ATOM     16  H   UNL     1      51.560   0.664  16.991  0.00  0.00    +0.000 HD
ENDBRANCH   1  11
BRANCH   3  17
ATOM     17  C   UNL     1      45.705   4.446  14.867  0.00  0.00    +0.000 C 
BRANCH  17  18
ATOM     18  C   UNL     1      45.691   4.615  13.366  0.00  0.00    +0.000 A 
ATOM     19  C   UNL     1      44.927   3.766  12.550  0.00  0.00    +0.000 A 
ATOM     20  C   UNL     1      44.896   3.950  11.162  0.00  0.00    +0.000 A 
ATOM     21  C   UNL     1      45.627   4.989  10.571  0.00  0.00    +0.000 A 
ATOM     22  C   UNL     1      46.407   5.818  11.384  0.00  0.00    +0.000 A 
ATOM     23  C   UNL     1      46.443   5.631  12.765  0.00  0.00    +0.000 A 
BRANCH  21  24
ATOM     24  C   UNL     1      45.697   5.177   9.084  0.00  0.00    +0.000 C 
BRANCH  24  25
ATOM     25  N   UNL     1      44.710   4.391   8.344  0.00  0.00    +0.000 NA
ATOM     26  H   UNL     1      44.234   5.012   7.687  0.00  0.00    +0.000 HD
BRANCH  25  27
ATOM     27  C   UNL     1      45.366   3.309   7.594  0.00  0.00    +0.000 C 
ATOM     28  C   UNL     1      45.727   2.164   8.553  0.00  0.00    +0.000 C 
ATOM     29  C   UNL     1      46.434   1.031   7.805  0.00  0.00    +0.000 C 
ATOM     30  C   UNL     1      47.667   1.531   7.057  0.00  0.00    +0.000 C 
ATOM     31  C   UNL     1      47.327   2.680   6.122  0.00  0.00    +0.000 C 
ATOM     32  C   UNL     1      46.630   3.805   6.869  0.00  0.00    +0.000 C 
ENDBRANCH  25  27
ENDBRANCH  24  25
ENDBRANCH  21  24
ENDBRANCH  17  18
ENDBRANCH   3  17
TORSDOF 6
ENDMDL
MODEL 2
REMARK VINA RESULT:    -8.219      2.176      2.489
REMARK INTER + INTRA:         -11.729
REMARK INTER:                 -10.877
REMARK INTRA:                  -0.852
REMARK UNBOUND:                -0.628
REMARK  Name = 
REMARK  7 active torsions:
REMARK  status: ('A' for Active; 'I' for Inactive)
REMARK    1  A    between atoms: C_1  and  C_2
REMARK    2  A    between atoms: C_7  and  C_8
REMARK    3  A    between atoms: N_10  and  C_11
REMARK    4  A    between atoms: C_11  and  C_12
REMARK    5  A    between atoms: C_15  and  C_16
REMARK    6  A    between atoms: C_16  and  N_17
REMARK    7  A    between atoms: N_17  and  C_18
REMARK                            x       y       z     vdW  Elec       q    Type
REMARK                         _______ _______ _______ _____ _____    ______ ____
ROOT
ATOM      1  C   UNL     1      48.787   6.892  15.813  0.00  0.00    +0.000 C 
ATOM      2  O   UNL     1      49.107   8.074  15.725  0.00  0.00    +0.000 OA
ATOM      3  N   UNL     1      48.023   6.287  14.843  0.00  0.00    +0.000 N 
ATOM      4  H   UNL     1      47.774   5.307  14.914  0.00  0.00    +0.000 HD
ENDROOT
BRANCH   1  11
ATOM      5  C   UNL     1      53.990   4.157  19.345  0.00  0.00    +0.000 C 
ATOM      6  C   UNL     1      52.709   4.652  18.739  0.00  0.00    +0.000 A 
ATOM      7  N   UNL     1      51.551   4.369  19.247  0.00  0.00    +0.000 NA
ATOM      8  C   UNL     1      50.488   4.894  18.577  0.00  0.00    +0.000 A 
ATOM      9  S   UNL     1      48.896   4.614  19.103  0.00  0.00    +0.000 S 
ATOM     10  C   UNL     1      48.250   5.538  17.821  0.00  0.00    +0.000 A 
ATOM     11  C   UNL     1      49.210   6.075  16.972  0.00  0.00    +0.000 A 
ATOM     12  C   UNL     1      50.527   5.683  17.442  0.00  0.00    +0.000 A 
ATOM     13  C   UNL     1      51.839   5.980  16.926  0.00  0.00    +0.000 A 
ATOM     14  O   UNL     1      52.061   6.684  15.943  0.00  0.00    +0.000 OA
ATOM     15  N   UNL     1      52.881   5.417  17.615  0.00  0.00    +0.000 N 
ATOM     16  H   UNL     1      53.802   5.621  17.253  0.00  0.00    +0.000 HD
ENDBRANCH   1  11
BRANCH   3  17
ATOM     17  C   UNL     1      47.561   7.004  13.677  0.00  0.00    +0.000 C 
BRANCH  17  18
ATOM     18  C   UNL     1      46.695   6.158  12.775  0.00  0.00    +0.000 A 
ATOM     19  C   UNL     1      46.044   5.013  13.264  0.00  0.00    +0.000 A 
ATOM     20  C   UNL     1      45.218   4.251  12.428  0.00  0.00    +0.000 A 
ATOM     21  C   UNL     1      45.029   4.625  11.092  0.00  0.00    +0.000 A 
ATOM     22  C   UNL     1      45.697   5.751  10.601  0.00  0.00    +0.000 A 
ATOM     23  C   UNL     1      46.525   6.507  11.431  0.00  0.00    +0.000 A 
BRANCH  21  24
ATOM     24  C   UNL     1      44.225   3.798  10.131  0.00  0.00    +0.000 C 
BRANCH  24  25
ATOM     25  N   UNL     1      44.314   4.256   8.745  0.00  0.00    +0.000 NA
ATOM     26  H   UNL     1      44.834   5.136   8.732  0.00  0.00    +0.000 HD
BRANCH  25  27
ATOM     27  C   UNL     1      45.022   3.268   7.917  0.00  0.00    +0.000 C 
ATOM     28  C   UNL     1      45.466   2.086   8.794  0.00  0.00    +0.000 C 
ATOM     29  C   UNL     1      46.229   1.051   7.964  0.00  0.00    +0.000 C 
ATOM     30  C   UNL     1      47.417   1.672   7.237  0.00  0.00    +0.000 C 
ATOM     31  C   UNL     1      46.995   2.858   6.384  0.00  0.00    +0.000 C 
ATOM     32  C   UNL     1      46.243   3.886   7.213  0.00  0.00    +0.000 C 
ENDBRANCH  25  27
ENDBRANCH  24  25
ENDBRANCH  21  24
ENDBRANCH  17  18
ENDBRANCH   3  17
TORSDOF 6
ENDMDL
MODEL 3
REMARK VINA RESULT:    -8.198      3.215      4.784
REMARK INTER + INTRA:         -11.702
REMARK INTER:                 -10.614
REMARK INTRA:                  -1.088
REMARK UNBOUND:                -0.628
REMARK  Name = 
REMARK  7 active torsions:
REMARK  status: ('A' for Active; 'I' for Inactive)
REMARK    1  A    between atoms: C_1  and  C_2
REMARK    2  A    between atoms: C_7  and  C_8
REMARK    3  A    between atoms: N_10  and  C_11
REMARK    4  A    between atoms: C_11  and  C_12
REMARK    5  A    between atoms: C_15  and  C_16
REMARK    6  A    between atoms: C_16  and  N_17
REMARK    7  A    between atoms: N_17  and  C_18
REMARK                            x       y       z     vdW  Elec       q    Type
REMARK                         _______ _______ _______ _____ _____    ______ ____
ROOT
ATOM      1  C   UNL     1      48.798   6.325  16.474  0.00  0.00    +0.000 C 
ATOM      2  O   UNL     1      49.693   5.513  16.258  0.00  0.00    +0.000 OA
ATOM      3  N   UNL     1      48.160   6.972  15.442  0.00  0.00    +0.000 N 
ATOM      4  H   UNL     1      47.412   7.631  15.626  0.00  0.00    +0.000 HD
ENDROOT
BRANCH   1  11
ATOM      5  C   UNL     1      46.791  11.134  20.932  0.00  0.00    +0.000 C 
ATOM      6  C   UNL     1      47.205   9.928  20.141  0.00  0.00    +0.000 A 
ATOM      7  N   UNL     1      47.274   8.747  20.670  0.00  0.00    +0.000 NA
ATOM      8  C   UNL     1      47.668   7.759  19.819  0.00  0.00    +0.000 A 
ATOM      9  S   UNL     1      47.820   6.152  20.352  0.00  0.00    +0.000 S 
ATOM     10  C   UNL     1      48.313   5.627  18.804  0.00  0.00    +0.000 A 
ATOM     11  C   UNL     1      48.376   6.641  17.856  0.00  0.00    +0.000 A 
ATOM     12  C   UNL     1      47.986   7.893  18.480  0.00  0.00    +0.000 A 
ATOM     13  C   UNL     1      47.880   9.224  17.938  0.00  0.00    +0.000 A 
ATOM     14  O   UNL     1      48.100   9.521  16.765  0.00  0.00    +0.000 OA
ATOM     15  N   UNL     1      47.501  10.192  18.830  0.00  0.00    +0.000 N 
ATOM     16  H   UNL     1      47.428  11.127  18.452  0.00  0.00    +0.000 HD
ENDBRANCH   1  11
BRANCH   3  17
ATOM     17  C   UNL     1      48.506   6.731  14.060  0.00  0.00    +0.000 C 
BRANCH  17  18
ATOM     18  C   UNL     1      47.389   6.075  13.284  0.00  0.00    +0.000 A 
ATOM     19  C   UNL     1      46.861   4.837  13.685  0.00  0.00    +0.000 A 
ATOM     20  C   UNL     1      45.805   4.250  12.976  0.00  0.00    +0.000 A 
ATOM     21  C   UNL     1      45.260   4.895  11.859  0.00  0.00    +0.000 A 
ATOM     22  C   UNL     1      45.805   6.116  11.447  0.00  0.00    +0.000 A 
ATOM     23  C   UNL     1      46.860   6.697  12.148  0.00  0.00    +0.000 A 
BRANCH  21  24
ATOM     24  C   UNL     1      44.188   4.271  11.014  0.00  0.00    +0.000 C 
BRANCH  24  25
ATOM     25  N   UNL     1      44.152   4.778   9.642  0.00  0.00    +0.000 NA
ATOM     26  H   UNL     1      44.759   5.599   9.589  0.00  0.00    +0.000 HD
BRANCH  25  27
ATOM     27  C   UNL     1      44.639   3.759   8.701  0.00  0.00    +0.000 C 
ATOM     28  C   UNL     1      44.906   2.447   9.455  0.00  0.00    +0.000 C 
ATOM     29  C   UNL     1      45.439   1.372   8.505  0.00  0.00    +0.000 C 
ATOM     30  C   UNL     1      46.686   1.841   7.762  0.00  0.00    +0.000 C 
ATOM     31  C   UNL     1      46.442   3.151   7.030  0.00  0.00    +0.000 C 
ATOM     32  C   UNL     1      45.919   4.217   7.978  0.00  0.00    +0.000 C 
ENDBRANCH  25  27
ENDBRANCH  24  25
ENDBRANCH  21  24
ENDBRANCH  17  18
ENDBRANCH   3  17
TORSDOF 6
ENDMDL
MODEL 4
REMARK VINA RESULT:    -8.166      2.231      3.111
REMARK INTER + INTRA:         -11.658
REMARK INTER:                 -10.368
REMARK INTRA:                  -1.291
REMARK UNBOUND:                -0.628
REMARK  Name = 
REMARK  7 active torsions:
REMARK  status: ('A' for Active; 'I' for Inactive)
REMARK    1  A    between atoms: C_1  and  C_2
REMARK    2  A    between atoms: C_7  and  C_8
REMARK    3  A    between atoms: N_10  and  C_11
REMARK    4  A    between atoms: C_11  and  C_12
REMARK    5  A    between atoms: C_15  and  C_16
REMARK    6  A    between atoms: C_16  and  N_17
REMARK    7  A    between atoms: N_17  and  C_18
REMARK                            x       y       z     vdW  Elec       q    Type
REMARK                         _______ _______ _______ _____ _____    ______ ____
ROOT
ATOM      1  C   UNL     1      48.503   7.647  14.074  0.00  0.00    +0.000 C 
ATOM      2  O   UNL     1      49.171   7.872  13.068  0.00  0.00    +0.000 OA
ATOM      3  N   UNL     1      47.138   7.811  14.074  0.00  0.00    +0.000 N 
ATOM      4  H   UNL     1      46.591   7.610  14.903  0.00  0.00    +0.000 HD
ENDROOT
BRANCH   1  11
ATOM      5  C   UNL     1      48.622   3.034  19.146  0.00  0.00    +0.000 C 
ATOM      6  C   UNL     1      48.785   4.144  18.150  0.00  0.00    +0.000 A 
ATOM      7  N   UNL     1      49.697   5.056  18.276  0.00  0.00    +0.000 NA
ATOM      8  C   UNL     1      49.711   5.993  17.288  0.00  0.00    +0.000 A 
ATOM      9  S   UNL     1      50.838   7.266  17.304  0.00  0.00    +0.000 S 
ATOM     10  C   UNL     1      50.212   7.912  15.852  0.00  0.00    +0.000 A 
ATOM     11  C   UNL     1      49.146   7.192  15.326  0.00  0.00    +0.000 A 
ATOM     12  C   UNL     1      48.871   6.058  16.192  0.00  0.00    +0.000 A 
ATOM     13  C   UNL     1      47.884   5.013  16.092  0.00  0.00    +0.000 A 
ATOM     14  O   UNL     1      47.074   4.902  15.173  0.00  0.00    +0.000 OA
ATOM     15  N   UNL     1      47.888   4.103  17.114  0.00  0.00    +0.000 N 
ATOM     16  H   UNL     1      47.195   3.370  17.048  0.00  0.00    +0.000 HD
ENDBRANCH   1  11
BRANCH   3  17
ATOM     17  C   UNL     1      46.422   8.255  12.900  0.00  0.00    +0.000 C 
BRANCH  17  18
ATOM     18  C   UNL     1      45.862   7.111  12.089  0.00  0.00    +0.000 A 
ATOM     19  C   UNL     1      46.488   6.689  10.906  0.00  0.00    +0.000 A 
ATOM     20  C   UNL     1      45.979   5.606  10.177  0.00  0.00    +0.000 A 
ATOM     21  C   UNL     1      44.838   4.929  10.624  0.00  0.00    +0.000 A 
ATOM     22  C   UNL     1      44.202   5.367  11.790  0.00  0.00    +0.000 A 
ATOM     23  C   UNL     1      44.705   6.448  12.513  0.00  0.00    +0.000 A 
BRANCH  21  24
ATOM     24  C   UNL     1      44.201   3.820   9.838  0.00  0.00    +0.000 C 
BRANCH  24  25
ATOM     25  N   UNL     1      44.173   4.064   8.396  0.00  0.00    +0.000 NA
ATOM     26  H   UNL     1      44.563   4.992   8.221  0.00  0.00    +0.000 HD
BRANCH  25  27
ATOM     27  C   UNL     1      44.983   3.062   7.686  0.00  0.00    +0.000 C 
ATOM     28  C   UNL     1      45.479   2.002   8.681  0.00  0.00    +0.000 C 
ATOM     29  C   UNL     1      46.347   0.957   7.976  0.00  0.00    +0.000 C 
ATOM     30  C   UNL     1      47.513   1.599   7.230  0.00  0.00    +0.000 C 
ATOM     31  C   UNL     1      47.036   2.667   6.258  0.00  0.00    +0.000 C 
ATOM     32  C   UNL     1      46.180   3.705   6.964  0.00  0.00    +0.000 C 
ENDBRANCH  25  27
ENDBRANCH  24  25
ENDBRANCH  21  24
ENDBRANCH  17  18
ENDBRANCH   3  17
TORSDOF 6
ENDMDL
MODEL 5
REMARK VINA RESULT:    -7.626      4.275      5.139
REMARK INTER + INTRA:         -10.928
REMARK INTER:                  -9.850
REMARK INTRA:                  -1.078
REMARK UNBOUND:                -0.628
REMARK  Name = 
REMARK  7 active torsions:
REMARK  status: ('A' for Active; 'I' for Inactive)
REMARK    1  A    between atoms: C_1  and  C_2
REMARK    2  A    between atoms: C_7  and  C_8
REMARK    3  A    between atoms: N_10  and  C_11
REMARK    4  A    between atoms: C_11  and  C_12
REMARK    5  A    between atoms: C_15  and  C_16
REMARK    6  A    between atoms: C_16  and  N_17
REMARK    7  A    between atoms: N_17  and  C_18
REMARK                            x       y       z     vdW  Elec       q    Type
REMARK                         _______ _______ _______ _____ _____    ______ ____
ROOT
ATOM      1  C   UNL     1      48.862   7.936  14.510  0.00  0.00    +0.000 C 
ATOM      2  O   UNL     1      48.029   8.626  15.092  0.00  0.00    +0.000 OA
ATOM      3  N   UNL     1      48.604   6.624  14.193  0.00  0.00    +0.000 N 
ATOM      4  H   UNL     1      49.291   6.064  13.700  0.00  0.00    +0.000 HD
ENDROOT
BRANCH   1  11
ATOM      5  C   UNL     1      53.524   8.870   9.569  0.00  0.00    +0.000 C 
ATOM      6  C   UNL     1      52.658   8.787  10.792  0.00  0.00    +0.000 A 
ATOM      7  N   UNL     1      53.022   9.291  11.929  0.00  0.00    +0.000 NA
ATOM      8  C   UNL     1      52.124   9.129  12.941  0.00  0.00    +0.000 A 
ATOM      9  S   UNL     1      52.446   9.723  14.501  0.00  0.00    +0.000 S 
ATOM     10  C   UNL     1      50.950   9.144  15.089  0.00  0.00    +0.000 A 
ATOM     11  C   UNL     1      50.179   8.495  14.133  0.00  0.00    +0.000 A 
ATOM     12  C   UNL     1      50.894   8.502  12.868  0.00  0.00    +0.000 A 
ATOM     13  C   UNL     1      50.532   7.972  11.578  0.00  0.00    +0.000 A 
ATOM     14  O   UNL     1      49.469   7.406  11.327  0.00  0.00    +0.000 OA
ATOM     15  N   UNL     1      51.470   8.135  10.593  0.00  0.00    +0.000 N 
ATOM     16  H   UNL     1      51.220   7.762   9.688  0.00  0.00    +0.000 HD
ENDBRANCH   1  11
BRANCH   3  17
ATOM     17  C   UNL     1      47.348   5.991  14.525  0.00  0.00    +0.000 C 
BRANCH  17  18
ATOM     18  C   UNL     1      46.581   5.540  13.304  0.00  0.00    +0.000 A 
ATOM     19  C   UNL     1      46.424   6.387  12.196  0.00  0.00    +0.000 A 
ATOM     20  C   UNL     1      45.737   5.949  11.056  0.00  0.00    +0.000 A 
ATOM     21  C   UNL     1      45.201   4.656  11.009  0.00  0.00    +0.000 A 
ATOM     22  C   UNL     1      45.338   3.823  12.124  0.00  0.00    +0.000 A 
ATOM     23  C   UNL     1      46.016   4.260  13.261  0.00  0.00    +0.000 A 
BRANCH  21  24
ATOM     24  C   UNL     1      44.383   4.166   9.849  0.00  0.00    +0.000 C 
BRANCH  24  25
ATOM     25  N   UNL     1      44.901   4.585   8.547  0.00  0.00    +0.000 NA
ATOM     26  H   UNL     1      45.675   5.234   8.704  0.00  0.00    +0.000 HD
BRANCH  25  27
ATOM     27  C   UNL     1      45.395   3.426   7.789  0.00  0.00    +0.000 C 
ATOM     28  C   UNL     1      45.691   2.267   8.755  0.00  0.00    +0.000 C 
ATOM     29  C   UNL     1      46.231   1.052   7.998  0.00  0.00    +0.000 C 
ATOM     30  C   UNL     1      47.462   1.403   7.167  0.00  0.00    +0.000 C 
ATOM     31  C   UNL     1      47.189   2.564   6.223  0.00  0.00    +0.000 C 
ATOM     32  C   UNL     1      46.658   3.770   6.980  0.00  0.00    +0.000 C 
ENDBRANCH  25  27
ENDBRANCH  24  25
ENDBRANCH  21  24
ENDBRANCH  17  18
ENDBRANCH   3  17
TORSDOF 6
ENDMDL
MODEL 6
REMARK VINA RESULT:    -7.428      5.016      6.125
REMARK INTER + INTRA:         -10.662
REMARK INTER:                  -9.565
REMARK INTRA:                  -1.096
REMARK UNBOUND:                -0.628
REMARK  Name = 
REMARK  7 active torsions:
REMARK  status: ('A' for Active; 'I' for Inactive)
REMARK    1  A    between atoms: C_1  and  C_2
REMARK    2  A    between atoms: C_7  and  C_8
REMARK    3  A    between atoms: N_10  and  C_11
REMARK    4  A    between atoms: C_11  and  C_12
REMARK    5  A    between atoms: C_15  and  C_16
REMARK    6  A    between atoms: C_16  and  N_17
REMARK    7  A    between atoms: N_17  and  C_18
REMARK                            x       y       z     vdW  Elec       q    Type
REMARK                         _______ _______ _______ _____ _____    ______ ____
ROOT
ATOM      1  C   UNL     1      48.047  10.112  12.078  0.00  0.00    +0.000 C 
ATOM      2  O   UNL     1      47.423  11.098  12.461  0.00  0.00    +0.000 OA
ATOM      3  N   UNL     1      47.528   8.846  12.208  0.00  0.00    +0.000 N 
ATOM      4  H   UNL     1      48.042   8.037  11.877  0.00  0.00    +0.000 HD
ENDROOT
BRANCH   1  11
ATOM      5  C   UNL     1      54.502   7.822  11.743  0.00  0.00    +0.000 C 
ATOM      6  C   UNL     1      53.159   8.483  11.648  0.00  0.00    +0.000 A 
ATOM      7  N   UNL     1      52.937   9.485  10.856  0.00  0.00    +0.000 NA
ATOM      8  C   UNL     1      51.666   9.971  10.889  0.00  0.00    +0.000 A 
ATOM      9  S   UNL     1      51.206  11.289   9.918  0.00  0.00    +0.000 S 
ATOM     10  C   UNL     1      49.610  11.251  10.524  0.00  0.00    +0.000 A 
ATOM     11  C   UNL     1      49.387  10.253  11.465  0.00  0.00    +0.000 A 
ATOM     12  C   UNL     1      50.617   9.507  11.661  0.00  0.00    +0.000 A 
ATOM     13  C   UNL     1      50.913   8.383  12.514  0.00  0.00    +0.000 A 
ATOM     14  O   UNL     1      50.096   7.828  13.247  0.00  0.00    +0.000 OA
ATOM     15  N   UNL     1      52.206   7.936  12.468  0.00  0.00    +0.000 N 
ATOM     16  H   UNL     1      52.417   7.150  13.066  0.00  0.00    +0.000 HD
ENDBRANCH   1  11
BRANCH   3  17
ATOM     17  C   UNL     1      46.230   8.609  12.797  0.00  0.00    +0.000 C 
BRANCH  17  18
ATOM     18  C   UNL     1      45.700   7.226  12.507  0.00  0.00    +0.000 A 
ATOM     19  C   UNL     1      46.360   6.083  12.986  0.00  0.00    +0.000 A 
ATOM     20  C   UNL     1      45.844   4.805  12.738  0.00  0.00    +0.000 A 
ATOM     21  C   UNL     1      44.658   4.652  12.008  0.00  0.00    +0.000 A 
ATOM     22  C   UNL     1      44.016   5.791  11.510  0.00  0.00    +0.000 A 
ATOM     23  C   UNL     1      44.533   7.063  11.752  0.00  0.00    +0.000 A 
BRANCH  21  24
ATOM     24  C   UNL     1      44.108   3.305  11.639  0.00  0.00    +0.000 C 
BRANCH  24  25
ATOM     25  N   UNL     1      43.827   3.156  10.212  0.00  0.00    +0.000 NA
ATOM     26  H   UNL     1      43.334   3.994   9.894  0.00  0.00    +0.000 HD
BRANCH  25  27
ATOM     27  C   UNL     1      45.076   3.017   9.449  0.00  0.00    +0.000 C 
ATOM     28  C   UNL     1      45.149   4.116   8.376  0.00  0.00    +0.000 C 
ATOM     29  C   UNL     1      46.429   3.983   7.548  0.00  0.00    +0.000 C 
ATOM     30  C   UNL     1      46.558   2.596   6.924  0.00  0.00    +0.000 C 
ATOM     31  C   UNL     1      46.464   1.499   7.973  0.00  0.00    +0.000 C 
ATOM     32  C   UNL     1      45.189   1.631   8.789  0.00  0.00    +0.000 C 
ENDBRANCH  25  27
ENDBRANCH  24  25
ENDBRANCH  21  24
ENDBRANCH  17  18
ENDBRANCH   3  17
TORSDOF 6
ENDMDL
MODEL 7
REMARK VINA RESULT:    -7.340      3.782      9.131
REMARK INTER + INTRA:         -10.542
REMARK INTER:                  -9.319
REMARK INTRA:                  -1.223
REMARK UNBOUND:                -0.628
REMARK  Name = 
REMARK  7 active torsions:
REMARK  status: ('A' for Active; 'I' for Inactive)
REMARK    1  A    between atoms: C_1  and  C_2
REMARK    2  A    between atoms: C_7  and  C_8
REMARK    3  A    between atoms: N_10  and  C_11
REMARK    4  A    between atoms: C_11  and  C_12
REMARK    5  A    between atoms: C_15  and  C_16
REMARK    6  A    between atoms: C_16  and  N_17
REMARK    7  A    between atoms: N_17  and  C_18
REMARK                            x       y       z     vdW  Elec       q    Type
REMARK                         _______ _______ _______ _____ _____    ______ ____
ROOT
ATOM      1  C   UNL     1      47.039   4.005  14.711  0.00  0.00    +0.000 C 
ATOM      2  O   UNL     1      47.411   2.892  14.346  0.00  0.00    +0.000 OA
ATOM      3  N   UNL     1      46.952   4.324  16.045  0.00  0.00    +0.000 N 
ATOM      4  H   UNL     1      46.659   5.249  16.339  0.00  0.00    +0.000 HD
ENDROOT
BRANCH   1  11
ATOM      5  C   UNL     1      48.460  10.132  11.980  0.00  0.00    +0.000 C 
ATOM      6  C   UNL     1      47.965   8.786  12.420  0.00  0.00    +0.000 A 
ATOM      7  N   UNL     1      46.919   8.230  11.895  0.00  0.00    +0.000 NA
ATOM      8  C   UNL     1      46.600   7.009  12.407  0.00  0.00    +0.000 A 
ATOM      9  S   UNL     1      45.253   6.143  11.836  0.00  0.00    +0.000 S 
ATOM     10  C   UNL     1      45.555   4.854  12.914  0.00  0.00    +0.000 A 
ATOM     11  C   UNL     1      46.668   5.043  13.724  0.00  0.00    +0.000 A 
ATOM     12  C   UNL     1      47.272   6.324  13.402  0.00  0.00    +0.000 A 
ATOM     13  C   UNL     1      48.435   6.980  13.943  0.00  0.00    +0.000 A 
ATOM     14  O   UNL     1      49.163   6.506  14.814  0.00  0.00    +0.000 OA
ATOM     15  N   UNL     1      48.710   8.214  13.418  0.00  0.00    +0.000 N 
ATOM     16  H   UNL     1      49.524   8.677  13.797  0.00  0.00    +0.000 HD
ENDBRANCH   1  11
BRANCH   3  17
ATOM     17  C   UNL     1      47.290   3.375  17.081  0.00  0.00    +0.000 C 
BRANCH  17  18
ATOM     18  C   UNL     1      48.770   3.338  17.379  0.00  0.00    +0.000 A 
ATOM     19  C   UNL     1      49.410   4.420  18.004  0.00  0.00    +0.000 A 
ATOM     20  C   UNL     1      50.777   4.364  18.304  0.00  0.00    +0.000 A 
ATOM     21  C   UNL     1      51.523   3.222  17.985  0.00  0.00    +0.000 A 
ATOM     22  C   UNL     1      50.889   2.156  17.339  0.00  0.00    +0.000 A 
ATOM     23  C   UNL     1      49.529   2.213  17.035  0.00  0.00    +0.000 A 
BRANCH  21  24
ATOM     24  C   UNL     1      53.006   3.143  18.204  0.00  0.00    +0.000 C 
BRANCH  24  25
ATOM     25  N   UNL     1      53.413   2.030  19.062  0.00  0.00    +0.000 NA
ATOM     26  H   UNL     1      52.582   1.481  19.290  0.00  0.00    +0.000 HD
BRANCH  25  27
ATOM     27  C   UNL     1      54.381   1.169  18.367  0.00  0.00    +0.000 C 
ATOM     28  C   UNL     1      54.783   1.818  17.033  0.00  0.00    +0.000 C 
ATOM     29  C   UNL     1      55.773   0.932  16.273  0.00  0.00    +0.000 C 
ATOM     30  C   UNL     1      55.223  -0.475  16.056  0.00  0.00    +0.000 C 
ATOM     31  C   UNL     1      54.800  -1.120  17.367  0.00  0.00    +0.000 C 
ATOM     32  C   UNL     1      53.813  -0.239  18.115  0.00  0.00    +0.000 C 
ENDBRANCH  25  27
ENDBRANCH  24  25
ENDBRANCH  21  24
ENDBRANCH  17  18
ENDBRANCH   3  17
TORSDOF 6
ENDMDL
MODEL 8
REMARK VINA RESULT:    -7.071      3.468      9.152
REMARK INTER + INTRA:         -10.179
REMARK INTER:                  -9.131
REMARK INTRA:                  -1.048
REMARK UNBOUND:                -0.628
REMARK  Name = 
REMARK  7 active torsions:
REMARK  status: ('A' for Active; 'I' for Inactive)
REMARK    1  A    between atoms: C_1  and  C_2
REMARK    2  A    between atoms: C_7  and  C_8
REMARK    3  A    between atoms: N_10  and  C_11
REMARK    4  A    between atoms: C_11  and  C_12
REMARK    5  A    between atoms: C_15  and  C_16
REMARK    6  A    between atoms: C_16  and  N_17
REMARK    7  A    between atoms: N_17  and  C_18
REMARK                            x       y       z     vdW  Elec       q    Type
REMARK                         _______ _______ _______ _____ _____    ______ ____
ROOT
ATOM      1  C   UNL     1      48.027   6.867  13.579  0.00  0.00    +0.000 C 
ATOM      2  O   UNL     1      49.116   6.628  13.063  0.00  0.00    +0.000 OA
ATOM      3  N   UNL     1      47.941   7.394  14.846  0.00  0.00    +0.000 N 
ATOM      4  H   UNL     1      47.040   7.603  15.261  0.00  0.00    +0.000 HD
ENDROOT
BRANCH   1  11
ATOM      5  C   UNL     1      43.351   2.212  11.714  0.00  0.00    +0.000 C 
ATOM      6  C   UNL     1      44.236   3.389  12.002  0.00  0.00    +0.000 A 
ATOM      7  N   UNL     1      43.970   4.577  11.557  0.00  0.00    +0.000 NA
ATOM      8  C   UNL     1      44.873   5.535  11.905  0.00  0.00    +0.000 A 
ATOM      9  S   UNL     1      44.681   7.146  11.399  0.00  0.00    +0.000 S 
ATOM     10  C   UNL     1      46.114   7.625  12.195  0.00  0.00    +0.000 A 
ATOM     11  C   UNL     1      46.767   6.592  12.855  0.00  0.00    +0.000 A 
ATOM     12  C   UNL     1      46.011   5.365  12.672  0.00  0.00    +0.000 A 
ATOM     13  C   UNL     1      46.253   4.028  13.153  0.00  0.00    +0.000 A 
ATOM     14  O   UNL     1      47.201   3.702  13.866  0.00  0.00    +0.000 OA
ATOM     15  N   UNL     1      45.334   3.090  12.764  0.00  0.00    +0.000 N 
ATOM     16  H   UNL     1      45.503   2.151  13.098  0.00  0.00    +0.000 HD
ENDBRANCH   1  11
BRANCH   3  17
ATOM     17  C   UNL     1      49.116   7.692  15.631  0.00  0.00    +0.000 C 
BRANCH  17  18
ATOM     18  C   UNL     1      49.697   6.469  16.300  0.00  0.00    +0.000 A 
ATOM     19  C   UNL     1      51.077   6.360  16.533  0.00  0.00    +0.000 A 
ATOM     20  C   UNL     1      51.604   5.235  17.182  0.00  0.00    +0.000 A 
ATOM     21  C   UNL     1      50.756   4.206  17.609  0.00  0.00    +0.000 A 
ATOM     22  C   UNL     1      49.384   4.307  17.354  0.00  0.00    +0.000 A 
ATOM     23  C   UNL     1      48.860   5.423  16.703  0.00  0.00    +0.000 A 
BRANCH  21  24
ATOM     24  C   UNL     1      51.275   2.942  18.231  0.00  0.00    +0.000 C 
BRANCH  24  25
ATOM     25  N   UNL     1      52.538   3.116  18.946  0.00  0.00    +0.000 NA
ATOM     26  H   UNL     1      52.362   2.979  19.944  0.00  0.00    +0.000 HD
BRANCH  25  27
ATOM     27  C   UNL     1      53.530   2.128  18.495  0.00  0.00    +0.000 C 
ATOM     28  C   UNL     1      54.658   2.842  17.733  0.00  0.00    +0.000 C 
ATOM     29  C   UNL     1      55.694   1.837  17.228  0.00  0.00    +0.000 C 
ATOM     30  C   UNL     1      55.056   0.748  16.370  0.00  0.00    +0.000 C 
ATOM     31  C   UNL     1      53.922   0.049  17.104  0.00  0.00    +0.000 C 
ATOM     32  C   UNL     1      52.893   1.051  17.599  0.00  0.00    +0.000 C 
ENDBRANCH  25  27
ENDBRANCH  24  25
ENDBRANCH  21  24
ENDBRANCH  17  18
ENDBRANCH   3  17
TORSDOF 6
ENDMDL
