MODEL 1
REMARK VINA RESULT:    -7.488      0.000      0.000
REMARK INTER + INTRA:         -11.629
REMARK INTER:                 -10.552
REMARK INTRA:                  -1.077
REMARK UNBOUND:                -1.077
REMARK  Name = 
REMARK  8 active torsions:
REMARK  status: ('A' for Active; 'I' for Inactive)
REMARK    1  A    between atoms: C_1  and  C_2
REMARK    2  A    between atoms: C_2  and  C_3
REMARK    3  A    between atoms: C_7  and  O_8
REMARK    4  A    between atoms: O_8  and  C_9
REMARK    5  A    between atoms: C_9  and  C_10
REMARK    6  A    between atoms: C_10  and  C_11
REMARK    7  A    between atoms: N_21  and  C_22
REMARK    8  A    between atoms: C_22  and  C_23
REMARK                            x       y       z     vdW  Elec       q    Type
REMARK                         _______ _______ _______ _____ _____    ______ ____
ROOT
ATOM      1  C   UNL     1      46.600   6.150  12.989  0.00  0.00    +0.000 A 
ATOM      2  C   UNL     1      46.577   7.514  12.641  0.00  0.00    +0.000 A 
ATOM      3  C   UNL     1      47.463   8.429  13.214  0.00  0.00    +0.000 A 
ATOM      4  C   UNL     1      48.386   8.005  14.166  0.00  0.00    +0.000 A 
ATOM      5  C   UNL     1      48.415   6.666  14.548  0.00  0.00    +0.000 A 
ATOM      6  C   UNL     1      47.558   5.745  13.935  0.00  0.00    +0.000 A 
ENDROOT
BRANCH   1   8
ATOM      7  C   UNL     1      45.954   3.750  12.824  0.00  0.00    +0.000 C 
ATOM      8  C   UNL     1      45.542   5.186  12.404  0.00  0.00    +0.000 C 
ATOM      9  C   UNL     1      44.136   5.538  12.960  0.00  0.00    +0.000 C 
ATOM     10  C   UNL     1      43.027   4.702  12.321  0.00  0.00    +0.000 C 
ATOM     11  C   UNL     1      43.072   4.759  10.794  0.00  0.00    +0.000 C 
ATOM     12  N   UNL     1      44.394   4.359  10.290  0.00  0.00    +0.000 NA
ATOM     13  C   UNL     1      45.447   5.234  10.846  0.00  0.00    +0.000 C 
BRANCH  12  14
ATOM     14  C   UNL     1      44.448   4.374   8.801  0.00  0.00    +0.000 C 
BRANCH  14  15
ATOM     15  C   UNL     1      45.605   3.651   8.071  0.00  0.00    +0.000 C 
ATOM     16  F   UNL     1      45.287   3.240   6.825  0.00  0.00    +0.000 F 
ATOM     17  F   UNL     1      46.681   4.467   7.966  0.00  0.00    +0.000 F 
ATOM     18  F   UNL     1      46.001   2.557   8.766  0.00  0.00    +0.000 F 
ENDBRANCH  14  15
ENDBRANCH  12  14
ENDBRANCH   1   8
BRANCH   5  19
ATOM     19  O   UNL     1      49.235   6.153  15.517  0.00  0.00    +0.000 OA
BRANCH  19  20
ATOM     20  C   UNL     1      48.814   6.421  16.859  0.00  0.00    +0.000 C 
BRANCH  20  21
ATOM     21  C   UNL     1      48.125   5.174  17.411  0.00  0.00    +0.000 C 
BRANCH  21  22
ATOM     22  C   UNL     1      48.981   3.959  17.252  0.00  0.00    +0.000 A 
ATOM     23  C   UNL     1      50.244   3.863  17.800  0.00  0.00    +0.000 A 
ATOM     24  N   UNL     1      51.057   2.803  17.635  0.00  0.00    +0.000 NA
ATOM     25  C   UNL     1      50.563   1.807  16.886  0.00  0.00    +0.000 A 
ATOM     26  N   UNL     1      49.359   1.782  16.298  0.00  0.00    +0.000 NA
ATOM     27  C   UNL     1      48.591   2.871  16.496  0.00  0.00    +0.000 A 
ENDBRANCH  21  22
ENDBRANCH  20  21
ENDBRANCH  19  20
ENDBRANCH   5  19
TORSDOF 7
ENDMDL
MODEL 2
REMARK VINA RESULT:    -6.891      3.941      7.886
REMARK INTER + INTRA:         -10.787
REMARK INTER:                  -9.984
REMARK INTRA:                  -0.803
REMARK UNBOUND:                -1.077
REMARK  Name = 
REMARK  8 active torsions:
REMARK  status: ('A' for Active; 'I' for Inactive)
REMARK    1  A    between atoms: C_1  and  C_2
REMARK    2  A    between atoms: C_2  and  C_3
REMARK    3  A    between atoms: C_7  and  O_8
REMARK    4  A    between atoms: O_8  and  C_9
REMARK    5  A    between atoms: C_9  and  C_10
REMARK    6  A    between atoms: C_10  and  C_11
REMARK    7  A    between atoms: N_21  and  C_22
REMARK    8  A    between atoms: C_22  and  C_23
REMARK                            x       y       z     vdW  Elec       q    Type
REMARK                         _______ _______ _______ _____ _____    ______ ____
ROOT
ATOM      1  C   UNL     1      46.619   6.505  12.939  0.00  0.00    +0.000 A 
ATOM      2  C   UNL     1      45.855   7.547  12.379  0.00  0.00    +0.000 A 
ATOM      3  C   UNL     1      44.796   7.289  11.506  0.00  0.00    +0.000 A 
ATOM      4  C   UNL     1      44.484   5.979  11.156  0.00  0.00    +0.000 A 
ATOM      5  C   UNL     1      45.237   4.929  11.675  0.00  0.00    +0.000 A 
ATOM      6  C   UNL     1      46.266   5.191  12.587  0.00  0.00    +0.000 A 
ENDROOT
BRANCH   1   8
ATOM      7  C   UNL     1      49.098   6.741  12.920  0.00  0.00    +0.000 C 
ATOM      8  C   UNL     1      47.842   6.835  13.826  0.00  0.00    +0.000 C 
ATOM      9  C   UNL     1      47.698   8.261  14.421  0.00  0.00    +0.000 C 
ATOM     10  C   UNL     1      48.815   8.599  15.409  0.00  0.00    +0.000 C 
ATOM     11  C   UNL     1      48.960   7.535  16.497  0.00  0.00    +0.000 C 
ATOM     12  N   UNL     1      49.159   6.202  15.908  0.00  0.00    +0.000 NA
ATOM     13  C   UNL     1      48.027   5.852  15.026  0.00  0.00    +0.000 C 
BRANCH  12  14
ATOM     14  C   UNL     1      49.338   5.155  16.953  0.00  0.00    +0.000 C 
BRANCH  14  15
ATOM     15  C   UNL     1      48.105   4.631  17.728  0.00  0.00    +0.000 C 
ATOM     16  F   UNL     1      47.247   5.603  18.103  0.00  0.00    +0.000 F 
ATOM     17  F   UNL     1      47.411   3.747  16.972  0.00  0.00    +0.000 F 
ATOM     18  F   UNL     1      48.488   3.979  18.853  0.00  0.00    +0.000 F 
ENDBRANCH  14  15
ENDBRANCH  12  14
ENDBRANCH   1   8
BRANCH   5  19
ATOM     19  O   UNL     1      45.059   3.611  11.350  0.00  0.00    +0.000 OA
BRANCH  19  20
ATOM     20  C   UNL     1      44.060   3.370  10.353  0.00  0.00    +0.000 C 
BRANCH  20  21
ATOM     21  C   UNL     1      44.444   2.115   9.572  0.00  0.00    +0.000 C 
BRANCH  21  22
ATOM     22  C   UNL     1      45.464   2.415   8.520  0.00  0.00    +0.000 A 
ATOM     23  C   UNL     1      46.382   1.479   8.088  0.00  0.00    +0.000 A 
ATOM     24  N   UNL     1      47.342   1.731   7.179  0.00  0.00    +0.000 NA
ATOM     25  C   UNL     1      47.365   2.981   6.694  0.00  0.00    +0.000 A 
ATOM     26  N   UNL     1      46.535   3.977   7.036  0.00  0.00    +0.000 NA
ATOM     27  C   UNL     1      45.597   3.666   7.952  0.00  0.00    +0.000 A 
ENDBRANCH  21  22
ENDBRANCH  20  21
ENDBRANCH  19  20
ENDBRANCH   5  19
TORSDOF 7
ENDMDL
MODEL 3
REMARK VINA RESULT:    -6.567      4.443      8.161
REMARK INTER + INTRA:         -10.331
REMARK INTER:                  -9.499
REMARK INTRA:                  -0.832
REMARK UNBOUND:                -1.077
REMARK  Name = 
REMARK  8 active torsions:
REMARK  status: ('A' for Active; 'I' for Inactive)
REMARK    1  A    between atoms: C_1  and  C_2
REMARK    2  A    between atoms: C_2  and  C_3
REMARK    3  A    between atoms: C_7  and  O_8
REMARK    4  A    between atoms: O_8  and  C_9
REMARK    5  A    between atoms: C_9  and  C_10
REMARK    6  A    between atoms: C_10  and  C_11
REMARK    7  A    between atoms: N_21  and  C_22
REMARK    8  A    between atoms: C_22  and  C_23
REMARK                            x       y       z     vdW  Elec       q    Type
REMARK                         _______ _______ _______ _____ _____    ______ ____
ROOT
ATOM      1  C   UNL     1      47.125   7.460  12.847  0.00  0.00    +0.000 A 
ATOM      2  C   UNL     1      46.060   8.350  13.089  0.00  0.00    +0.000 A 
ATOM      3  C   UNL     1      44.892   8.314  12.326  0.00  0.00    +0.000 A 
ATOM      4  C   UNL     1      44.762   7.396  11.288  0.00  0.00    +0.000 A 
ATOM      5  C   UNL     1      45.808   6.519  11.011  0.00  0.00    +0.000 A 
ATOM      6  C   UNL     1      46.958   6.527  11.809  0.00  0.00    +0.000 A 
ENDROOT
BRANCH   1   8
ATOM      7  C   UNL     1      49.599   7.231  12.685  0.00  0.00    +0.000 C 
ATOM      8  C   UNL     1      48.440   7.593  13.650  0.00  0.00    +0.000 C 
ATOM      9  C   UNL     1      48.597   9.044  14.177  0.00  0.00    +0.000 C 
ATOM     10  C   UNL     1      49.815   9.209  15.086  0.00  0.00    +0.000 C 
ATOM     11  C   UNL     1      49.829   8.182  16.218  0.00  0.00    +0.000 C 
ATOM     12  N   UNL     1      49.745   6.813  15.690  0.00  0.00    +0.000 NA
ATOM     13  C   UNL     1      48.515   6.643  14.887  0.00  0.00    +0.000 C 
BRANCH  12  14
ATOM     14  C   UNL     1      49.793   5.794  16.776  0.00  0.00    +0.000 C 
BRANCH  14  15
ATOM     15  C   UNL     1      51.162   5.267  17.270  0.00  0.00    +0.000 C 
ATOM     16  F   UNL     1      51.435   5.587  18.552  0.00  0.00    +0.000 F 
ATOM     17  F   UNL     1      51.212   3.917  17.169  0.00  0.00    +0.000 F 
ATOM     18  F   UNL     1      52.168   5.761  16.509  0.00  0.00    +0.000 F 
ENDBRANCH  14  15
ENDBRANCH  12  14
ENDBRANCH   1   8
BRANCH   5  19
ATOM     19  O   UNL     1      45.815   5.621   9.977  0.00  0.00    +0.000 OA
BRANCH  19  20
ATOM     20  C   UNL     1      44.929   4.508  10.147  0.00  0.00    +0.000 C 
BRANCH  20  21
ATOM     21  C   UNL     1      44.501   4.012   8.767  0.00  0.00    +0.000 C 
BRANCH  21  22
ATOM     22  C   UNL     1      45.507   3.072   8.185  0.00  0.00    +0.000 A 
ATOM     23  C   UNL     1      45.575   1.741   8.545  0.00  0.00    +0.000 A 
ATOM     24  N   UNL     1      46.498   0.881   8.076  0.00  0.00    +0.000 NA
ATOM     25  C   UNL     1      47.381   1.397   7.209  0.00  0.00    +0.000 A 
ATOM     26  N   UNL     1      47.423   2.669   6.786  0.00  0.00    +0.000 NA
ATOM     27  C   UNL     1      46.477   3.484   7.292  0.00  0.00    +0.000 A 
ENDBRANCH  21  22
ENDBRANCH  20  21
ENDBRANCH  19  20
ENDBRANCH   5  19
TORSDOF 7
ENDMDL
MODEL 4
REMARK VINA RESULT:    -6.429      3.522      7.212
REMARK INTER + INTRA:         -10.137
REMARK INTER:                  -9.045
REMARK INTRA:                  -1.092
REMARK UNBOUND:                -1.077
REMARK  Name = 
REMARK  8 active torsions:
REMARK  status: ('A' for Active; 'I' for Inactive)
REMARK    1  A    between atoms: C_1  and  C_2
REMARK    2  A    between atoms: C_2  and  C_3
REMARK    3  A    between atoms: C_7  and  O_8
REMARK    4  A    between atoms: O_8  and  C_9
REMARK    5  A    between atoms: C_9  and  C_10
REMARK    6  A    between atoms: C_10  and  C_11
REMARK    7  A    between atoms: N_21  and  C_22
REMARK    8  A    between atoms: C_22  and  C_23
REMARK                            x       y       z     vdW  Elec       q    Type
REMARK                         _______ _______ _______ _____ _____    ______ ____
ROOT
ATOM      1  C   UNL     1      49.786   7.508  14.526  0.00  0.00    +0.000 A 
ATOM      2  C   UNL     1      50.975   8.095  14.052  0.00  0.00    +0.000 A 
ATOM      3  C   UNL     1      51.137   8.432  12.707  0.00  0.00    +0.000 A 
ATOM      4  C   UNL     1      50.118   8.176  11.794  0.00  0.00    +0.000 A 
ATOM      5  C   UNL     1      48.940   7.574  12.229  0.00  0.00    +0.000 A 
ATOM      6  C   UNL     1      48.764   7.282  13.587  0.00  0.00    +0.000 A 
ENDROOT
BRANCH   1   8
ATOM      7  C   UNL     1      51.036   6.407  16.377  0.00  0.00    +0.000 C 
ATOM      8  C   UNL     1      49.680   7.062  16.002  0.00  0.00    +0.000 C 
ATOM      9  C   UNL     1      49.394   8.289  16.909  0.00  0.00    +0.000 C 
ATOM     10  C   UNL     1      49.153   7.897  18.367  0.00  0.00    +0.000 C 
ATOM     11  C   UNL     1      48.076   6.820  18.500  0.00  0.00    +0.000 C 
ATOM     12  N   UNL     1      48.402   5.643  17.683  0.00  0.00    +0.000 NA
ATOM     13  C   UNL     1      48.543   6.023  16.261  0.00  0.00    +0.000 C 
BRANCH  12  14
ATOM     14  C   UNL     1      47.382   4.567  17.826  0.00  0.00    +0.000 C 
BRANCH  14  15
ATOM     15  C   UNL     1      47.688   3.147  17.292  0.00  0.00    +0.000 C 
ATOM     16  F   UNL     1      47.589   3.038  15.951  0.00  0.00    +0.000 F 
ATOM     17  F   UNL     1      48.944   2.772  17.637  0.00  0.00    +0.000 F 
ATOM     18  F   UNL     1      46.840   2.238  17.832  0.00  0.00    +0.000 F 
ENDBRANCH  14  15
ENDBRANCH  12  14
ENDBRANCH   1   8
BRANCH   5  19
ATOM     19  O   UNL     1      47.901   7.218  11.411  0.00  0.00    +0.000 OA
BRANCH  19  20
ATOM     20  C   UNL     1      46.943   6.338  12.010  0.00  0.00    +0.000 C 
BRANCH  20  21
ATOM     21  C   UNL     1      45.781   6.149  11.037  0.00  0.00    +0.000 C 
BRANCH  21  22
ATOM     22  C   UNL     1      44.928   4.983  11.421  0.00  0.00    +0.000 A 
ATOM     23  C   UNL     1      44.786   4.566  12.729  0.00  0.00    +0.000 A 
ATOM     24  N   UNL     1      44.065   3.492  13.102  0.00  0.00    +0.000 NA
ATOM     25  C   UNL     1      43.468   2.822  12.105  0.00  0.00    +0.000 A 
ATOM     26  N   UNL     1      43.533   3.123  10.800  0.00  0.00    +0.000 NA
ATOM     27  C   UNL     1      44.271   4.206  10.487  0.00  0.00    +0.000 A 
ENDBRANCH  21  22
ENDBRANCH  20  21
ENDBRANCH  19  20
ENDBRANCH   5  19
TORSDOF 7
ENDMDL
MODEL 5
REMARK VINA RESULT:    -6.230      4.630      7.615
REMARK INTER + INTRA:          -9.856
REMARK INTER:                  -9.165
REMARK INTRA:                  -0.692
REMARK UNBOUND:                -1.077
REMARK  Name = 
REMARK  8 active torsions:
REMARK  status: ('A' for Active; 'I' for Inactive)
REMARK    1  A    between atoms: C_1  and  C_2
REMARK    2  A    between atoms: C_2  and  C_3
REMARK    3  A    between atoms: C_7  and  O_8
REMARK    4  A    between atoms: O_8  and  C_9
REMARK    5  A    between atoms: C_9  and  C_10
REMARK    6  A    between atoms: C_10  and  C_11
REMARK    7  A    between atoms: N_21  and  C_22
REMARK    8  A    between atoms: C_22  and  C_23
REMARK                            x       y       z     vdW  Elec       q    Type
REMARK                         _______ _______ _______ _____ _____    ______ ____
ROOT
ATOM      1  C   UNL     1      45.666   6.453  12.217  0.00  0.00    +0.000 A 
ATOM      2  C   UNL     1      44.491   7.137  11.847  0.00  0.00    +0.000 A 
ATOM      3  C   UNL     1      43.421   6.476  11.242  0.00  0.00    +0.000 A 
ATOM      4  C   UNL     1      43.503   5.112  10.976  0.00  0.00    +0.000 A 
ATOM      5  C   UNL     1      44.661   4.414  11.309  0.00  0.00    +0.000 A 
ATOM      6  C   UNL     1      45.712   5.072  11.958  0.00  0.00    +0.000 A 
ENDROOT
BRANCH   1   8
ATOM      7  C   UNL     1      46.327   8.619  13.253  0.00  0.00    +0.000 C 
ATOM      8  C   UNL     1      46.866   7.238  12.796  0.00  0.00    +0.000 C 
ATOM      9  C   UNL     1      47.479   6.464  13.993  0.00  0.00    +0.000 C 
ATOM     10  C   UNL     1      48.748   7.125  14.531  0.00  0.00    +0.000 C 
ATOM     11  C   UNL     1      49.774   7.380  13.426  0.00  0.00    +0.000 C 
ATOM     12  N   UNL     1      49.187   8.170  12.334  0.00  0.00    +0.000 NA
ATOM     13  C   UNL     1      48.014   7.474  11.764  0.00  0.00    +0.000 C 
BRANCH  12  14
ATOM     14  C   UNL     1      50.181   8.460  11.262  0.00  0.00    +0.000 C 
BRANCH  14  15
ATOM     15  C   UNL     1      51.223   9.586  11.470  0.00  0.00    +0.000 C 
ATOM     16  F   UNL     1      51.974   9.431  12.580  0.00  0.00    +0.000 F 
ATOM     17  F   UNL     1      52.069   9.647  10.413  0.00  0.00    +0.000 F 
ATOM     18  F   UNL     1      50.613  10.792  11.563  0.00  0.00    +0.000 F 
ENDBRANCH  14  15
ENDBRANCH  12  14
ENDBRANCH   1   8
BRANCH   5  19
ATOM     19  O   UNL     1      44.875   3.089  11.037  0.00  0.00    +0.000 OA
BRANCH  19  20
ATOM     20  C   UNL     1      44.250   2.617   9.837  0.00  0.00    +0.000 C 
BRANCH  20  21
ATOM     21  C   UNL     1      44.771   3.441   8.661  0.00  0.00    +0.000 C 
BRANCH  21  22
ATOM     22  C   UNL     1      45.945   2.785   8.008  0.00  0.00    +0.000 A 
ATOM     23  C   UNL     1      46.858   3.485   7.247  0.00  0.00    +0.000 A 
ATOM     24  N   UNL     1      47.898   2.917   6.608  0.00  0.00    +0.000 NA
ATOM     25  C   UNL     1      48.008   1.588   6.752  0.00  0.00    +0.000 A 
ATOM     26  N   UNL     1      47.186   0.799   7.458  0.00  0.00    +0.000 NA
ATOM     27  C   UNL     1      46.163   1.423   8.073  0.00  0.00    +0.000 A 
ENDBRANCH  21  22
ENDBRANCH  20  21
ENDBRANCH  19  20
ENDBRANCH   5  19
TORSDOF 7
ENDMDL
MODEL 6
REMARK VINA RESULT:    -5.863      3.599      7.828
REMARK INTER + INTRA:          -9.340
REMARK INTER:                  -8.409
REMARK INTRA:                  -0.931
REMARK UNBOUND:                -1.077
REMARK  Name = 
REMARK  8 active torsions:
REMARK  status: ('A' for Active; 'I' for Inactive)
REMARK    1  A    between atoms: C_1  and  C_2
REMARK    2  A    between atoms: C_2  and  C_3
REMARK    3  A    between atoms: C_7  and  O_8
REMARK    4  A    between atoms: O_8  and  C_9
REMARK    5  A    between atoms: C_9  and  C_10
REMARK    6  A    between atoms: C_10  and  C_11
REMARK    7  A    between atoms: N_21  and  C_22
REMARK    8  A    between atoms: C_22  and  C_23
REMARK                            x       y       z     vdW  Elec       q    Type
REMARK                         _______ _______ _______ _____ _____    ______ ____
ROOT
ATOM      1  C   UNL     1      48.864   7.038  14.611  0.00  0.00    +0.000 A 
ATOM      2  C   UNL     1      49.495   8.037  13.844  0.00  0.00    +0.000 A 
ATOM      3  C   UNL     1      49.109   8.300  12.528  0.00  0.00    +0.000 A 
ATOM      4  C   UNL     1      48.091   7.557  11.938  0.00  0.00    +0.000 A 
ATOM      5  C   UNL     1      47.466   6.546  12.664  0.00  0.00    +0.000 A 
ATOM      6  C   UNL     1      47.824   6.319  13.998  0.00  0.00    +0.000 A 
ENDROOT
BRANCH   1   8
ATOM      7  C   UNL     1      50.916   6.948  16.019  0.00  0.00    +0.000 C 
ATOM      8  C   UNL     1      49.383   6.713  16.031  0.00  0.00    +0.000 C 
ATOM      9  C   UNL     1      48.694   7.634  17.073  0.00  0.00    +0.000 C 
ATOM     10  C   UNL     1      49.070   7.276  18.511  0.00  0.00    +0.000 C 
ATOM     11  C   UNL     1      48.841   5.795  18.813  0.00  0.00    +0.000 C 
ATOM     12  N   UNL     1      49.556   4.944  17.851  0.00  0.00    +0.000 NA
ATOM     13  C   UNL     1      49.115   5.238  16.472  0.00  0.00    +0.000 C 
BRANCH  12  14
ATOM     14  C   UNL     1      49.373   3.495  18.149  0.00  0.00    +0.000 C 
BRANCH  14  15
ATOM     15  C   UNL     1      50.185   2.443  17.355  0.00  0.00    +0.000 C 
ATOM     16  F   UNL     1      50.488   1.339  18.070  0.00  0.00    +0.000 F 
ATOM     17  F   UNL     1      49.495   2.041  16.261  0.00  0.00    +0.000 F 
ATOM     18  F   UNL     1      51.354   2.971  16.917  0.00  0.00    +0.000 F 
ENDBRANCH  14  15
ENDBRANCH  12  14
ENDBRANCH   1   8
BRANCH   5  19
ATOM     19  O   UNL     1      46.500   5.714  12.164  0.00  0.00    +0.000 OA
BRANCH  19  20
ATOM     20  C   UNL     1      45.455   6.376  11.442  0.00  0.00    +0.000 C 
BRANCH  20  21
ATOM     21  C   UNL     1      44.396   5.344  11.062  0.00  0.00    +0.000 C 
BRANCH  21  22
ATOM     22  C   UNL     1      44.889   4.416   9.998  0.00  0.00    +0.000 A 
ATOM     23  C   UNL     1      45.581   4.860   8.890  0.00  0.00    +0.000 A 
ATOM     24  N   UNL     1      45.997   4.058   7.892  0.00  0.00    +0.000 NA
ATOM     25  C   UNL     1      45.698   2.758   8.032  0.00  0.00    +0.000 A 
ATOM     26  N   UNL     1      45.030   2.207   9.056  0.00  0.00    +0.000 NA
ATOM     27  C   UNL     1      44.636   3.059  10.022  0.00  0.00    +0.000 A 
ENDBRANCH  21  22
ENDBRANCH  20  21
ENDBRANCH  19  20
ENDBRANCH   5  19
TORSDOF 7
ENDMDL
MODEL 7
REMARK VINA RESULT:    -5.707      1.842      2.449
REMARK INTER + INTRA:          -9.120
REMARK INTER:                  -7.948
REMARK INTRA:                  -1.172
REMARK UNBOUND:                -1.077
REMARK  Name = 
REMARK  8 active torsions:
REMARK  status: ('A' for Active; 'I' for Inactive)
REMARK    1  A    between atoms: C_1  and  C_2
REMARK    2  A    between atoms: C_2  and  C_3
REMARK    3  A    between atoms: C_7  and  O_8
REMARK    4  A    between atoms: O_8  and  C_9
REMARK    5  A    between atoms: C_9  and  C_10
REMARK    6  A    between atoms: C_10  and  C_11
REMARK    7  A    between atoms: N_21  and  C_22
REMARK    8  A    between atoms: C_22  and  C_23
REMARK                            x       y       z     vdW  Elec       q    Type
REMARK                         _______ _______ _______ _____ _____    ______ ____
ROOT
ATOM      1  C   UNL     1      48.764   7.205  13.197  0.00  0.00    +0.000 A 
ATOM      2  C   UNL     1      49.575   7.740  12.177  0.00  0.00    +0.000 A 
ATOM      3  C   UNL     1      50.848   8.247  12.448  0.00  0.00    +0.000 A 
ATOM      4  C   UNL     1      51.337   8.248  13.751  0.00  0.00    +0.000 A 
ATOM      5  C   UNL     1      50.547   7.748  14.783  0.00  0.00    +0.000 A 
ATOM      6  C   UNL     1      49.291   7.197  14.499  0.00  0.00    +0.000 A 
ENDROOT
BRANCH   1   8
ATOM      7  C   UNL     1      47.028   5.518  13.781  0.00  0.00    +0.000 C 
ATOM      8  C   UNL     1      47.324   6.741  12.874  0.00  0.00    +0.000 C 
ATOM      9  C   UNL     1      46.319   7.890  13.154  0.00  0.00    +0.000 C 
ATOM     10  C   UNL     1      44.892   7.536  12.735  0.00  0.00    +0.000 C 
ATOM     11  C   UNL     1      44.824   7.053  11.286  0.00  0.00    +0.000 C 
ATOM     12  N   UNL     1      45.737   5.923  11.062  0.00  0.00    +0.000 NA
ATOM     13  C   UNL     1      47.127   6.309  11.386  0.00  0.00    +0.000 C 
BRANCH  12  14
ATOM     14  C   UNL     1      45.659   5.415   9.663  0.00  0.00    +0.000 C 
BRANCH  14  15
ATOM     15  C   UNL     1      44.733   4.219   9.335  0.00  0.00    +0.000 C 
ATOM     16  F   UNL     1      44.590   3.992   8.012  0.00  0.00    +0.000 F 
ATOM     17  F   UNL     1      45.215   3.082   9.891  0.00  0.00    +0.000 F 
ATOM     18  F   UNL     1      43.494   4.419   9.845  0.00  0.00    +0.000 F 
ENDBRANCH  14  15
ENDBRANCH  12  14
ENDBRANCH   1   8
BRANCH   5  19
ATOM     19  O   UNL     1      50.900   7.758  16.106  0.00  0.00    +0.000 OA
BRANCH  19  20
ATOM     20  C   UNL     1      51.529   6.556  16.566  0.00  0.00    +0.000 C 
BRANCH  20  21
ATOM     21  C   UNL     1      50.744   6.022  17.762  0.00  0.00    +0.000 C 
BRANCH  21  22
ATOM     22  C   UNL     1      50.051   4.739  17.435  0.00  0.00    +0.000 A 
ATOM     23  C   UNL     1      50.716   3.532  17.368  0.00  0.00    +0.000 A 
ATOM     24  N   UNL     1      50.131   2.368  17.030  0.00  0.00    +0.000 NA
ATOM     25  C   UNL     1      48.821   2.439  16.752  0.00  0.00    +0.000 A 
ATOM     26  N   UNL     1      48.066   3.547  16.778  0.00  0.00    +0.000 NA
ATOM     27  C   UNL     1      48.708   4.682  17.120  0.00  0.00    +0.000 A 
ENDBRANCH  21  22
ENDBRANCH  20  21
ENDBRANCH  19  20
ENDBRANCH   5  19
TORSDOF 7
ENDMDL
MODEL 8
REMARK VINA RESULT:    -5.607      2.523      3.781
REMARK INTER + INTRA:          -8.978
REMARK INTER:                  -7.595
REMARK INTRA:                  -1.383
REMARK UNBOUND:                -1.077
REMARK  Name = 
REMARK  8 active torsions:
REMARK  status: ('A' for Active; 'I' for Inactive)
REMARK    1  A    between atoms: C_1  and  C_2
REMARK    2  A    between atoms: C_2  and  C_3
REMARK    3  A    between atoms: C_7  and  O_8
REMARK    4  A    between atoms: O_8  and  C_9
REMARK    5  A    between atoms: C_9  and  C_10
REMARK    6  A    between atoms: C_10  and  C_11
REMARK    7  A    between atoms: N_21  and  C_22
REMARK    8  A    between atoms: C_22  and  C_23
REMARK                            x       y       z     vdW  Elec       q    Type
REMARK                         _______ _______ _______ _____ _____    ______ ____
ROOT
ATOM      1  C   UNL     1      49.232   7.426  14.165  0.00  0.00    +0.000 A 
ATOM      2  C   UNL     1      50.340   8.056  13.566  0.00  0.00    +0.000 A 
ATOM      3  C   UNL     1      51.531   8.259  14.266  0.00  0.00    +0.000 A 
ATOM      4  C   UNL     1      51.639   7.851  15.592  0.00  0.00    +0.000 A 
ATOM      5  C   UNL     1      50.552   7.247  16.218  0.00  0.00    +0.000 A 
ATOM      6  C   UNL     1      49.377   7.003  15.497  0.00  0.00    +0.000 A 
ENDROOT
BRANCH   1   8
ATOM      7  C   UNL     1      47.027   8.523  13.791  0.00  0.00    +0.000 C 
ATOM      8  C   UNL     1      47.900   7.305  13.388  0.00  0.00    +0.000 C 
ATOM      9  C   UNL     1      48.173   7.307  11.860  0.00  0.00    +0.000 C 
ATOM     10  C   UNL     1      46.907   7.062  11.038  0.00  0.00    +0.000 C 
ATOM     11  C   UNL     1      46.166   5.804  11.488  0.00  0.00    +0.000 C 
ATOM     12  N   UNL     1      45.861   5.855  12.925  0.00  0.00    +0.000 NA
ATOM     13  C   UNL     1      47.104   6.001  13.712  0.00  0.00    +0.000 C 
BRANCH  12  14
ATOM     14  C   UNL     1      45.107   4.653  13.377  0.00  0.00    +0.000 C 
BRANCH  14  15
ATOM     15  C   UNL     1      43.608   4.510  13.016  0.00  0.00    +0.000 C 
ATOM     16  F   UNL     1      43.391   4.148  11.735  0.00  0.00    +0.000 F 
ATOM     17  F   UNL     1      43.018   3.581  13.806  0.00  0.00    +0.000 F 
ATOM     18  F   UNL     1      42.953   5.679  13.220  0.00  0.00    +0.000 F 
ENDBRANCH  14  15
ENDBRANCH  12  14
ENDBRANCH   1   8
BRANCH   5  19
ATOM     19  O   UNL     1      50.526   6.865  17.533  0.00  0.00    +0.000 OA
BRANCH  19  20
ATOM     20  C   UNL     1      49.245   6.983  18.164  0.00  0.00    +0.000 C 
BRANCH  20  21
ATOM     21  C   UNL     1      48.970   5.702  18.949  0.00  0.00    +0.000 C 
BRANCH  21  22
ATOM     22  C   UNL     1      48.655   4.558  18.039  0.00  0.00    +0.000 A 
ATOM     23  C   UNL     1      49.591   3.603  17.695  0.00  0.00    +0.000 A 
ATOM     24  N   UNL     1      49.352   2.590  16.842  0.00  0.00    +0.000 NA
ATOM     25  C   UNL     1      48.116   2.548  16.324  0.00  0.00    +0.000 A 
ATOM     26  N   UNL     1      47.124   3.415  16.576  0.00  0.00    +0.000 NA
ATOM     27  C   UNL     1      47.423   4.410  17.434  0.00  0.00    +0.000 A 
ENDBRANCH  21  22
ENDBRANCH  20  21
ENDBRANCH  19  20
ENDBRANCH   5  19
TORSDOF 7
ENDMDL
MODEL 9
REMARK VINA RESULT:    -5.573      3.471      6.353
REMARK INTER + INTRA:          -8.931
REMARK INTER:                  -7.677
REMARK INTRA:                  -1.254
REMARK UNBOUND:                -1.077
REMARK  Name = 
REMARK  8 active torsions:
REMARK  status: ('A' for Active; 'I' for Inactive)
REMARK    1  A    between atoms: C_1  and  C_2
REMARK    2  A    between atoms: C_2  and  C_3
REMARK    3  A    between atoms: C_7  and  O_8
REMARK    4  A    between atoms: O_8  and  C_9
REMARK    5  A    between atoms: C_9  and  C_10
REMARK    6  A    between atoms: C_10  and  C_11
REMARK    7  A    between atoms: N_21  and  C_22
REMARK    8  A    between atoms: C_22  and  C_23
REMARK                            x       y       z     vdW  Elec       q    Type
REMARK                         _______ _______ _______ _____ _____    ______ ____
ROOT
ATOM      1  C   UNL     1      46.702   6.587  12.863  0.00  0.00    +0.000 A 
ATOM      2  C   UNL     1      47.824   6.169  13.604  0.00  0.00    +0.000 A 
ATOM      3  C   UNL     1      48.817   7.070  13.996  0.00  0.00    +0.000 A 
ATOM      4  C   UNL     1      48.721   8.412  13.641  0.00  0.00    +0.000 A 
ATOM      5  C   UNL     1      47.635   8.850  12.888  0.00  0.00    +0.000 A 
ATOM      6  C   UNL     1      46.619   7.952  12.539  0.00  0.00    +0.000 A 
ENDROOT
BRANCH   1   8
ATOM      7  C   UNL     1      46.144   4.160  12.884  0.00  0.00    +0.000 C 
ATOM      8  C   UNL     1      45.673   5.544  12.367  0.00  0.00    +0.000 C 
ATOM      9  C   UNL     1      44.263   5.885  12.917  0.00  0.00    +0.000 C 
ATOM     10  C   UNL     1      43.177   4.964  12.360  0.00  0.00    +0.000 C 
ATOM     11  C   UNL     1      43.200   4.910  10.832  0.00  0.00    +0.000 C 
ATOM     12  N   UNL     1      44.529   4.522  10.337  0.00  0.00    +0.000 NA
ATOM     13  C   UNL     1      45.555   5.474  10.811  0.00  0.00    +0.000 C 
BRANCH  12  14
ATOM     14  C   UNL     1      44.563   4.429   8.851  0.00  0.00    +0.000 C 
BRANCH  14  15
ATOM     15  C   UNL     1      45.543   3.445   8.169  0.00  0.00    +0.000 C 
ATOM     16  F   UNL     1      44.969   2.679   7.218  0.00  0.00    +0.000 F 
ATOM     17  F   UNL     1      46.562   4.121   7.584  0.00  0.00    +0.000 F 
ATOM     18  F   UNL     1      46.094   2.607   9.081  0.00  0.00    +0.000 F 
ENDBRANCH  14  15
ENDBRANCH  12  14
ENDBRANCH   1   8
BRANCH   5  19
ATOM     19  O   UNL     1      47.472  10.130  12.430  0.00  0.00    +0.000 OA
BRANCH  19  20
ATOM     20  C   UNL     1      46.916  10.228  11.114  0.00  0.00    +0.000 C 
BRANCH  20  21
ATOM     21  C   UNL     1      46.098  11.515  11.026  0.00  0.00    +0.000 C 
BRANCH  21  22
ATOM     22  C   UNL     1      44.635  11.228  10.914  0.00  0.00    +0.000 A 
ATOM     23  C   UNL     1      43.743  11.510  11.929  0.00  0.00    +0.000 A 
ATOM     24  N   UNL     1      42.429  11.221  11.878  0.00  0.00    +0.000 NA
ATOM     25  C   UNL     1      42.012  10.624  10.752  0.00  0.00    +0.000 A 
ATOM     26  N   UNL     1      42.777  10.295   9.701  0.00  0.00    +0.000 NA
ATOM     27  C   UNL     1      44.084  10.606   9.811  0.00  0.00    +0.000 A 
ENDBRANCH  21  22
ENDBRANCH  20  21
ENDBRANCH  19  20
ENDBRANCH   5  19
TORSDOF 7
ENDMDL
