MODEL 1
REMARK VINA RESULT:    -6.582      0.000      0.000
REMARK INTER + INTRA:          -9.427
REMARK INTER:                  -8.698
REMARK INTRA:                  -0.729
REMARK UNBOUND:                -0.729
REMARK  Name = 
REMARK  8 active torsions:
REMARK  status: ('A' for Active; 'I' for Inactive)
REMARK    1  A    between atoms: C_1  and  O_2
REMARK    2  A    between atoms: O_2  and  C_3
REMARK    3  A    between atoms: C_5  and  C_6
REMARK    4  A    between atoms: C_6  and  O_7
REMARK    5  A    between atoms: C_9  and  C_10
REMARK    6  A    between atoms: C_10  and  N_11
REMARK    7  A    between atoms: C_15  and  O_16
REMARK    8  A    between atoms: O_16  and  C_17
REMARK                            x       y       z     vdW  Elec       q    Type
REMARK                         _______ _______ _______ _____ _____    ______ ____
ROOT
ATOM      1  C   UNL     1      45.697   4.998  12.968  0.00  0.00    +0.000 C 
ENDROOT
BRANCH   1   2
ATOM      2  N   UNL     1      45.292   4.102  11.877  0.00  0.00    +0.000 N 
ATOM      3  C   UNL     1      44.462   2.960  12.127  0.00  0.00    +0.000 A 
ATOM      4  C   UNL     1      43.472   3.139  11.175  0.00  0.00    +0.000 A 
ATOM      5  C   UNL     1      44.356   3.391  10.079  0.00  0.00    +0.000 A 
ATOM      6  C   UNL     1      45.121   2.711   9.088  0.00  0.00    +0.000 A 
ATOM      7  C   UNL     1      45.863   3.466   8.172  0.00  0.00    +0.000 A 
ATOM      8  C   UNL     1      45.981   4.840   8.337  0.00  0.00    +0.000 A 
ATOM      9  C   UNL     1      45.581   5.425   9.573  0.00  0.00    +0.000 A 
ATOM     10  C   UNL     1      44.969   4.563  10.530  0.00  0.00    +0.000 A 
BRANCH   6  11
ATOM     11  O   UNL     1      45.329   1.343   8.980  0.00  0.00    +0.000 OA
ATOM     12  C   UNL     1      46.314   0.991   8.026  0.00  0.00    +0.000 C 
ENDBRANCH   6  11
ENDBRANCH   1   2
BRANCH   1  17
ATOM     13  C   UNL     1      48.303   7.589  12.213  0.00  0.00    +0.000 A 
ATOM     14  C   UNL     1      47.596   8.785  12.098  0.00  0.00    +0.000 A 
ATOM     15  C   UNL     1      46.214   8.824  12.351  0.00  0.00    +0.000 A 
ATOM     16  C   UNL     1      45.526   7.623  12.664  0.00  0.00    +0.000 A 
ATOM     17  C   UNL     1      46.227   6.391  12.718  0.00  0.00    +0.000 A 
ATOM     18  C   UNL     1      47.623   6.436  12.545  0.00  0.00    +0.000 A 
BRANCH  13  20
ATOM     19  C   UNL     1      50.489   8.539  12.061  0.00  0.00    +0.000 C 
ATOM     20  O   UNL     1      49.649   7.429  11.954  0.00  0.00    +0.000 OA
ENDBRANCH  13  20
BRANCH  15  21
ATOM     21  C   UNL     1      45.471  10.126  12.095  0.00  0.00    +0.000 C 
BRANCH  21  22
ATOM     22  O   UNL     1      44.073  10.027  12.379  0.00  0.00    +0.000 OA
ATOM     23  H   UNL     1      43.803   9.109  12.209  0.00  0.00    +0.000 HD
ENDBRANCH  21  22
ENDBRANCH  15  21
ENDBRANCH   1  17
TORSDOF 6
ENDMDL
MODEL 2
REMARK VINA RESULT:    -6.361      0.634      2.716
REMARK INTER + INTRA:          -9.135
REMARK INTER:                  -8.425
REMARK INTRA:                  -0.710
REMARK UNBOUND:                -0.729
REMARK  Name = 
REMARK  8 active torsions:
REMARK  status: ('A' for Active; 'I' for Inactive)
REMARK    1  A    between atoms: C_1  and  O_2
REMARK    2  A    between atoms: O_2  and  C_3
REMARK    3  A    between atoms: C_5  and  C_6
REMARK    4  A    between atoms: C_6  and  O_7
REMARK    5  A    between atoms: C_9  and  C_10
REMARK    6  A    between atoms: C_10  and  N_11
REMARK    7  A    between atoms: C_15  and  O_16
REMARK    8  A    between atoms: O_16  and  C_17
REMARK                            x       y       z     vdW  Elec       q    Type
REMARK                         _______ _______ _______ _____ _____    ______ ____
ROOT
ATOM      1  C   UNL     1      45.447   4.982  12.885  0.00  0.00    +0.000 C 
ENDROOT
BRANCH   1   2
ATOM      2  N   UNL     1      45.159   4.055  11.783  0.00  0.00    +0.000 N 
ATOM      3  C   UNL     1      44.397   2.861  12.001  0.00  0.00    +0.000 A 
ATOM      4  C   UNL     1      43.446   2.968  11.000  0.00  0.00    +0.000 A 
ATOM      5  C   UNL     1      44.364   3.274   9.946  0.00  0.00    +0.000 A 
ATOM      6  C   UNL     1      45.222   2.643   9.000  0.00  0.00    +0.000 A 
ATOM      7  C   UNL     1      45.956   3.443   8.116  0.00  0.00    +0.000 A 
ATOM      8  C   UNL     1      45.972   4.823   8.276  0.00  0.00    +0.000 A 
ATOM      9  C   UNL     1      45.472   5.384   9.485  0.00  0.00    +0.000 A 
ATOM     10  C   UNL     1      44.873   4.487  10.418  0.00  0.00    +0.000 A 
BRANCH   6  11
ATOM     11  O   UNL     1      45.527   1.292   8.913  0.00  0.00    +0.000 OA
ATOM     12  C   UNL     1      46.480   0.987   7.911  0.00  0.00    +0.000 C 
ENDBRANCH   6  11
ENDBRANCH   1   2
BRANCH   1  17
ATOM     13  C   UNL     1      46.048   8.666  12.507  0.00  0.00    +0.000 A 
ATOM     14  C   UNL     1      47.436   8.800  12.466  0.00  0.00    +0.000 A 
ATOM     15  C   UNL     1      48.263   7.664  12.473  0.00  0.00    +0.000 A 
ATOM     16  C   UNL     1      47.680   6.375  12.587  0.00  0.00    +0.000 A 
ATOM     17  C   UNL     1      46.272   6.234  12.696  0.00  0.00    +0.000 A 
ATOM     18  C   UNL     1      45.498   7.405  12.590  0.00  0.00    +0.000 A 
BRANCH  13  20
ATOM     19  C   UNL     1      44.315   9.914  11.438  0.00  0.00    +0.000 C 
ATOM     20  O   UNL     1      45.146   9.710  12.541  0.00  0.00    +0.000 OA
ENDBRANCH  13  20
BRANCH  15  21
ATOM     21  C   UNL     1      49.768   7.868  12.547  0.00  0.00    +0.000 C 
BRANCH  21  22
ATOM     22  O   UNL     1      50.332   7.368  13.762  0.00  0.00    +0.000 OA
ATOM     23  H   UNL     1      51.281   7.580  13.755  0.00  0.00    +0.000 HD
ENDBRANCH  21  22
ENDBRANCH  15  21
ENDBRANCH   1  17
TORSDOF 6
ENDMDL
MODEL 3
REMARK VINA RESULT:    -6.175      1.553      2.278
REMARK INTER + INTRA:          -8.889
REMARK INTER:                  -8.037
REMARK INTRA:                  -0.852
REMARK UNBOUND:                -0.729
REMARK  Name = 
REMARK  8 active torsions:
REMARK  status: ('A' for Active; 'I' for Inactive)
REMARK    1  A    between atoms: C_1  and  O_2
REMARK    2  A    between atoms: O_2  and  C_3
REMARK    3  A    between atoms: C_5  and  C_6
REMARK    4  A    between atoms: C_6  and  O_7
REMARK    5  A    between atoms: C_9  and  C_10
REMARK    6  A    between atoms: C_10  and  N_11
REMARK    7  A    between atoms: C_15  and  O_16
REMARK    8  A    between atoms: O_16  and  C_17
REMARK                            x       y       z     vdW  Elec       q    Type
REMARK                         _______ _______ _______ _____ _____    ______ ____
ROOT
ATOM      1  C   UNL     1      47.049   6.372  12.415  0.00  0.00    +0.000 C 
ENDROOT
BRANCH   1   2
ATOM      2  N   UNL     1      45.792   5.741  11.993  0.00  0.00    +0.000 N 
ATOM      3  C   UNL     1      44.613   5.826  12.805  0.00  0.00    +0.000 A 
ATOM      4  C   UNL     1      43.685   6.270  11.877  0.00  0.00    +0.000 A 
ATOM      5  C   UNL     1      44.015   5.319  10.861  0.00  0.00    +0.000 A 
ATOM      6  C   UNL     1      43.724   3.987  10.448  0.00  0.00    +0.000 A 
ATOM      7  C   UNL     1      44.343   3.487   9.296  0.00  0.00    +0.000 A 
ATOM      8  C   UNL     1      45.346   4.219   8.671  0.00  0.00    +0.000 A 
ATOM      9  C   UNL     1      45.920   5.328   9.355  0.00  0.00    +0.000 A 
ATOM     10  C   UNL     1      45.338   5.690  10.606  0.00  0.00    +0.000 A 
BRANCH   6  11
ATOM     11  O   UNL     1      42.968   3.042  11.127  0.00  0.00    +0.000 OA
ATOM     12  C   UNL     1      43.615   2.509  12.268  0.00  0.00    +0.000 C 
ENDBRANCH   6  11
ENDBRANCH   1   2
BRANCH   1  17
ATOM     13  C   UNL     1      49.185   9.333  11.550  0.00  0.00    +0.000 A 
ATOM     14  C   UNL     1      48.302  10.411  11.506  0.00  0.00    +0.000 A 
ATOM     15  C   UNL     1      46.949  10.240  11.847  0.00  0.00    +0.000 A 
ATOM     16  C   UNL     1      46.470   8.946  12.177  0.00  0.00    +0.000 A 
ATOM     17  C   UNL     1      47.348   7.832  12.160  0.00  0.00    +0.000 A 
ATOM     18  C   UNL     1      48.708   8.088  11.900  0.00  0.00    +0.000 A 
BRANCH  13  20
ATOM     19  C   UNL     1      51.319   8.263  11.456  0.00  0.00    +0.000 C 
ATOM     20  O   UNL     1      50.520   9.379  11.202  0.00  0.00    +0.000 OA
ENDBRANCH  13  20
BRANCH  15  21
ATOM     21  C   UNL     1      46.006  11.418  11.667  0.00  0.00    +0.000 C 
BRANCH  21  22
ATOM     22  O   UNL     1      44.709  11.173  12.215  0.00  0.00    +0.000 OA
ATOM     23  H   UNL     1      44.126  10.907  11.484  0.00  0.00    +0.000 HD
ENDBRANCH  21  22
ENDBRANCH  15  21
ENDBRANCH   1  17
TORSDOF 6
ENDMDL
MODEL 4
REMARK VINA RESULT:    -6.039      3.027      4.036
REMARK INTER + INTRA:          -8.710
REMARK INTER:                  -8.219
REMARK INTRA:                  -0.491
REMARK UNBOUND:                -0.729
REMARK  Name = 
REMARK  8 active torsions:
REMARK  status: ('A' for Active; 'I' for Inactive)
REMARK    1  A    between atoms: C_1  and  O_2
REMARK    2  A    between atoms: O_2  and  C_3
REMARK    3  A    between atoms: C_5  and  C_6
REMARK    4  A    between atoms: C_6  and  O_7
REMARK    5  A    between atoms: C_9  and  C_10
REMARK    6  A    between atoms: C_10  and  N_11
REMARK    7  A    between atoms: C_15  and  O_16
REMARK    8  A    between atoms: O_16  and  C_17
REMARK                            x       y       z     vdW  Elec       q    Type
REMARK                         _______ _______ _______ _____ _____    ______ ____
ROOT
ATOM      1  C   UNL     1      46.903   6.441  12.621  0.00  0.00    +0.000 C 
ENDROOT
BRANCH   1   2
ATOM      2  N   UNL     1      45.680   5.816  12.100  0.00  0.00    +0.000 N 
ATOM      3  C   UNL     1      44.450   5.874  12.833  0.00  0.00    +0.000 A 
ATOM      4  C   UNL     1      43.583   6.338  11.857  0.00  0.00    +0.000 A 
ATOM      5  C   UNL     1      43.986   5.415  10.841  0.00  0.00    +0.000 A 
ATOM      6  C   UNL     1      43.732   4.093  10.374  0.00  0.00    +0.000 A 
ATOM      7  C   UNL     1      44.429   3.627   9.254  0.00  0.00    +0.000 A 
ATOM      8  C   UNL     1      45.467   4.380   8.717  0.00  0.00    +0.000 A 
ATOM      9  C   UNL     1      45.986   5.473   9.467  0.00  0.00    +0.000 A 
ATOM     10  C   UNL     1      45.321   5.799  10.684  0.00  0.00    +0.000 A 
BRANCH   6  11
ATOM     11  O   UNL     1      42.938   3.128  10.978  0.00  0.00    +0.000 OA
ATOM     12  C   UNL     1      43.509   2.571  12.148  0.00  0.00    +0.000 C 
ENDBRANCH   6  11
ENDBRANCH   1   2
BRANCH   1  17
ATOM     13  C   UNL     1      49.097   6.861  15.636  0.00  0.00    +0.000 A 
ATOM     14  C   UNL     1      48.764   5.795  16.471  0.00  0.00    +0.000 A 
ATOM     15  C   UNL     1      47.849   4.816  16.049  0.00  0.00    +0.000 A 
ATOM     16  C   UNL     1      47.214   4.950  14.788  0.00  0.00    +0.000 A 
ATOM     17  C   UNL     1      47.498   6.066  13.959  0.00  0.00    +0.000 A 
ATOM     18  C   UNL     1      48.491   6.960  14.401  0.00  0.00    +0.000 A 
BRANCH  13  20
ATOM     19  C   UNL     1      49.407   9.123  16.335  0.00  0.00    +0.000 C 
ATOM     20  O   UNL     1      49.952   7.893  15.960  0.00  0.00    +0.000 OA
ENDBRANCH  13  20
BRANCH  15  21
ATOM     21  C   UNL     1      47.431   3.744  17.043  0.00  0.00    +0.000 C 
BRANCH  21  22
ATOM     22  O   UNL     1      46.707   4.276  18.155  0.00  0.00    +0.000 OA
ATOM     23  H   UNL     1      46.135   3.569  18.499  0.00  0.00    +0.000 HD
ENDBRANCH  21  22
ENDBRANCH  15  21
ENDBRANCH   1  17
TORSDOF 6
ENDMDL
MODEL 5
REMARK VINA RESULT:    -6.036      2.191      6.744
REMARK INTER + INTRA:          -8.706
REMARK INTER:                  -8.048
REMARK INTRA:                  -0.658
REMARK UNBOUND:                -0.729
REMARK  Name = 
REMARK  8 active torsions:
REMARK  status: ('A' for Active; 'I' for Inactive)
REMARK    1  A    between atoms: C_1  and  O_2
REMARK    2  A    between atoms: O_2  and  C_3
REMARK    3  A    between atoms: C_5  and  C_6
REMARK    4  A    between atoms: C_6  and  O_7
REMARK    5  A    between atoms: C_9  and  C_10
REMARK    6  A    between atoms: C_10  and  N_11
REMARK    7  A    between atoms: C_15  and  O_16
REMARK    8  A    between atoms: O_16  and  C_17
REMARK                            x       y       z     vdW  Elec       q    Type
REMARK                         _______ _______ _______ _____ _____    ______ ____
ROOT
ATOM      1  C   UNL     1      45.566   6.720  11.087  0.00  0.00    +0.000 C 
ENDROOT
BRANCH   1   2
ATOM      2  N   UNL     1      46.461   6.814  12.248  0.00  0.00    +0.000 N 
ATOM      3  C   UNL     1      46.192   6.080  13.450  0.00  0.00    +0.000 A 
ATOM      4  C   UNL     1      47.413   5.461  13.660  0.00  0.00    +0.000 A 
ATOM      5  C   UNL     1      48.214   6.632  13.477  0.00  0.00    +0.000 A 
ATOM      6  C   UNL     1      48.715   7.760  14.189  0.00  0.00    +0.000 A 
ATOM      7  C   UNL     1      49.522   8.682  13.511  0.00  0.00    +0.000 A 
ATOM      8  C   UNL     1      49.687   8.584  12.135  0.00  0.00    +0.000 A 
ATOM      9  C   UNL     1      48.826   7.724  11.396  0.00  0.00    +0.000 A 
ATOM     10  C   UNL     1      47.913   6.921  12.143  0.00  0.00    +0.000 A 
BRANCH   6  11
ATOM     11  O   UNL     1      48.400   8.142  15.485  0.00  0.00    +0.000 OA
ATOM     12  C   UNL     1      48.987   7.322  16.479  0.00  0.00    +0.000 C 
ENDBRANCH   6  11
ENDBRANCH   1   2
BRANCH   1  17
ATOM     13  C   UNL     1      44.297   3.295  10.229  0.00  0.00    +0.000 A 
ATOM     14  C   UNL     1      44.844   3.014   8.978  0.00  0.00    +0.000 A 
ATOM     15  C   UNL     1      45.742   3.910   8.373  0.00  0.00    +0.000 A 
ATOM     16  C   UNL     1      46.045   5.138   9.017  0.00  0.00    +0.000 A 
ATOM     17  C   UNL     1      45.441   5.461  10.260  0.00  0.00    +0.000 A 
ATOM     18  C   UNL     1      44.623   4.480  10.853  0.00  0.00    +0.000 A 
BRANCH  13  20
ATOM     19  C   UNL     1      43.369   2.528  12.292  0.00  0.00    +0.000 C 
ATOM     20  O   UNL     1      43.382   2.507  10.896  0.00  0.00    +0.000 OA
ENDBRANCH  13  20
BRANCH  15  21
ATOM     21  C   UNL     1      46.215   3.613   6.959  0.00  0.00    +0.000 C 
BRANCH  21  22
ATOM     22  O   UNL     1      47.639   3.530   6.861  0.00  0.00    +0.000 OA
ATOM     23  H   UNL     1      47.885   3.756   5.948  0.00  0.00    +0.000 HD
ENDBRANCH  21  22
ENDBRANCH  15  21
ENDBRANCH   1  17
TORSDOF 6
ENDMDL
MODEL 6
REMARK VINA RESULT:    -5.937      2.889      4.328
REMARK INTER + INTRA:          -8.574
REMARK INTER:                  -8.335
REMARK INTRA:                  -0.239
REMARK UNBOUND:                -0.729
REMARK  Name = 
REMARK  8 active torsions:
REMARK  status: ('A' for Active; 'I' for Inactive)
REMARK    1  A    between atoms: C_1  and  O_2
REMARK    2  A    between atoms: O_2  and  C_3
REMARK    3  A    between atoms: C_5  and  C_6
REMARK    4  A    between atoms: C_6  and  O_7
REMARK    5  A    between atoms: C_9  and  C_10
REMARK    6  A    between atoms: C_10  and  N_11
REMARK    7  A    between atoms: C_15  and  O_16
REMARK    8  A    between atoms: O_16  and  C_17
REMARK                            x       y       z     vdW  Elec       q    Type
REMARK                         _______ _______ _______ _____ _____    ______ ____
ROOT
ATOM      1  C   UNL     1      47.091   6.407  12.264  0.00  0.00    +0.000 C 
ENDROOT
BRANCH   1   2
ATOM      2  N   UNL     1      45.825   5.787  11.849  0.00  0.00    +0.000 N 
ATOM      3  C   UNL     1      44.632   5.951  12.627  0.00  0.00    +0.000 A 
ATOM      4  C   UNL     1      43.737   6.366  11.654  0.00  0.00    +0.000 A 
ATOM      5  C   UNL     1      44.063   5.348  10.702  0.00  0.00    +0.000 A 
ATOM      6  C   UNL     1      43.743   4.003  10.358  0.00  0.00    +0.000 A 
ATOM      7  C   UNL     1      44.373   3.421   9.252  0.00  0.00    +0.000 A 
ATOM      8  C   UNL     1      45.410   4.088   8.611  0.00  0.00    +0.000 A 
ATOM      9  C   UNL     1      45.999   5.219   9.243  0.00  0.00    +0.000 A 
ATOM     10  C   UNL     1      45.401   5.668  10.457  0.00  0.00    +0.000 A 
BRANCH   6  11
ATOM     11  O   UNL     1      42.945   3.120  11.073  0.00  0.00    +0.000 OA
ATOM     12  C   UNL     1      43.550   2.641  12.260  0.00  0.00    +0.000 C 
ENDBRANCH   6  11
ENDBRANCH   1   2
BRANCH   1  17
ATOM     13  C   UNL     1      47.569   4.738  15.590  0.00  0.00    +0.000 A 
ATOM     14  C   UNL     1      48.551   5.492  16.231  0.00  0.00    +0.000 A 
ATOM     15  C   UNL     1      49.058   6.659  15.634  0.00  0.00    +0.000 A 
ATOM     16  C   UNL     1      48.610   7.034  14.341  0.00  0.00    +0.000 A 
ATOM     17  C   UNL     1      47.659   6.236  13.654  0.00  0.00    +0.000 A 
ATOM     18  C   UNL     1      47.124   5.132  14.346  0.00  0.00    +0.000 A 
BRANCH  13  20
ATOM     19  C   UNL     1      47.308   3.177  17.379  0.00  0.00    +0.000 C 
ATOM     20  O   UNL     1      47.029   3.561  16.066  0.00  0.00    +0.000 OA
ENDBRANCH  13  20
BRANCH  15  21
ATOM     21  C   UNL     1      50.211   7.377  16.318  0.00  0.00    +0.000 C 
BRANCH  21  22
ATOM     22  O   UNL     1      51.441   6.654  16.228  0.00  0.00    +0.000 OA
ATOM     23  H   UNL     1      51.251   5.723  16.434  0.00  0.00    +0.000 HD
ENDBRANCH  21  22
ENDBRANCH  15  21
ENDBRANCH   1  17
TORSDOF 6
ENDMDL
MODEL 7
REMARK VINA RESULT:    -5.759      1.854      2.476
REMARK INTER + INTRA:          -8.340
REMARK INTER:                  -7.696
REMARK INTRA:                  -0.644
REMARK UNBOUND:                -0.729
REMARK  Name = 
REMARK  8 active torsions:
REMARK  status: ('A' for Active; 'I' for Inactive)
REMARK    1  A    between atoms: C_1  and  O_2
REMARK    2  A    between atoms: O_2  and  C_3
REMARK    3  A    between atoms: C_5  and  C_6
REMARK    4  A    between atoms: C_6  and  O_7
REMARK    5  A    between atoms: C_9  and  C_10
REMARK    6  A    between atoms: C_10  and  N_11
REMARK    7  A    between atoms: C_15  and  O_16
REMARK    8  A    between atoms: O_16  and  C_17
REMARK                            x       y       z     vdW  Elec       q    Type
REMARK                         _______ _______ _______ _____ _____    ______ ____
ROOT
ATOM      1  C   UNL     1      45.234   4.853  12.602  0.00  0.00    +0.000 C 
ENDROOT
BRANCH   1   2
ATOM      2  N   UNL     1      45.100   3.874  11.515  0.00  0.00    +0.000 N 
ATOM      3  C   UNL     1      44.442   2.619  11.727  0.00  0.00    +0.000 A 
ATOM      4  C   UNL     1      43.546   2.608  10.670  0.00  0.00    +0.000 A 
ATOM      5  C   UNL     1      44.494   2.973   9.662  0.00  0.00    +0.000 A 
ATOM      6  C   UNL     1      45.463   2.401   8.788  0.00  0.00    +0.000 A 
ATOM      7  C   UNL     1      46.171   3.244   7.922  0.00  0.00    +0.000 A 
ATOM      8  C   UNL     1      46.048   4.623   8.038  0.00  0.00    +0.000 A 
ATOM      9  C   UNL     1      45.426   5.166   9.198  0.00  0.00    +0.000 A 
ATOM     10  C   UNL     1      44.858   4.241  10.123  0.00  0.00    +0.000 A 
BRANCH   6  11
ATOM     11  O   UNL     1      45.898   1.084   8.762  0.00  0.00    +0.000 OA
ATOM     12  C   UNL     1      46.761   0.791   7.679  0.00  0.00    +0.000 C 
ENDBRANCH   6  11
ENDBRANCH   1   2
BRANCH   1  17
ATOM     13  C   UNL     1      48.300   6.041  14.409  0.00  0.00    +0.000 A 
ATOM     14  C   UNL     1      48.921   6.918  13.522  0.00  0.00    +0.000 A 
ATOM     15  C   UNL     1      48.315   7.241  12.295  0.00  0.00    +0.000 A 
ATOM     16  C   UNL     1      47.092   6.618  11.934  0.00  0.00    +0.000 A 
ATOM     17  C   UNL     1      46.487   5.674  12.804  0.00  0.00    +0.000 A 
ATOM     18  C   UNL     1      47.098   5.466  14.055  0.00  0.00    +0.000 A 
BRANCH  13  20
ATOM     19  C   UNL     1      48.756   6.499  16.709  0.00  0.00    +0.000 C 
ATOM     20  O   UNL     1      48.820   5.628  15.619  0.00  0.00    +0.000 OA
ENDBRANCH  13  20
BRANCH  15  21
ATOM     21  C   UNL     1      49.089   8.107  11.314  0.00  0.00    +0.000 C 
BRANCH  21  22
ATOM     22  O   UNL     1      50.094   8.898  11.952  0.00  0.00    +0.000 OA
ATOM     23  H   UNL     1      50.666   8.296  12.458  0.00  0.00    +0.000 HD
ENDBRANCH  21  22
ENDBRANCH  15  21
ENDBRANCH   1  17
TORSDOF 6
ENDMDL
MODEL 8
REMARK VINA RESULT:    -5.709      2.231      6.561
REMARK INTER + INTRA:          -8.273
REMARK INTER:                  -7.607
REMARK INTRA:                  -0.667
REMARK UNBOUND:                -0.729
REMARK  Name = 
REMARK  8 active torsions:
REMARK  status: ('A' for Active; 'I' for Inactive)
REMARK    1  A    between atoms: C_1  and  O_2
REMARK    2  A    between atoms: O_2  and  C_3
REMARK    3  A    between atoms: C_5  and  C_6
REMARK    4  A    between atoms: C_6  and  O_7
REMARK    5  A    between atoms: C_9  and  C_10
REMARK    6  A    between atoms: C_10  and  N_11
REMARK    7  A    between atoms: C_15  and  O_16
REMARK    8  A    between atoms: O_16  and  C_17
REMARK                            x       y       z     vdW  Elec       q    Type
REMARK                         _______ _______ _______ _____ _____    ______ ____
ROOT
ATOM      1  C   UNL     1      45.636   6.836  11.313  0.00  0.00    +0.000 C 
ENDROOT
BRANCH   1   2
ATOM      2  N   UNL     1      46.599   6.895  12.420  0.00  0.00    +0.000 N 
ATOM      3  C   UNL     1      46.394   6.138  13.620  0.00  0.00    +0.000 A 
ATOM      4  C   UNL     1      47.619   5.502  13.744  0.00  0.00    +0.000 A 
ATOM      5  C   UNL     1      48.420   6.670  13.538  0.00  0.00    +0.000 A 
ATOM      6  C   UNL     1      48.974   7.777  14.243  0.00  0.00    +0.000 A 
ATOM      7  C   UNL     1      49.750   8.706  13.539  0.00  0.00    +0.000 A 
ATOM      8  C   UNL     1      49.832   8.636  12.154  0.00  0.00    +0.000 A 
ATOM      9  C   UNL     1      48.919   7.801  11.449  0.00  0.00    +0.000 A 
ATOM     10  C   UNL     1      48.044   6.991  12.231  0.00  0.00    +0.000 A 
BRANCH   6  11
ATOM     11  O   UNL     1      48.742   8.134  15.564  0.00  0.00    +0.000 OA
ATOM     12  C   UNL     1      49.369   7.280  16.503  0.00  0.00    +0.000 C 
ENDBRANCH   6  11
ENDBRANCH   1   2
BRANCH   1  17
ATOM     13  C   UNL     1      45.465   4.201   8.647  0.00  0.00    +0.000 A 
ATOM     14  C   UNL     1      44.718   3.168   9.212  0.00  0.00    +0.000 A 
ATOM     15  C   UNL     1      44.147   3.315  10.488  0.00  0.00    +0.000 A 
ATOM     16  C   UNL     1      44.387   4.501  11.229  0.00  0.00    +0.000 A 
ATOM     17  C   UNL     1      45.201   5.530  10.688  0.00  0.00    +0.000 A 
ATOM     18  C   UNL     1      45.665   5.358   9.370  0.00  0.00    +0.000 A 
BRANCH  13  20
ATOM     19  C   UNL     1      46.411   2.903   6.879  0.00  0.00    +0.000 C 
ATOM     20  O   UNL     1      46.098   4.151   7.422  0.00  0.00    +0.000 OA
ENDBRANCH  13  20
BRANCH  15  21
ATOM     21  C   UNL     1      43.445   2.116  11.106  0.00  0.00    +0.000 C 
BRANCH  21  22
ATOM     22  O   UNL     1      43.477   2.136  12.535  0.00  0.00    +0.000 OA
ATOM     23  H   UNL     1      44.043   2.879  12.806  0.00  0.00    +0.000 HD
ENDBRANCH  21  22
ENDBRANCH  15  21
ENDBRANCH   1  17
TORSDOF 6
ENDMDL
MODEL 9
REMARK VINA RESULT:    -5.656      4.329      6.980
REMARK INTER + INTRA:          -8.203
REMARK INTER:                  -7.545
REMARK INTRA:                  -0.658
REMARK UNBOUND:                -0.729
REMARK  Name = 
REMARK  8 active torsions:
REMARK  status: ('A' for Active; 'I' for Inactive)
REMARK    1  A    between atoms: C_1  and  O_2
REMARK    2  A    between atoms: O_2  and  C_3
REMARK    3  A    between atoms: C_5  and  C_6
REMARK    4  A    between atoms: C_6  and  O_7
REMARK    5  A    between atoms: C_9  and  C_10
REMARK    6  A    between atoms: C_10  and  N_11
REMARK    7  A    between atoms: C_15  and  O_16
REMARK    8  A    between atoms: O_16  and  C_17
REMARK                            x       y       z     vdW  Elec       q    Type
REMARK                         _______ _______ _______ _____ _____    ______ ____
ROOT
ATOM      1  C   UNL     1      47.122   4.106  14.567  0.00  0.00    +0.000 C 
ENDROOT
BRANCH   1   2
ATOM      2  N   UNL     1      47.353   4.419  15.984  0.00  0.00    +0.000 N 
ATOM      3  C   UNL     1      47.101   3.446  17.006  0.00  0.00    +0.000 A 
ATOM      4  C   UNL     1      48.297   3.483  17.706  0.00  0.00    +0.000 A 
ATOM      5  C   UNL     1      48.369   4.908  17.812  0.00  0.00    +0.000 A 
ATOM      6  C   UNL     1      47.914   5.987  18.623  0.00  0.00    +0.000 A 
ATOM      7  C   UNL     1      48.298   7.291  18.288  0.00  0.00    +0.000 A 
ATOM      8  C   UNL     1      48.966   7.536  17.095  0.00  0.00    +0.000 A 
ATOM      9  C   UNL     1      49.011   6.512  16.106  0.00  0.00    +0.000 A 
ATOM     10  C   UNL     1      48.459   5.245  16.459  0.00  0.00    +0.000 A 
BRANCH   6  11
ATOM     11  O   UNL     1      47.010   5.926  19.674  0.00  0.00    +0.000 OA
ATOM     12  C   UNL     1      47.522   6.423  20.896  0.00  0.00    +0.000 C 
ENDBRANCH   6  11
ENDBRANCH   1   2
BRANCH   1  17
ATOM     13  C   UNL     1      46.180   6.991  12.360  0.00  0.00    +0.000 A 
ATOM     14  C   UNL     1      44.885   6.705  11.931  0.00  0.00    +0.000 A 
ATOM     15  C   UNL     1      44.205   5.575  12.417  0.00  0.00    +0.000 A 
ATOM     16  C   UNL     1      44.868   4.687  13.303  0.00  0.00    +0.000 A 
ATOM     17  C   UNL     1      46.209   4.936  13.693  0.00  0.00    +0.000 A 
ATOM     18  C   UNL     1      46.800   6.132  13.243  0.00  0.00    +0.000 A 
BRANCH  13  20
ATOM     19  C   UNL     1      48.329   7.864  11.790  0.00  0.00    +0.000 C 
ATOM     20  O   UNL     1      46.951   8.048  11.923  0.00  0.00    +0.000 OA
ENDBRANCH  13  20
BRANCH  15  21
ATOM     21  C   UNL     1      42.843   5.245  11.827  0.00  0.00    +0.000 C 
BRANCH  21  22
ATOM     22  O   UNL     1      41.982   6.383  11.758  0.00  0.00    +0.000 OA
ATOM     23  H   UNL     1      41.555   6.482  12.626  0.00  0.00    +0.000 HD
ENDBRANCH  21  22
ENDBRANCH  15  21
ENDBRANCH   1  17
TORSDOF 6
ENDMDL
