MODEL 1
REMARK VINA RESULT:    -8.507      0.000      0.000
REMARK INTER + INTRA:         -11.918
REMARK INTER:                 -10.994
REMARK INTRA:                  -0.924
REMARK UNBOUND:                -0.924
REMARK  Name = 
REMARK  7 active torsions:
REMARK  status: ('A' for Active; 'I' for Inactive)
REMARK    1  A    between atoms: C_1  and  O_2
REMARK    2  A    between atoms: O_2  and  C_3
REMARK    3  A    between atoms: C_6  and  C_7
REMARK    4  A    between atoms: C_7  and  C_8
REMARK    5  A    between atoms: C_7  and  N_9
REMARK    6  A    between atoms: N_9  and  C_10
REMARK    7  A    between atoms: C_13  and  C_14
REMARK                            x       y       z     vdW  Elec       q    Type
REMARK                         _______ _______ _______ _____ _____    ______ ____
ROOT
ATOM      1  N   UNL     1      43.702   4.827   9.848  0.00  0.00    +0.000 N 
ATOM      2  H   UNL     1      43.856   5.813   9.640  0.00  0.00    +0.000 HD
ENDROOT
BRANCH   1   3
ATOM      3  C   UNL     1      44.582   4.023   9.113  0.00  0.00    +0.000 A 
ATOM      4  C   UNL     1      45.571   4.529   8.265  0.00  0.00    +0.000 A 
ATOM      5  C   UNL     1      46.467   3.685   7.600  0.00  0.00    +0.000 A 
ATOM      6  C   UNL     1      46.411   2.303   7.789  0.00  0.00    +0.000 A 
ATOM      7  C   UNL     1      45.458   1.775   8.664  0.00  0.00    +0.000 A 
ATOM      8  C   UNL     1      44.570   2.635   9.329  0.00  0.00    +0.000 A 
BRANCH   6   9
ATOM      9  C   UNL     1      47.362   1.459   7.020  0.00  0.00    +0.000 C 
ATOM     10  N   UNL     1      48.480   2.062   6.511  0.00  0.00    +0.000 N 
ATOM     11  O   UNL     1      47.149   0.270   6.815  0.00  0.00    +0.000 OA
ATOM     12  H   UNL     1      48.570   3.064   6.435  0.00  0.00    +0.000 HD
ATOM     13  H   UNL     1      49.050   1.489   5.903  0.00  0.00    +0.000 HD
ENDBRANCH   6   9
ENDBRANCH   1   3
BRANCH   1  14
ATOM     14  C   UNL     1      43.511   4.617  11.294  0.00  0.00    +0.000 C 
ATOM     15  C   UNL     1      42.390   5.506  11.841  0.00  0.00    +0.000 C 
BRANCH  14  19
ATOM     16  C   UNL     1      47.264   5.503  13.313  0.00  0.00    +0.000 A 
ATOM     17  C   UNL     1      46.631   4.275  13.505  0.00  0.00    +0.000 A 
ATOM     18  C   UNL     1      45.420   3.996  12.856  0.00  0.00    +0.000 A 
ATOM     19  C   UNL     1      44.821   4.941  12.010  0.00  0.00    +0.000 A 
ATOM     20  C   UNL     1      45.460   6.179  11.839  0.00  0.00    +0.000 A 
ATOM     21  C   UNL     1      46.666   6.454  12.486  0.00  0.00    +0.000 A 
BRANCH  16  23
ATOM     22  C   UNL     1      49.003   7.121  13.409  0.00  0.00    +0.000 C 
ATOM     23  O   UNL     1      48.452   5.893  13.868  0.00  0.00    +0.000 OA
ENDBRANCH  16  23
ENDBRANCH  14  19
ENDBRANCH   1  14
TORSDOF 5
ENDMDL
MODEL 2
REMARK VINA RESULT:    -7.419      1.743      2.155
REMARK INTER + INTRA:         -10.512
REMARK INTER:                  -9.707
REMARK INTRA:                  -0.805
REMARK UNBOUND:                -0.924
REMARK  Name = 
REMARK  7 active torsions:
REMARK  status: ('A' for Active; 'I' for Inactive)
REMARK    1  A    between atoms: C_1  and  O_2
REMARK    2  A    between atoms: O_2  and  C_3
REMARK    3  A    between atoms: C_6  and  C_7
REMARK    4  A    between atoms: C_7  and  C_8
REMARK    5  A    between atoms: C_7  and  N_9
REMARK    6  A    between atoms: N_9  and  C_10
REMARK    7  A    between atoms: C_13  and  C_14
REMARK                            x       y       z     vdW  Elec       q    Type
REMARK                         _______ _______ _______ _____ _____    ______ ____
ROOT
ATOM      1  N   UNL     1      43.963   3.604  10.466  0.00  0.00    +0.000 N 
ATOM      2  H   UNL     1      43.309   4.343  10.213  0.00  0.00    +0.000 HD
ENDROOT
BRANCH   1   3
ATOM      3  C   UNL     1      44.814   3.308   9.394  0.00  0.00    +0.000 A 
ATOM      4  C   UNL     1      45.389   4.279   8.569  0.00  0.00    +0.000 A 
ATOM      5  C   UNL     1      46.283   3.936   7.549  0.00  0.00    +0.000 A 
ATOM      6  C   UNL     1      46.647   2.604   7.343  0.00  0.00    +0.000 A 
ATOM      7  C   UNL     1      46.118   1.619   8.181  0.00  0.00    +0.000 A 
ATOM      8  C   UNL     1      45.227   1.979   9.204  0.00  0.00    +0.000 A 
BRANCH   6   9
ATOM      9  C   UNL     1      47.566   2.302   6.216  0.00  0.00    +0.000 C 
ATOM     10  N   UNL     1      47.455   3.061   5.084  0.00  0.00    +0.000 N 
ATOM     11  O   UNL     1      48.378   1.387   6.273  0.00  0.00    +0.000 OA
ATOM     12  H   UNL     1      46.651   3.642   4.895  0.00  0.00    +0.000 HD
ATOM     13  H   UNL     1      48.016   2.762   4.297  0.00  0.00    +0.000 HD
ENDBRANCH   6   9
ENDBRANCH   1   3
BRANCH   1  14
ATOM     14  C   UNL     1      44.497   3.812  11.822  0.00  0.00    +0.000 C 
ATOM     15  C   UNL     1      43.424   3.563  12.887  0.00  0.00    +0.000 C 
BRANCH  14  19
ATOM     16  C   UNL     1      45.978   7.896  12.100  0.00  0.00    +0.000 A 
ATOM     17  C   UNL     1      46.782   6.825  12.487  0.00  0.00    +0.000 A 
ATOM     18  C   UNL     1      46.300   5.511  12.401  0.00  0.00    +0.000 A 
ATOM     19  C   UNL     1      45.004   5.249  11.930  0.00  0.00    +0.000 A 
ATOM     20  C   UNL     1      44.199   6.338  11.559  0.00  0.00    +0.000 A 
ATOM     21  C   UNL     1      44.683   7.644  11.645  0.00  0.00    +0.000 A 
BRANCH  16  23
ATOM     22  C   UNL     1      45.336  10.154  11.728  0.00  0.00    +0.000 C 
ATOM     23  O   UNL     1      46.332   9.217  12.115  0.00  0.00    +0.000 OA
ENDBRANCH  16  23
ENDBRANCH  14  19
ENDBRANCH   1  14
TORSDOF 5
ENDMDL
MODEL 3
REMARK VINA RESULT:    -6.744      1.912      6.173
REMARK INTER + INTRA:          -9.640
REMARK INTER:                  -9.652
REMARK INTRA:                   0.012
REMARK UNBOUND:                -0.924
REMARK  Name = 
REMARK  7 active torsions:
REMARK  status: ('A' for Active; 'I' for Inactive)
REMARK    1  A    between atoms: C_1  and  O_2
REMARK    2  A    between atoms: O_2  and  C_3
REMARK    3  A    between atoms: C_6  and  C_7
REMARK    4  A    between atoms: C_7  and  C_8
REMARK    5  A    between atoms: C_7  and  N_9
REMARK    6  A    between atoms: N_9  and  C_10
REMARK    7  A    between atoms: C_13  and  C_14
REMARK                            x       y       z     vdW  Elec       q    Type
REMARK                         _______ _______ _______ _____ _____    ______ ____
ROOT
ATOM      1  N   UNL     1      44.327   5.440  10.298  0.00  0.00    +0.000 N 
ATOM      2  H   UNL     1      43.566   6.102  10.443  0.00  0.00    +0.000 HD
ENDROOT
BRANCH   1   3
ATOM      3  C   UNL     1      45.284   5.556  11.314  0.00  0.00    +0.000 A 
ATOM      4  C   UNL     1      46.469   6.286  11.184  0.00  0.00    +0.000 A 
ATOM      5  C   UNL     1      47.364   6.424  12.251  0.00  0.00    +0.000 A 
ATOM      6  C   UNL     1      47.081   5.851  13.492  0.00  0.00    +0.000 A 
ATOM      7  C   UNL     1      45.884   5.150  13.659  0.00  0.00    +0.000 A 
ATOM      8  C   UNL     1      44.992   5.026  12.583  0.00  0.00    +0.000 A 
BRANCH   6   9
ATOM      9  C   UNL     1      48.093   5.996  14.570  0.00  0.00    +0.000 C 
ATOM     10  N   UNL     1      47.819   5.421  15.781  0.00  0.00    +0.000 N 
ATOM     11  O   UNL     1      49.126   6.634  14.404  0.00  0.00    +0.000 OA
ATOM     12  H   UNL     1      46.894   5.113  16.040  0.00  0.00    +0.000 HD
ATOM     13  H   UNL     1      48.473   5.629  16.524  0.00  0.00    +0.000 HD
ENDBRANCH   6   9
ENDBRANCH   1   3
BRANCH   1  14
ATOM     14  C   UNL     1      43.810   4.122   9.892  0.00  0.00    +0.000 C 
ATOM     15  C   UNL     1      43.490   3.250  11.110  0.00  0.00    +0.000 C 
BRANCH  14  19
ATOM     16  C   UNL     1      46.778   2.124   7.413  0.00  0.00    +0.000 A 
ATOM     17  C   UNL     1      46.044   1.404   8.355  0.00  0.00    +0.000 A 
ATOM     18  C   UNL     1      45.092   2.052   9.155  0.00  0.00    +0.000 A 
ATOM     19  C   UNL     1      44.863   3.431   9.028  0.00  0.00    +0.000 A 
ATOM     20  C   UNL     1      45.621   4.146   8.088  0.00  0.00    +0.000 A 
ATOM     21  C   UNL     1      46.567   3.498   7.292  0.00  0.00    +0.000 A 
BRANCH  16  23
ATOM     22  C   UNL     1      47.946   2.326   5.353  0.00  0.00    +0.000 C 
ATOM     23  O   UNL     1      47.718   1.612   6.561  0.00  0.00    +0.000 OA
ENDBRANCH  16  23
ENDBRANCH  14  19
ENDBRANCH   1  14
TORSDOF 5
ENDMDL
MODEL 4
REMARK VINA RESULT:    -6.642      2.102      6.502
REMARK INTER + INTRA:          -9.508
REMARK INTER:                  -9.030
REMARK INTRA:                  -0.478
REMARK UNBOUND:                -0.924
REMARK  Name = 
REMARK  7 active torsions:
REMARK  status: ('A' for Active; 'I' for Inactive)
REMARK    1  A    between atoms: C_1  and  O_2
REMARK    2  A    between atoms: O_2  and  C_3
REMARK    3  A    between atoms: C_6  and  C_7
REMARK    4  A    between atoms: C_7  and  C_8
REMARK    5  A    between atoms: C_7  and  N_9
REMARK    6  A    between atoms: N_9  and  C_10
REMARK    7  A    between atoms: C_13  and  C_14
REMARK                            x       y       z     vdW  Elec       q    Type
REMARK                         _______ _______ _______ _____ _____    ______ ____
ROOT
ATOM      1  N   UNL     1      43.992   5.449  10.215  0.00  0.00    +0.000 N 
ATOM      2  H   UNL     1      43.092   5.926  10.233  0.00  0.00    +0.000 HD
ENDROOT
BRANCH   1   3
ATOM      3  C   UNL     1      44.907   6.087  11.061  0.00  0.00    +0.000 A 
ATOM      4  C   UNL     1      46.294   6.010  10.903  0.00  0.00    +0.000 A 
ATOM      5  C   UNL     1      47.166   6.718  11.739  0.00  0.00    +0.000 A 
ATOM      6  C   UNL     1      46.667   7.547  12.744  0.00  0.00    +0.000 A 
ATOM      7  C   UNL     1      45.284   7.673  12.896  0.00  0.00    +0.000 A 
ATOM      8  C   UNL     1      44.421   6.962  12.047  0.00  0.00    +0.000 A 
BRANCH   6   9
ATOM      9  C   UNL     1      47.645   8.236  13.625  0.00  0.00    +0.000 C 
ATOM     10  N   UNL     1      47.153   9.041  14.615  0.00  0.00    +0.000 N 
ATOM     11  O   UNL     1      48.854   8.122  13.460  0.00  0.00    +0.000 OA
ATOM     12  H   UNL     1      46.196   9.363  14.629  0.00  0.00    +0.000 HD
ATOM     13  H   UNL     1      47.839   9.581  15.126  0.00  0.00    +0.000 HD
ENDBRANCH   6   9
ENDBRANCH   1   3
BRANCH   1  14
ATOM     14  C   UNL     1      43.816   3.987  10.255  0.00  0.00    +0.000 C 
ATOM     15  C   UNL     1      44.107   3.430  11.651  0.00  0.00    +0.000 C 
BRANCH  14  19
ATOM     16  C   UNL     1      46.559   2.217   7.376  0.00  0.00    +0.000 A 
ATOM     17  C   UNL     1      46.205   3.563   7.280  0.00  0.00    +0.000 A 
ATOM     18  C   UNL     1      45.318   4.128   8.206  0.00  0.00    +0.000 A 
ATOM     19  C   UNL     1      44.767   3.355   9.240  0.00  0.00    +0.000 A 
ATOM     20  C   UNL     1      45.118   1.998   9.315  0.00  0.00    +0.000 A 
ATOM     21  C   UNL     1      46.003   1.439   8.391  0.00  0.00    +0.000 A 
BRANCH  16  23
ATOM     22  C   UNL     1      47.925   2.266   5.431  0.00  0.00    +0.000 C 
ATOM     23  O   UNL     1      47.426   1.551   6.553  0.00  0.00    +0.000 OA
ENDBRANCH  16  23
ENDBRANCH  14  19
ENDBRANCH   1  14
TORSDOF 5
ENDMDL
MODEL 5
REMARK VINA RESULT:    -6.355      2.567      6.811
REMARK INTER + INTRA:          -9.137
REMARK INTER:                  -8.457
REMARK INTRA:                  -0.680
REMARK UNBOUND:                -0.924
REMARK  Name = 
REMARK  7 active torsions:
REMARK  status: ('A' for Active; 'I' for Inactive)
REMARK    1  A    between atoms: C_1  and  O_2
REMARK    2  A    between atoms: O_2  and  C_3
REMARK    3  A    between atoms: C_6  and  C_7
REMARK    4  A    between atoms: C_7  and  C_8
REMARK    5  A    between atoms: C_7  and  N_9
REMARK    6  A    between atoms: N_9  and  C_10
REMARK    7  A    between atoms: C_13  and  C_14
REMARK                            x       y       z     vdW  Elec       q    Type
REMARK                         _______ _______ _______ _____ _____    ______ ____
ROOT
ATOM      1  N   UNL     1      45.245   5.141  11.757  0.00  0.00    +0.000 N 
ATOM      2  H   UNL     1      46.017   4.476  11.784  0.00  0.00    +0.000 HD
ENDROOT
BRANCH   1   3
ATOM      3  C   UNL     1      45.723   6.456  11.821  0.00  0.00    +0.000 A 
ATOM      4  C   UNL     1      44.894   7.581  11.857  0.00  0.00    +0.000 A 
ATOM      5  C   UNL     1      45.419   8.872  11.984  0.00  0.00    +0.000 A 
ATOM      6  C   UNL     1      46.796   9.069  12.104  0.00  0.00    +0.000 A 
ATOM      7  C   UNL     1      47.642   7.957  12.112  0.00  0.00    +0.000 A 
ATOM      8  C   UNL     1      47.101   6.668  11.991  0.00  0.00    +0.000 A 
BRANCH   6   9
ATOM      9  C   UNL     1      47.292  10.467  12.192  0.00  0.00    +0.000 C 
ATOM     10  N   UNL     1      46.363  11.468  12.263  0.00  0.00    +0.000 N 
ATOM     11  O   UNL     1      48.489  10.729  12.169  0.00  0.00    +0.000 OA
ATOM     12  H   UNL     1      45.391  11.325  12.032  0.00  0.00    +0.000 HD
ATOM     13  H   UNL     1      46.727  12.410  12.211  0.00  0.00    +0.000 HD
ENDBRANCH   6   9
ENDBRANCH   1   3
BRANCH   1  14
ATOM     14  C   UNL     1      44.242   4.747  10.753  0.00  0.00    +0.000 C 
ATOM     15  C   UNL     1      43.120   3.917  11.385  0.00  0.00    +0.000 C 
BRANCH  14  19
ATOM     16  C   UNL     1      46.266   2.436   7.669  0.00  0.00    +0.000 A 
ATOM     17  C   UNL     1      46.281   3.830   7.632  0.00  0.00    +0.000 A 
ATOM     18  C   UNL     1      45.625   4.570   8.625  0.00  0.00    +0.000 A 
ATOM     19  C   UNL     1      44.938   3.928   9.667  0.00  0.00    +0.000 A 
ATOM     20  C   UNL     1      44.916   2.525   9.682  0.00  0.00    +0.000 A 
ATOM     21  C   UNL     1      45.572   1.790   8.693  0.00  0.00    +0.000 A 
BRANCH  16  23
ATOM     22  C   UNL     1      47.878   2.170   5.943  0.00  0.00    +0.000 C 
ATOM     23  O   UNL     1      46.880   1.598   6.778  0.00  0.00    +0.000 OA
ENDBRANCH  16  23
ENDBRANCH  14  19
ENDBRANCH   1  14
TORSDOF 5
ENDMDL
MODEL 6
REMARK VINA RESULT:    -6.157      2.293      6.487
REMARK INTER + INTRA:          -8.880
REMARK INTER:                  -8.254
REMARK INTRA:                  -0.626
REMARK UNBOUND:                -0.924
REMARK  Name = 
REMARK  7 active torsions:
REMARK  status: ('A' for Active; 'I' for Inactive)
REMARK    1  A    between atoms: C_1  and  O_2
REMARK    2  A    between atoms: O_2  and  C_3
REMARK    3  A    between atoms: C_6  and  C_7
REMARK    4  A    between atoms: C_7  and  C_8
REMARK    5  A    between atoms: C_7  and  N_9
REMARK    6  A    between atoms: N_9  and  C_10
REMARK    7  A    between atoms: C_13  and  C_14
REMARK                            x       y       z     vdW  Elec       q    Type
REMARK                         _______ _______ _______ _____ _____    ______ ____
ROOT
ATOM      1  N   UNL     1      45.231   4.448  12.378  0.00  0.00    +0.000 N 
ATOM      2  H   UNL     1      45.527   3.474  12.333  0.00  0.00    +0.000 HD
ENDROOT
BRANCH   1   3
ATOM      3  C   UNL     1      46.270   5.259  12.852  0.00  0.00    +0.000 A 
ATOM      4  C   UNL     1      46.907   5.065  14.081  0.00  0.00    +0.000 A 
ATOM      5  C   UNL     1      47.983   5.865  14.481  0.00  0.00    +0.000 A 
ATOM      6  C   UNL     1      48.469   6.871  13.644  0.00  0.00    +0.000 A 
ATOM      7  C   UNL     1      47.876   7.058  12.393  0.00  0.00    +0.000 A 
ATOM      8  C   UNL     1      46.802   6.244  12.002  0.00  0.00    +0.000 A 
BRANCH   6   9
ATOM      9  C   UNL     1      49.585   7.713  14.147  0.00  0.00    +0.000 C 
ATOM     10  N   UNL     1      50.759   7.697  13.446  0.00  0.00    +0.000 N 
ATOM     11  O   UNL     1      49.480   8.379  15.170  0.00  0.00    +0.000 OA
ATOM     12  H   UNL     1      50.975   6.987  12.762  0.00  0.00    +0.000 HD
ATOM     13  H   UNL     1      51.532   8.192  13.872  0.00  0.00    +0.000 HD
ENDBRANCH   6   9
ENDBRANCH   1   3
BRANCH   1  14
ATOM     14  C   UNL     1      44.464   4.823  11.178  0.00  0.00    +0.000 C 
ATOM     15  C   UNL     1      42.978   4.490  11.341  0.00  0.00    +0.000 C 
BRANCH  14  19
ATOM     16  C   UNL     1      46.041   2.641   7.758  0.00  0.00    +0.000 A 
ATOM     17  C   UNL     1      45.458   1.957   8.824  0.00  0.00    +0.000 A 
ATOM     18  C   UNL     1      44.955   2.664   9.926  0.00  0.00    +0.000 A 
ATOM     19  C   UNL     1      45.033   4.064   9.980  0.00  0.00    +0.000 A 
ATOM     20  C   UNL     1      45.638   4.738   8.908  0.00  0.00    +0.000 A 
ATOM     21  C   UNL     1      46.136   4.032   7.812  0.00  0.00    +0.000 A 
BRANCH  16  23
ATOM     22  C   UNL     1      47.960   2.132   6.449  0.00  0.00    +0.000 C 
ATOM     23  O   UNL     1      46.549   2.076   6.620  0.00  0.00    +0.000 OA
ENDBRANCH  16  23
ENDBRANCH  14  19
ENDBRANCH   1  14
TORSDOF 5
ENDMDL
