MODEL 1
REMARK VINA RESULT:    -7.495      0.000      0.000
REMARK INTER + INTRA:         -11.636
REMARK INTER:                 -10.562
REMARK INTRA:                  -1.074
REMARK UNBOUND:                -1.074
REMARK  Name = 
REMARK  8 active torsions:
REMARK  status: ('A' for Active; 'I' for Inactive)
REMARK    1  A    between atoms: C_1  and  O_2
REMARK    2  A    between atoms: O_2  and  C_3
REMARK    3  A    between atoms: C_8  and  C_9
REMARK    4  A    between atoms: N_11  and  C_12
REMARK    5  A    between atoms: C_12  and  C_13
REMARK    6  A    between atoms: C_16  and  C_17
REMARK    7  A    between atoms: C_17  and  N_18
REMARK    8  A    between atoms: C_19  and  C_21
REMARK                            x       y       z     vdW  Elec       q    Type
REMARK                         _______ _______ _______ _____ _____    ______ ____
ROOT
ATOM      1  C   UNL     1      47.366   5.677  14.451  0.00  0.00    +0.000 A 
ATOM      2  C   UNL     1      48.235   6.159  15.429  0.00  0.00    +0.000 A 
ATOM      3  C   UNL     1      48.503   5.370  16.551  0.00  0.00    +0.000 A 
ATOM      4  C   UNL     1      47.917   4.108  16.669  0.00  0.00    +0.000 A 
ATOM      5  C   UNL     1      47.063   3.714  15.645  0.00  0.00    +0.000 A 
ATOM      6  N   UNL     1      46.788   4.453  14.545  0.00  0.00    +0.000 NA
ENDROOT
BRANCH   1   7
ATOM      7  C   UNL     1      47.075   6.497  13.212  0.00  0.00    +0.000 C 
BRANCH   7  10
ATOM      8  C   UNL     1      45.590   5.985  11.300  0.00  0.00    +0.000 C 
ATOM      9  O   UNL     1      44.933   7.011  11.466  0.00  0.00    +0.000 OA
ATOM     10  N   UNL     1      46.651   5.663  12.108  0.00  0.00    +0.000 N 
ATOM     11  H   UNL     1      47.051   4.732  12.037  0.00  0.00    +0.000 HD
BRANCH   8  17
ATOM     12  C   UNL     1      44.299   4.057  10.169  0.00  0.00    +0.000 A 
ATOM     13  C   UNL     1      44.193   3.183   9.075  0.00  0.00    +0.000 A 
ATOM     14  C   UNL     1      45.035   3.312   7.969  0.00  0.00    +0.000 A 
ATOM     15  C   UNL     1      45.978   4.331   7.928  0.00  0.00    +0.000 A 
ATOM     16  C   UNL     1      46.100   5.202   9.010  0.00  0.00    +0.000 A 
ATOM     17  C   UNL     1      45.281   5.069  10.149  0.00  0.00    +0.000 A 
BRANCH  12  19
ATOM     18  C   UNL     1      43.653   2.957  12.184  0.00  0.00    +0.000 C 
ATOM     19  O   UNL     1      43.443   4.003  11.241  0.00  0.00    +0.000 OA
ENDBRANCH  12  19
ENDBRANCH   8  17
ENDBRANCH   7  10
ENDBRANCH   1   7
BRANCH   4  20
ATOM     20  C   UNL     1      48.162   3.209  17.848  0.00  0.00    +0.000 C 
BRANCH  20  21
ATOM     21  N   UNL     1      49.570   2.983  18.063  0.00  0.00    +0.000 N 
ATOM     22  C   UNL     1      50.307   2.184  17.222  0.00  0.00    +0.000 C 
ATOM     23  O   UNL     1      49.817   1.657  16.227  0.00  0.00    +0.000 OA
ATOM     24  H   UNL     1      49.931   3.171  18.992  0.00  0.00    +0.000 HD
BRANCH  22  25
ATOM     25  C   UNL     1      51.734   2.046  17.544  0.00  0.00    +0.000 A 
ATOM     26  C   UNL     1      52.288   0.783  17.712  0.00  0.00    +0.000 A 
ATOM     27  S   UNL     1      53.965   0.809  18.025  0.00  0.00    +0.000 S 
ATOM     28  C   UNL     1      53.998   2.508  18.004  0.00  0.00    +0.000 A 
ATOM     29  N   UNL     1      55.155   3.192  18.237  0.00  0.00    +0.000 NA
ATOM     30  C   UNL     1      55.026   4.477  18.225  0.00  0.00    +0.000 A 
ATOM     31  N   UNL     1      53.851   5.143  17.993  0.00  0.00    +0.000 N 
ATOM     32  C   UNL     1      52.669   4.497  17.716  0.00  0.00    +0.000 A 
ATOM     33  O   UNL     1      51.644   5.119  17.456  0.00  0.00    +0.000 OA
ATOM     34  C   UNL     1      52.754   3.049  17.738  0.00  0.00    +0.000 A 
ATOM     35  H   UNL     1      53.820   6.151  17.983  0.00  0.00    +0.000 HD
ENDBRANCH  22  25
ENDBRANCH  20  21
ENDBRANCH   4  20
TORSDOF 7
ENDMDL
MODEL 2
REMARK VINA RESULT:    -7.491      3.060      9.545
REMARK INTER + INTRA:         -11.630
REMARK INTER:                 -10.466
REMARK INTRA:                  -1.164
REMARK UNBOUND:                -1.074
REMARK  Name = 
REMARK  8 active torsions:
REMARK  status: ('A' for Active; 'I' for Inactive)
REMARK    1  A    between atoms: C_1  and  O_2
REMARK    2  A    between atoms: O_2  and  C_3
REMARK    3  A    between atoms: C_8  and  C_9
REMARK    4  A    between atoms: N_11  and  C_12
REMARK    5  A    between atoms: C_12  and  C_13
REMARK    6  A    between atoms: C_16  and  C_17
REMARK    7  A    between atoms: C_17  and  N_18
REMARK    8  A    between atoms: C_19  and  C_21
REMARK                            x       y       z     vdW  Elec       q    Type
REMARK                         _______ _______ _______ _____ _____    ______ ____
ROOT
ATOM      1  C   UNL     1      50.131   7.526  15.228  0.00  0.00    +0.000 A 
ATOM      2  C   UNL     1      50.219   8.657  14.417  0.00  0.00    +0.000 A 
ATOM      3  C   UNL     1      49.337   8.797  13.343  0.00  0.00    +0.000 A 
ATOM      4  C   UNL     1      48.370   7.818  13.107  0.00  0.00    +0.000 A 
ATOM      5  C   UNL     1      48.360   6.724  13.965  0.00  0.00    +0.000 A 
ATOM      6  N   UNL     1      49.197   6.564  15.017  0.00  0.00    +0.000 NA
ENDROOT
BRANCH   1   7
ATOM      7  C   UNL     1      51.056   7.358  16.414  0.00  0.00    +0.000 C 
BRANCH   7  10
ATOM      8  C   UNL     1      51.051   5.183  17.594  0.00  0.00    +0.000 C 
ATOM      9  O   UNL     1      50.271   5.590  18.453  0.00  0.00    +0.000 OA
ATOM     10  N   UNL     1      51.482   5.984  16.566  0.00  0.00    +0.000 N 
ATOM     11  H   UNL     1      52.249   5.658  15.986  0.00  0.00    +0.000 HD
BRANCH   8  17
ATOM     12  C   UNL     1      50.742   2.650  17.209  0.00  0.00    +0.000 A 
ATOM     13  C   UNL     1      51.246   1.352  17.396  0.00  0.00    +0.000 A 
ATOM     14  C   UNL     1      52.504   1.146  17.965  0.00  0.00    +0.000 A 
ATOM     15  C   UNL     1      53.288   2.232  18.331  0.00  0.00    +0.000 A 
ATOM     16  C   UNL     1      52.798   3.527  18.157  0.00  0.00    +0.000 A 
ATOM     17  C   UNL     1      51.518   3.755  17.615  0.00  0.00    +0.000 A 
BRANCH  12  19
ATOM     18  C   UNL     1      48.368   2.777  17.390  0.00  0.00    +0.000 C 
ATOM     19  O   UNL     1      49.540   2.891  16.590  0.00  0.00    +0.000 OA
ENDBRANCH  12  19
ENDBRANCH   8  17
ENDBRANCH   7  10
ENDBRANCH   1   7
BRANCH   4  20
ATOM     20  C   UNL     1      47.391   7.905  11.970  0.00  0.00    +0.000 C 
BRANCH  20  21
ATOM     21  N   UNL     1      46.721   6.648  11.745  0.00  0.00    +0.000 N 
ATOM     22  C   UNL     1      45.352   6.565  11.676  0.00  0.00    +0.000 C 
ATOM     23  O   UNL     1      44.632   7.556  11.762  0.00  0.00    +0.000 OA
ATOM     24  H   UNL     1      47.249   5.803  11.937  0.00  0.00    +0.000 HD
BRANCH  22  25
ATOM     25  C   UNL     1      44.794   5.228  11.429  0.00  0.00    +0.000 A 
ATOM     26  C   UNL     1      44.039   4.600  12.411  0.00  0.00    +0.000 A 
ATOM     27  S   UNL     1      43.426   3.080  11.933  0.00  0.00    +0.000 S 
ATOM     28  C   UNL     1      44.195   3.185  10.421  0.00  0.00    +0.000 A 
ATOM     29  N   UNL     1      44.098   2.172   9.511  0.00  0.00    +0.000 NA
ATOM     30  C   UNL     1      44.761   2.371   8.422  0.00  0.00    +0.000 A 
ATOM     31  N   UNL     1      45.504   3.490   8.151  0.00  0.00    +0.000 N 
ATOM     32  C   UNL     1      45.599   4.551   9.020  0.00  0.00    +0.000 A 
ATOM     33  O   UNL     1      46.225   5.565   8.728  0.00  0.00    +0.000 OA
ATOM     34  C   UNL     1      44.890   4.370  10.271  0.00  0.00    +0.000 A 
ATOM     35  H   UNL     1      45.988   3.591   7.272  0.00  0.00    +0.000 HD
ENDBRANCH  22  25
ENDBRANCH  20  21
ENDBRANCH   4  20
TORSDOF 7
ENDMDL
MODEL 3
REMARK VINA RESULT:    -6.900      3.077      9.601
REMARK INTER + INTRA:         -10.797
REMARK INTER:                  -9.613
REMARK INTRA:                  -1.184
REMARK UNBOUND:                -1.074
REMARK  Name = 
REMARK  8 active torsions:
REMARK  status: ('A' for Active; 'I' for Inactive)
REMARK    1  A    between atoms: C_1  and  O_2
REMARK    2  A    between atoms: O_2  and  C_3
REMARK    3  A    between atoms: C_8  and  C_9
REMARK    4  A    between atoms: N_11  and  C_12
REMARK    5  A    between atoms: C_12  and  C_13
REMARK    6  A    between atoms: C_16  and  C_17
REMARK    7  A    between atoms: C_17  and  N_18
REMARK    8  A    between atoms: C_19  and  C_21
REMARK                            x       y       z     vdW  Elec       q    Type
REMARK                         _______ _______ _______ _____ _____    ______ ____
ROOT
ATOM      1  C   UNL     1      50.139   7.172  15.676  0.00  0.00    +0.000 A 
ATOM      2  C   UNL     1      50.841   7.876  14.699  0.00  0.00    +0.000 A 
ATOM      3  C   UNL     1      50.191   8.230  13.514  0.00  0.00    +0.000 A 
ATOM      4  C   UNL     1      48.849   7.894  13.331  0.00  0.00    +0.000 A 
ATOM      5  C   UNL     1      48.231   7.189  14.358  0.00  0.00    +0.000 A 
ATOM      6  N   UNL     1      48.833   6.837  15.519  0.00  0.00    +0.000 NA
ENDROOT
BRANCH   1   7
ATOM      7  C   UNL     1      50.807   6.796  16.981  0.00  0.00    +0.000 C 
BRANCH   7  10
ATOM      8  C   UNL     1      51.748   4.793  18.089  0.00  0.00    +0.000 C 
ATOM      9  O   UNL     1      51.830   5.366  19.174  0.00  0.00    +0.000 OA
ATOM     10  N   UNL     1      51.259   5.421  16.971  0.00  0.00    +0.000 N 
ATOM     11  H   UNL     1      51.369   4.964  16.071  0.00  0.00    +0.000 HD
BRANCH   8  17
ATOM     12  C   UNL     1      51.348   2.354  17.346  0.00  0.00    +0.000 A 
ATOM     13  C   UNL     1      51.758   1.013  17.411  0.00  0.00    +0.000 A 
ATOM     14  C   UNL     1      52.934   0.653  18.073  0.00  0.00    +0.000 A 
ATOM     15  C   UNL     1      53.731   1.631  18.656  0.00  0.00    +0.000 A 
ATOM     16  C   UNL     1      53.332   2.966  18.605  0.00  0.00    +0.000 A 
ATOM     17  C   UNL     1      52.133   3.345  17.970  0.00  0.00    +0.000 A 
BRANCH  12  19
ATOM     18  C   UNL     1      48.994   2.162  17.018  0.00  0.00    +0.000 C 
ATOM     19  O   UNL     1      50.236   2.750  16.645  0.00  0.00    +0.000 OA
ENDBRANCH  12  19
ENDBRANCH   8  17
ENDBRANCH   7  10
ENDBRANCH   1   7
BRANCH   4  20
ATOM     20  C   UNL     1      48.090   8.244  12.082  0.00  0.00    +0.000 C 
BRANCH  20  21
ATOM     21  N   UNL     1      47.449   7.087  11.506  0.00  0.00    +0.000 N 
ATOM     22  C   UNL     1      46.084   7.019  11.359  0.00  0.00    +0.000 C 
ATOM     23  O   UNL     1      45.347   7.950  11.672  0.00  0.00    +0.000 OA
ATOM     24  H   UNL     1      47.982   6.224  11.492  0.00  0.00    +0.000 HD
BRANCH  22  25
ATOM     25  C   UNL     1      45.558   5.792  10.746  0.00  0.00    +0.000 A 
ATOM     26  C   UNL     1      45.784   5.537   9.400  0.00  0.00    +0.000 A 
ATOM     27  S   UNL     1      45.150   4.042   8.872  0.00  0.00    +0.000 S 
ATOM     28  C   UNL     1      44.504   3.712  10.409  0.00  0.00    +0.000 A 
ATOM     29  N   UNL     1      43.793   2.571  10.642  0.00  0.00    +0.000 NA
ATOM     30  C   UNL     1      43.332   2.467  11.843  0.00  0.00    +0.000 A 
ATOM     31  N   UNL     1      43.522   3.392  12.837  0.00  0.00    +0.000 N 
ATOM     32  C   UNL     1      44.263   4.537  12.659  0.00  0.00    +0.000 A 
ATOM     33  O   UNL     1      44.464   5.320  13.582  0.00  0.00    +0.000 OA
ATOM     34  C   UNL     1      44.787   4.713  11.319  0.00  0.00    +0.000 A 
ATOM     35  H   UNL     1      43.147   3.245  13.761  0.00  0.00    +0.000 HD
ENDBRANCH  22  25
ENDBRANCH  20  21
ENDBRANCH   4  20
TORSDOF 7
ENDMDL
MODEL 4
REMARK VINA RESULT:    -6.894      1.759      2.856
REMARK INTER + INTRA:         -10.790
REMARK INTER:                  -9.726
REMARK INTRA:                  -1.064
REMARK UNBOUND:                -1.074
REMARK  Name = 
REMARK  8 active torsions:
REMARK  status: ('A' for Active; 'I' for Inactive)
REMARK    1  A    between atoms: C_1  and  O_2
REMARK    2  A    between atoms: O_2  and  C_3
REMARK    3  A    between atoms: C_8  and  C_9
REMARK    4  A    between atoms: N_11  and  C_12
REMARK    5  A    between atoms: C_12  and  C_13
REMARK    6  A    between atoms: C_16  and  C_17
REMARK    7  A    between atoms: C_17  and  N_18
REMARK    8  A    between atoms: C_19  and  C_21
REMARK                            x       y       z     vdW  Elec       q    Type
REMARK                         _______ _______ _______ _____ _____    ______ ____
ROOT
ATOM      1  C   UNL     1      48.017   7.471  13.796  0.00  0.00    +0.000 A 
ATOM      2  C   UNL     1      47.969   6.189  14.342  0.00  0.00    +0.000 A 
ATOM      3  C   UNL     1      48.297   6.008  15.688  0.00  0.00    +0.000 A 
ATOM      4  C   UNL     1      48.648   7.109  16.471  0.00  0.00    +0.000 A 
ATOM      5  C   UNL     1      48.672   8.348  15.840  0.00  0.00    +0.000 A 
ATOM      6  N   UNL     1      48.354   8.555  14.540  0.00  0.00    +0.000 NA
ENDROOT
BRANCH   1   7
ATOM      7  C   UNL     1      47.643   7.704  12.348  0.00  0.00    +0.000 C 
BRANCH   7  10
ATOM      8  C   UNL     1      45.764   6.499  11.280  0.00  0.00    +0.000 C 
ATOM      9  O   UNL     1      45.032   7.486  11.332  0.00  0.00    +0.000 OA
ATOM     10  N   UNL     1      47.052   6.524  11.754  0.00  0.00    +0.000 N 
ATOM     11  H   UNL     1      47.554   5.646  11.843  0.00  0.00    +0.000 HD
BRANCH   8  17
ATOM     12  C   UNL     1      44.670   4.162  11.319  0.00  0.00    +0.000 A 
ATOM     13  C   UNL     1      44.376   2.979  10.621  0.00  0.00    +0.000 A 
ATOM     14  C   UNL     1      44.667   2.857   9.261  0.00  0.00    +0.000 A 
ATOM     15  C   UNL     1      45.232   3.923   8.572  0.00  0.00    +0.000 A 
ATOM     16  C   UNL     1      45.536   5.102   9.254  0.00  0.00    +0.000 A 
ATOM     17  C   UNL     1      45.279   5.233  10.633  0.00  0.00    +0.000 A 
BRANCH  12  19
ATOM     18  C   UNL     1      43.038   4.864  12.909  0.00  0.00    +0.000 C 
ATOM     19  O   UNL     1      44.335   4.341  12.638  0.00  0.00    +0.000 OA
ENDBRANCH  12  19
ENDBRANCH   8  17
ENDBRANCH   7  10
ENDBRANCH   1   7
BRANCH   4  20
ATOM     20  C   UNL     1      49.012   6.985  17.924  0.00  0.00    +0.000 C 
BRANCH  20  21
ATOM     21  N   UNL     1      49.950   5.913  18.150  0.00  0.00    +0.000 N 
ATOM     22  C   UNL     1      51.280   6.041  17.828  0.00  0.00    +0.000 C 
ATOM     23  O   UNL     1      51.744   7.083  17.373  0.00  0.00    +0.000 OA
ATOM     24  H   UNL     1      49.566   4.981  18.263  0.00  0.00    +0.000 HD
BRANCH  22  25
ATOM     25  C   UNL     1      52.132   4.881  18.120  0.00  0.00    +0.000 A 
ATOM     26  C   UNL     1      53.384   5.067  18.694  0.00  0.00    +0.000 A 
ATOM     27  S   UNL     1      54.211   3.609  19.014  0.00  0.00    +0.000 S 
ATOM     28  C   UNL     1      52.951   2.684  18.346  0.00  0.00    +0.000 A 
ATOM     29  N   UNL     1      53.037   1.323  18.279  0.00  0.00    +0.000 NA
ATOM     30  C   UNL     1      52.025   0.754  17.715  0.00  0.00    +0.000 A 
ATOM     31  N   UNL     1      50.931   1.414  17.221  0.00  0.00    +0.000 N 
ATOM     32  C   UNL     1      50.783   2.779  17.301  0.00  0.00    +0.000 A 
ATOM     33  O   UNL     1      49.768   3.338  16.901  0.00  0.00    +0.000 OA
ATOM     34  C   UNL     1      51.904   3.471  17.907  0.00  0.00    +0.000 A 
ATOM     35  H   UNL     1      50.164   0.908  16.804  0.00  0.00    +0.000 HD
ENDBRANCH  22  25
ENDBRANCH  20  21
ENDBRANCH   4  20
TORSDOF 7
ENDMDL
MODEL 5
REMARK VINA RESULT:    -6.832      3.393      4.513
REMARK INTER + INTRA:         -10.702
REMARK INTER:                 -10.426
REMARK INTRA:                  -0.276
REMARK UNBOUND:                -1.074
REMARK  Name = 
REMARK  8 active torsions:
REMARK  status: ('A' for Active; 'I' for Inactive)
REMARK    1  A    between atoms: C_1  and  O_2
REMARK    2  A    between atoms: O_2  and  C_3
REMARK    3  A    between atoms: C_8  and  C_9
REMARK    4  A    between atoms: N_11  and  C_12
REMARK    5  A    between atoms: C_12  and  C_13
REMARK    6  A    between atoms: C_16  and  C_17
REMARK    7  A    between atoms: C_17  and  N_18
REMARK    8  A    between atoms: C_19  and  C_21
REMARK                            x       y       z     vdW  Elec       q    Type
REMARK                         _______ _______ _______ _____ _____    ______ ____
ROOT
ATOM      1  C   UNL     1      44.880   5.760  11.267  0.00  0.00    +0.000 A 
ATOM      2  C   UNL     1      45.053   7.141  11.351  0.00  0.00    +0.000 A 
ATOM      3  C   UNL     1      46.010   7.655  12.229  0.00  0.00    +0.000 A 
ATOM      4  C   UNL     1      46.792   6.785  12.992  0.00  0.00    +0.000 A 
ATOM      5  C   UNL     1      46.547   5.424  12.842  0.00  0.00    +0.000 A 
ATOM      6  N   UNL     1      45.630   4.896  11.997  0.00  0.00    +0.000 NA
ENDROOT
BRANCH   1   7
ATOM      7  C   UNL     1      43.868   5.170  10.306  0.00  0.00    +0.000 C 
BRANCH   7  10
ATOM      8  C   UNL     1      45.547   4.480   8.625  0.00  0.00    +0.000 C 
ATOM      9  O   UNL     1      46.061   5.597   8.601  0.00  0.00    +0.000 OA
ATOM     10  N   UNL     1      44.473   4.191   9.430  0.00  0.00    +0.000 N 
ATOM     11  H   UNL     1      43.983   3.313   9.289  0.00  0.00    +0.000 HD
BRANCH   8  17
ATOM     12  C   UNL     1      46.158   2.011   8.190  0.00  0.00    +0.000 A 
ATOM     13  C   UNL     1      46.841   1.083   7.387  0.00  0.00    +0.000 A 
ATOM     14  C   UNL     1      47.474   1.481   6.208  0.00  0.00    +0.000 A 
ATOM     15  C   UNL     1      47.413   2.808   5.800  0.00  0.00    +0.000 A 
ATOM     16  C   UNL     1      46.744   3.742   6.591  0.00  0.00    +0.000 A 
ATOM     17  C   UNL     1      46.126   3.365   7.800  0.00  0.00    +0.000 A 
BRANCH  12  19
ATOM     18  C   UNL     1      44.157   1.116   9.128  0.00  0.00    +0.000 C 
ATOM     19  O   UNL     1      45.467   1.642   9.316  0.00  0.00    +0.000 OA
ENDBRANCH  12  19
ENDBRANCH   8  17
ENDBRANCH   7  10
ENDBRANCH   1   7
BRANCH   4  20
ATOM     20  C   UNL     1      47.839   7.270  13.955  0.00  0.00    +0.000 C 
BRANCH  20  21
ATOM     21  N   UNL     1      47.846   6.495  15.171  0.00  0.00    +0.000 N 
ATOM     22  C   UNL     1      49.019   6.154  15.800  0.00  0.00    +0.000 C 
ATOM     23  O   UNL     1      50.114   6.525  15.384  0.00  0.00    +0.000 OA
ATOM     24  H   UNL     1      47.010   5.960  15.381  0.00  0.00    +0.000 HD
BRANCH  22  25
ATOM     25  C   UNL     1      48.889   5.373  17.037  0.00  0.00    +0.000 A 
ATOM     26  C   UNL     1      48.574   4.022  16.975  0.00  0.00    +0.000 A 
ATOM     27  S   UNL     1      48.519   3.262  18.502  0.00  0.00    +0.000 S 
ATOM     28  C   UNL     1      48.858   4.723  19.301  0.00  0.00    +0.000 A 
ATOM     29  N   UNL     1      48.926   4.780  20.663  0.00  0.00    +0.000 NA
ATOM     30  C   UNL     1      49.155   5.959  21.136  0.00  0.00    +0.000 A 
ATOM     31  N   UNL     1      49.332   7.086  20.376  0.00  0.00    +0.000 N 
ATOM     32  C   UNL     1      49.310   7.070  19.001  0.00  0.00    +0.000 A 
ATOM     33  O   UNL     1      49.528   8.083  18.345  0.00  0.00    +0.000 OA
ATOM     34  C   UNL     1      49.034   5.771  18.418  0.00  0.00    +0.000 A 
ATOM     35  H   UNL     1      49.523   7.977  20.807  0.00  0.00    +0.000 HD
ENDBRANCH  22  25
ENDBRANCH  20  21
ENDBRANCH   4  20
TORSDOF 7
ENDMDL
MODEL 6
REMARK VINA RESULT:    -6.716      3.443      5.434
REMARK INTER + INTRA:         -10.538
REMARK INTER:                  -9.391
REMARK INTRA:                  -1.147
REMARK UNBOUND:                -1.074
REMARK  Name = 
REMARK  8 active torsions:
REMARK  status: ('A' for Active; 'I' for Inactive)
REMARK    1  A    between atoms: C_1  and  O_2
REMARK    2  A    between atoms: O_2  and  C_3
REMARK    3  A    between atoms: C_8  and  C_9
REMARK    4  A    between atoms: N_11  and  C_12
REMARK    5  A    between atoms: C_12  and  C_13
REMARK    6  A    between atoms: C_16  and  C_17
REMARK    7  A    between atoms: C_17  and  N_18
REMARK    8  A    between atoms: C_19  and  C_21
REMARK                            x       y       z     vdW  Elec       q    Type
REMARK                         _______ _______ _______ _____ _____    ______ ____
ROOT
ATOM      1  C   UNL     1      48.723   3.336  17.197  0.00  0.00    +0.000 A 
ATOM      2  C   UNL     1      49.438   4.294  17.915  0.00  0.00    +0.000 A 
ATOM      3  C   UNL     1      50.792   4.075  18.182  0.00  0.00    +0.000 A 
ATOM      4  C   UNL     1      51.414   2.916  17.714  0.00  0.00    +0.000 A 
ATOM      5  C   UNL     1      50.621   2.017  17.010  0.00  0.00    +0.000 A 
ATOM      6  N   UNL     1      49.309   2.203  16.731  0.00  0.00    +0.000 NA
ENDROOT
BRANCH   1   7
ATOM      7  C   UNL     1      47.261   3.555  16.870  0.00  0.00    +0.000 C 
BRANCH   7  10
ATOM      8  C   UNL     1      47.059   4.324  14.527  0.00  0.00    +0.000 C 
ATOM      9  O   UNL     1      47.179   3.183  14.085  0.00  0.00    +0.000 OA
ATOM     10  N   UNL     1      47.089   4.589  15.873  0.00  0.00    +0.000 N 
ATOM     11  H   UNL     1      47.155   5.556  16.176  0.00  0.00    +0.000 HD
BRANCH   8  17
ATOM     12  C   UNL     1      47.735   6.512  13.335  0.00  0.00    +0.000 A 
ATOM     13  C   UNL     1      47.340   7.597  12.537  0.00  0.00    +0.000 A 
ATOM     14  C   UNL     1      46.059   7.655  11.986  0.00  0.00    +0.000 A 
ATOM     15  C   UNL     1      45.162   6.616  12.202  0.00  0.00    +0.000 A 
ATOM     16  C   UNL     1      45.538   5.534  12.999  0.00  0.00    +0.000 A 
ATOM     17  C   UNL     1      46.816   5.474  13.590  0.00  0.00    +0.000 A 
BRANCH  12  19
ATOM     18  C   UNL     1      49.381   7.285  14.878  0.00  0.00    +0.000 C 
ATOM     19  O   UNL     1      49.008   6.390  13.835  0.00  0.00    +0.000 OA
ENDBRANCH  12  19
ENDBRANCH   8  17
ENDBRANCH   7  10
ENDBRANCH   1   7
BRANCH   4  20
ATOM     20  C   UNL     1      52.866   2.618  17.966  0.00  0.00    +0.000 C 
BRANCH  20  21
ATOM     21  N   UNL     1      53.206   1.268  17.591  0.00  0.00    +0.000 N 
ATOM     22  C   UNL     1      54.451   0.744  17.841  0.00  0.00    +0.000 C 
ATOM     23  O   UNL     1      55.321   1.381  18.431  0.00  0.00    +0.000 OA
ATOM     24  H   UNL     1      52.627   0.826  16.885  0.00  0.00    +0.000 HD
BRANCH  22  25
ATOM     25  C   UNL     1      54.667  -0.647  17.421  0.00  0.00    +0.000 A 
ATOM     26  C   UNL     1      54.858  -0.944  16.078  0.00  0.00    +0.000 A 
ATOM     27  S   UNL     1      55.149  -2.599  15.779  0.00  0.00    +0.000 S 
ATOM     28  C   UNL     1      54.973  -2.983  17.426  0.00  0.00    +0.000 A 
ATOM     29  N   UNL     1      55.076  -4.272  17.862  0.00  0.00    +0.000 NA
ATOM     30  C   UNL     1      54.885  -4.421  19.130  0.00  0.00    +0.000 A 
ATOM     31  N   UNL     1      54.610  -3.403  20.005  0.00  0.00    +0.000 N 
ATOM     32  C   UNL     1      54.534  -2.085  19.618  0.00  0.00    +0.000 A 
ATOM     33  O   UNL     1      54.343  -1.188  20.432  0.00  0.00    +0.000 OA
ATOM     34  C   UNL     1      54.720  -1.864  18.197  0.00  0.00    +0.000 A 
ATOM     35  H   UNL     1      54.486  -3.584  20.990  0.00  0.00    +0.000 HD
ENDBRANCH  22  25
ENDBRANCH  20  21
ENDBRANCH   4  20
TORSDOF 7
ENDMDL
MODEL 7
REMARK VINA RESULT:    -6.687      2.933      4.834
REMARK INTER + INTRA:         -10.497
REMARK INTER:                  -9.368
REMARK INTRA:                  -1.129
REMARK UNBOUND:                -1.074
REMARK  Name = 
REMARK  8 active torsions:
REMARK  status: ('A' for Active; 'I' for Inactive)
REMARK    1  A    between atoms: C_1  and  O_2
REMARK    2  A    between atoms: O_2  and  C_3
REMARK    3  A    between atoms: C_8  and  C_9
REMARK    4  A    between atoms: N_11  and  C_12
REMARK    5  A    between atoms: C_12  and  C_13
REMARK    6  A    between atoms: C_16  and  C_17
REMARK    7  A    between atoms: C_17  and  N_18
REMARK    8  A    between atoms: C_19  and  C_21
REMARK                            x       y       z     vdW  Elec       q    Type
REMARK                         _______ _______ _______ _____ _____    ______ ____
ROOT
ATOM      1  C   UNL     1      48.839   3.414  17.305  0.00  0.00    +0.000 A 
ATOM      2  C   UNL     1      49.422   4.521  17.921  0.00  0.00    +0.000 A 
ATOM      3  C   UNL     1      50.800   4.522  18.157  0.00  0.00    +0.000 A 
ATOM      4  C   UNL     1      51.574   3.432  17.757  0.00  0.00    +0.000 A 
ATOM      5  C   UNL     1      50.905   2.373  17.153  0.00  0.00    +0.000 A 
ATOM      6  N   UNL     1      49.573   2.345  16.907  0.00  0.00    +0.000 NA
ENDROOT
BRANCH   1   7
ATOM      7  C   UNL     1      47.354   3.393  17.013  0.00  0.00    +0.000 C 
BRANCH   7  10
ATOM      8  C   UNL     1      47.038   4.144  14.676  0.00  0.00    +0.000 C 
ATOM      9  O   UNL     1      47.396   3.058  14.223  0.00  0.00    +0.000 OA
ATOM     10  N   UNL     1      46.990   4.387  16.026  0.00  0.00    +0.000 N 
ATOM     11  H   UNL     1      46.854   5.342  16.343  0.00  0.00    +0.000 HD
BRANCH   8  17
ATOM     12  C   UNL     1      45.314   5.289  13.134  0.00  0.00    +0.000 A 
ATOM     13  C   UNL     1      45.054   6.293  12.188  0.00  0.00    +0.000 A 
ATOM     14  C   UNL     1      46.025   7.242  11.862  0.00  0.00    +0.000 A 
ATOM     15  C   UNL     1      47.262   7.216  12.494  0.00  0.00    +0.000 A 
ATOM     16  C   UNL     1      47.537   6.220  13.430  0.00  0.00    +0.000 A 
ATOM     17  C   UNL     1      46.582   5.235  13.750  0.00  0.00    +0.000 A 
BRANCH  12  19
ATOM     18  C   UNL     1      43.036   4.591  13.051  0.00  0.00    +0.000 C 
ATOM     19  O   UNL     1      44.361   4.384  13.530  0.00  0.00    +0.000 OA
ENDBRANCH  12  19
ENDBRANCH   8  17
ENDBRANCH   7  10
ENDBRANCH   1   7
BRANCH   4  20
ATOM     20  C   UNL     1      53.059   3.368  17.980  0.00  0.00    +0.000 C 
BRANCH  20  21
ATOM     21  N   UNL     1      53.480   2.054  18.398  0.00  0.00    +0.000 N 
ATOM     22  C   UNL     1      54.769   1.806  18.804  0.00  0.00    +0.000 C 
ATOM     23  O   UNL     1      55.615   2.695  18.870  0.00  0.00    +0.000 OA
ATOM     24  H   UNL     1      52.905   1.270  18.105  0.00  0.00    +0.000 HD
BRANCH  22  25
ATOM     25  C   UNL     1      55.066   0.429  19.217  0.00  0.00    +0.000 A 
ATOM     26  C   UNL     1      55.533   0.174  20.501  0.00  0.00    +0.000 A 
ATOM     27  S   UNL     1      55.771  -1.484  20.826  0.00  0.00    +0.000 S 
ATOM     28  C   UNL     1      55.313  -1.914  19.246  0.00  0.00    +0.000 A 
ATOM     29  N   UNL     1      55.323  -3.218  18.842  0.00  0.00    +0.000 NA
ATOM     30  C   UNL     1      54.987  -3.395  17.608  0.00  0.00    +0.000 A 
ATOM     31  N   UNL     1      54.632  -2.393  16.742  0.00  0.00    +0.000 N 
ATOM     32  C   UNL     1      54.571  -1.071  17.115  0.00  0.00    +0.000 A 
ATOM     33  O   UNL     1      54.196  -0.202  16.335  0.00  0.00    +0.000 OA
ATOM     34  C   UNL     1      54.961  -0.814  18.488  0.00  0.00    +0.000 A 
ATOM     35  H   UNL     1      54.365  -2.600  15.792  0.00  0.00    +0.000 HD
ENDBRANCH  22  25
ENDBRANCH  20  21
ENDBRANCH   4  20
TORSDOF 7
ENDMDL
MODEL 8
REMARK VINA RESULT:    -6.622      3.030      4.303
REMARK INTER + INTRA:         -10.405
REMARK INTER:                  -9.547
REMARK INTRA:                  -0.858
REMARK UNBOUND:                -1.074
REMARK  Name = 
REMARK  8 active torsions:
REMARK  status: ('A' for Active; 'I' for Inactive)
REMARK    1  A    between atoms: C_1  and  O_2
REMARK    2  A    between atoms: O_2  and  C_3
REMARK    3  A    between atoms: C_8  and  C_9
REMARK    4  A    between atoms: N_11  and  C_12
REMARK    5  A    between atoms: C_12  and  C_13
REMARK    6  A    between atoms: C_16  and  C_17
REMARK    7  A    between atoms: C_17  and  N_18
REMARK    8  A    between atoms: C_19  and  C_21
REMARK                            x       y       z     vdW  Elec       q    Type
REMARK                         _______ _______ _______ _____ _____    ______ ____
ROOT
ATOM      1  C   UNL     1      46.325   7.904  12.138  0.00  0.00    +0.000 A 
ATOM      2  C   UNL     1      47.593   7.511  11.713  0.00  0.00    +0.000 A 
ATOM      3  C   UNL     1      48.711   7.899  12.456  0.00  0.00    +0.000 A 
ATOM      4  C   UNL     1      48.545   8.654  13.619  0.00  0.00    +0.000 A 
ATOM      5  C   UNL     1      47.243   9.001  13.962  0.00  0.00    +0.000 A 
ATOM      6  N   UNL     1      46.141   8.636  13.266  0.00  0.00    +0.000 NA
ENDROOT
BRANCH   1   7
ATOM      7  C   UNL     1      45.092   7.479  11.369  0.00  0.00    +0.000 C 
BRANCH   7  10
ATOM      8  C   UNL     1      44.265   5.376  10.361  0.00  0.00    +0.000 C 
ATOM      9  O   UNL     1      43.096   5.643  10.630  0.00  0.00    +0.000 OA
ATOM     10  N   UNL     1      45.298   6.219  10.688  0.00  0.00    +0.000 N 
ATOM     11  H   UNL     1      46.250   5.878  10.598  0.00  0.00    +0.000 HD
BRANCH   8  17
ATOM     12  C   UNL     1      44.177   2.826   9.969  0.00  0.00    +0.000 A 
ATOM     13  C   UNL     1      44.659   1.720   9.251  0.00  0.00    +0.000 A 
ATOM     14  C   UNL     1      45.534   1.888   8.176  0.00  0.00    +0.000 A 
ATOM     15  C   UNL     1      45.921   3.164   7.787  0.00  0.00    +0.000 A 
ATOM     16  C   UNL     1      45.456   4.272   8.497  0.00  0.00    +0.000 A 
ATOM     17  C   UNL     1      44.597   4.121   9.603  0.00  0.00    +0.000 A 
BRANCH  12  19
ATOM     18  C   UNL     1      43.770   2.696  12.315  0.00  0.00    +0.000 C 
ATOM     19  O   UNL     1      43.262   2.702  10.985  0.00  0.00    +0.000 OA
ENDBRANCH  12  19
ENDBRANCH   8  17
ENDBRANCH   7  10
ENDBRANCH   1   7
BRANCH   4  20
ATOM     20  C   UNL     1      49.703   9.105  14.464  0.00  0.00    +0.000 C 
BRANCH  20  21
ATOM     21  N   UNL     1      49.809   8.335  15.679  0.00  0.00    +0.000 N 
ATOM     22  C   UNL     1      50.906   7.550  15.939  0.00  0.00    +0.000 C 
ATOM     23  O   UNL     1      51.866   7.494  15.175  0.00  0.00    +0.000 OA
ATOM     24  H   UNL     1      48.949   8.149  16.183  0.00  0.00    +0.000 HD
BRANCH  22  25
ATOM     25  C   UNL     1      50.897   6.826  17.218  0.00  0.00    +0.000 A 
ATOM     26  C   UNL     1      51.867   7.095  18.175  0.00  0.00    +0.000 A 
ATOM     27  S   UNL     1      51.670   6.204  19.617  0.00  0.00    +0.000 S 
ATOM     28  C   UNL     1      50.316   5.388  18.992  0.00  0.00    +0.000 A 
ATOM     29  N   UNL     1      49.667   4.438  19.726  0.00  0.00    +0.000 NA
ATOM     30  C   UNL     1      48.680   3.876  19.113  0.00  0.00    +0.000 A 
ATOM     31  N   UNL     1      48.274   4.179  17.840  0.00  0.00    +0.000 N 
ATOM     32  C   UNL     1      48.872   5.155  17.078  0.00  0.00    +0.000 A 
ATOM     33  O   UNL     1      48.452   5.445  15.963  0.00  0.00    +0.000 OA
ATOM     34  C   UNL     1      50.003   5.805  17.711  0.00  0.00    +0.000 A 
ATOM     35  H   UNL     1      47.483   3.712  17.423  0.00  0.00    +0.000 HD
ENDBRANCH  22  25
ENDBRANCH  20  21
ENDBRANCH   4  20
TORSDOF 7
ENDMDL
MODEL 9
REMARK VINA RESULT:    -6.475      5.846      9.659
REMARK INTER + INTRA:         -10.199
REMARK INTER:                  -8.920
REMARK INTRA:                  -1.279
REMARK UNBOUND:                -1.074
REMARK  Name = 
REMARK  8 active torsions:
REMARK  status: ('A' for Active; 'I' for Inactive)
REMARK    1  A    between atoms: C_1  and  O_2
REMARK    2  A    between atoms: O_2  and  C_3
REMARK    3  A    between atoms: C_8  and  C_9
REMARK    4  A    between atoms: N_11  and  C_12
REMARK    5  A    between atoms: C_12  and  C_13
REMARK    6  A    between atoms: C_16  and  C_17
REMARK    7  A    between atoms: C_17  and  N_18
REMARK    8  A    between atoms: C_19  and  C_21
REMARK                            x       y       z     vdW  Elec       q    Type
REMARK                         _______ _______ _______ _____ _____    ______ ____
ROOT
ATOM      1  C   UNL     1      50.848   8.729  11.437  0.00  0.00    +0.000 A 
ATOM      2  C   UNL     1      50.371   7.470  11.796  0.00  0.00    +0.000 A 
ATOM      3  C   UNL     1      49.007   7.306  12.052  0.00  0.00    +0.000 A 
ATOM      4  C   UNL     1      48.141   8.393  11.926  0.00  0.00    +0.000 A 
ATOM      5  C   UNL     1      48.708   9.610  11.567  0.00  0.00    +0.000 A 
ATOM      6  N   UNL     1      50.024   9.799  11.308  0.00  0.00    +0.000 NA
ENDROOT
BRANCH   1   7
ATOM      7  C   UNL     1      52.316   8.934  11.130  0.00  0.00    +0.000 C 
BRANCH   7  10
ATOM      8  C   UNL     1      53.070   7.630   9.167  0.00  0.00    +0.000 C 
ATOM      9  O   UNL     1      52.729   8.513   8.382  0.00  0.00    +0.000 OA
ATOM     10  N   UNL     1      52.902   7.759  10.523  0.00  0.00    +0.000 N 
ATOM     11  H   UNL     1      53.041   6.942  11.109  0.00  0.00    +0.000 HD
BRANCH   8  17
ATOM     12  C   UNL     1      54.838   5.753   9.281  0.00  0.00    +0.000 A 
ATOM     13  C   UNL     1      55.460   4.671   8.638  0.00  0.00    +0.000 A 
ATOM     14  C   UNL     1      55.003   4.210   7.403  0.00  0.00    +0.000 A 
ATOM     15  C   UNL     1      53.901   4.806   6.803  0.00  0.00    +0.000 A 
ATOM     16  C   UNL     1      53.277   5.887   7.426  0.00  0.00    +0.000 A 
ATOM     17  C   UNL     1      53.744   6.387   8.658  0.00  0.00    +0.000 A 
BRANCH  12  19
ATOM     18  C   UNL     1      55.527   5.188  11.493  0.00  0.00    +0.000 C 
ATOM     19  O   UNL     1      55.218   6.187  10.527  0.00  0.00    +0.000 OA
ENDBRANCH  12  19
ENDBRANCH   8  17
ENDBRANCH   7  10
ENDBRANCH   1   7
BRANCH   4  20
ATOM     20  C   UNL     1      46.664   8.286  12.186  0.00  0.00    +0.000 C 
BRANCH  20  21
ATOM     21  N   UNL     1      46.179   6.947  11.965  0.00  0.00    +0.000 N 
ATOM     22  C   UNL     1      44.887   6.707  11.563  0.00  0.00    +0.000 C 
ATOM     23  O   UNL     1      44.094   7.617  11.334  0.00  0.00    +0.000 OA
ATOM     24  H   UNL     1      46.702   6.190  12.393  0.00  0.00    +0.000 HD
BRANCH  22  25
ATOM     25  C   UNL     1      44.521   5.299  11.360  0.00  0.00    +0.000 A 
ATOM     26  C   UNL     1      43.735   4.643  12.299  0.00  0.00    +0.000 A 
ATOM     27  S   UNL     1      43.363   3.033  11.874  0.00  0.00    +0.000 S 
ATOM     28  C   UNL     1      44.285   3.138  10.450  0.00  0.00    +0.000 A 
ATOM     29  N   UNL     1      44.413   2.066   9.615  0.00  0.00    +0.000 NA
ATOM     30  C   UNL     1      45.170   2.278   8.591  0.00  0.00    +0.000 A 
ATOM     31  N   UNL     1      45.804   3.462   8.318  0.00  0.00    +0.000 N 
ATOM     32  C   UNL     1      45.674   4.579   9.109  0.00  0.00    +0.000 A 
ATOM     33  O   UNL     1      46.207   5.642   8.810  0.00  0.00    +0.000 OA
ATOM     34  C   UNL     1      44.849   4.389  10.287  0.00  0.00    +0.000 A 
ATOM     35  H   UNL     1      46.372   3.567   7.491  0.00  0.00    +0.000 HD
ENDBRANCH  22  25
ENDBRANCH  20  21
ENDBRANCH   4  20
TORSDOF 7
ENDMDL
