MODEL 1
REMARK VINA RESULT:    -7.746      0.000      0.000
REMARK INTER + INTRA:         -11.462
REMARK INTER:                 -10.463
REMARK INTRA:                  -0.999
REMARK UNBOUND:                -0.999
REMARK  Name = 
REMARK  7 active torsions:
REMARK  status: ('A' for Active; 'I' for Inactive)
REMARK    1  A    between atoms: C_1  and  C_2
REMARK    2  A    between atoms: C_2  and  N_3
REMARK    3  A    between atoms: C_2  and  C_16
REMARK    4  A    between atoms: C_4  and  C_6
REMARK    5  A    between atoms: C_19  and  C_20
REMARK    6  A    between atoms: C_20  and  N_21
REMARK    7  A    between atoms: C_22  and  C_24
REMARK                            x       y       z     vdW  Elec       q    Type
REMARK                         _______ _______ _______ _____ _____    ______ ____
ROOT
ATOM      1  C   UNL     1      47.179   9.219  13.437  0.00  0.00    +0.000 C 
ATOM      2  C   UNL     1      47.631   7.753  13.513  0.00  0.00    +0.000 C 
ENDROOT
BRANCH   2   3
ATOM      3  C   UNL     1      46.596   6.849  12.854  0.00  0.00    +0.000 A 
ATOM      4  C   UNL     1      46.634   5.460  13.051  0.00  0.00    +0.000 A 
ATOM      5  C   UNL     1      45.731   4.618  12.388  0.00  0.00    +0.000 A 
ATOM      6  C   UNL     1      44.776   5.145  11.508  0.00  0.00    +0.000 A 
ATOM      7  C   UNL     1      44.693   6.534  11.361  0.00  0.00    +0.000 A 
ATOM      8  C   UNL     1      45.594   7.375  12.023  0.00  0.00    +0.000 A 
BRANCH   6   9
ATOM      9  C   UNL     1      43.864   4.238  10.720  0.00  0.00    +0.000 C 
BRANCH   9  10
ATOM     10  N   UNL     1      44.596   3.273   9.944  0.00  0.00    +0.000 N 
ATOM     11  C   UNL     1      45.253   3.631   8.783  0.00  0.00    +0.000 C 
ATOM     12  O   UNL     1      45.235   4.787   8.366  0.00  0.00    +0.000 OA
ATOM     13  H   UNL     1      44.697   2.328  10.290  0.00  0.00    +0.000 HD
BRANCH  11  14
ATOM     14  C   UNL     1      45.962   2.551   8.101  0.00  0.00    +0.000 A 
ATOM     15  C   UNL     1      45.863   1.195   8.365  0.00  0.00    +0.000 A 
ATOM     16  C   UNL     1      46.705   0.408   7.524  0.00  0.00    +0.000 A 
ATOM     17  C   UNL     1      47.424   1.185   6.646  0.00  0.00    +0.000 A 
ATOM     18  S   UNL     1      47.077   2.848   6.830  0.00  0.00    +0.000 S 
ENDBRANCH  11  14
ENDBRANCH   9  10
ENDBRANCH   6   9
ENDBRANCH   2   3
BRANCH   2  19
ATOM     19  N   UNL     1      47.869   7.316  14.879  0.00  0.00    +0.000 N 
ATOM     20  C   UNL     1      49.120   6.992  15.347  0.00  0.00    +0.000 C 
ATOM     21  O   UNL     1      50.134   7.103  14.666  0.00  0.00    +0.000 OA
ATOM     22  H   UNL     1      47.068   6.925  15.365  0.00  0.00    +0.000 HD
BRANCH  20  23
ATOM     23  C   UNL     1      49.198   6.561  16.747  0.00  0.00    +0.000 A 
ATOM     24  C   UNL     1      49.756   7.406  17.696  0.00  0.00    +0.000 A 
ATOM     25  S   UNL     1      49.767   6.750  19.270  0.00  0.00    +0.000 S 
ATOM     26  C   UNL     1      49.066   5.298  18.727  0.00  0.00    +0.000 A 
ATOM     27  N   UNL     1      48.837   4.267  19.585  0.00  0.00    +0.000 NA
ATOM     28  C   UNL     1      48.336   3.214  19.030  0.00  0.00    +0.000 A 
ATOM     29  N   UNL     1      48.029   3.103  17.698  0.00  0.00    +0.000 N 
ATOM     30  C   UNL     1      48.201   4.133  16.804  0.00  0.00    +0.000 A 
ATOM     31  O   UNL     1      47.850   4.031  15.634  0.00  0.00    +0.000 OA
ATOM     32  C   UNL     1      48.796   5.326  17.371  0.00  0.00    +0.000 A 
ATOM     33  H   UNL     1      47.620   2.257  17.331  0.00  0.00    +0.000 HD
ENDBRANCH  20  23
ENDBRANCH   2  19
TORSDOF 6
ENDMDL
MODEL 2
REMARK VINA RESULT:    -7.609      1.718      2.269
REMARK INTER + INTRA:         -11.277
REMARK INTER:                 -10.149
REMARK INTRA:                  -1.128
REMARK UNBOUND:                -0.999
REMARK  Name = 
REMARK  7 active torsions:
REMARK  status: ('A' for Active; 'I' for Inactive)
REMARK    1  A    between atoms: C_1  and  C_2
REMARK    2  A    between atoms: C_2  and  N_3
REMARK    3  A    between atoms: C_2  and  C_16
REMARK    4  A    between atoms: C_4  and  C_6
REMARK    5  A    between atoms: C_19  and  C_20
REMARK    6  A    between atoms: C_20  and  N_21
REMARK    7  A    between atoms: C_22  and  C_24
REMARK                            x       y       z     vdW  Elec       q    Type
REMARK                         _______ _______ _______ _____ _____    ______ ____
ROOT
ATOM      1  C   UNL     1      47.897   9.057  13.581  0.00  0.00    +0.000 C 
ATOM      2  C   UNL     1      48.008   7.544  13.817  0.00  0.00    +0.000 C 
ENDROOT
BRANCH   2   3
ATOM      3  C   UNL     1      46.915   6.810  13.047  0.00  0.00    +0.000 A 
ATOM      4  C   UNL     1      46.775   5.419  13.160  0.00  0.00    +0.000 A 
ATOM      5  C   UNL     1      45.821   4.731  12.399  0.00  0.00    +0.000 A 
ATOM      6  C   UNL     1      44.991   5.417  11.502  0.00  0.00    +0.000 A 
ATOM      7  C   UNL     1      45.084   6.813  11.437  0.00  0.00    +0.000 A 
ATOM      8  C   UNL     1      46.035   7.499  12.197  0.00  0.00    +0.000 A 
BRANCH   6   9
ATOM      9  C   UNL     1      44.028   4.674  10.612  0.00  0.00    +0.000 C 
BRANCH   9  10
ATOM     10  N   UNL     1      44.677   3.636   9.856  0.00  0.00    +0.000 N 
ATOM     11  C   UNL     1      45.443   3.927   8.744  0.00  0.00    +0.000 C 
ATOM     12  O   UNL     1      45.597   5.082   8.354  0.00  0.00    +0.000 OA
ATOM     13  H   UNL     1      44.637   2.680  10.184  0.00  0.00    +0.000 HD
BRANCH  11  14
ATOM     14  C   UNL     1      46.050   2.777   8.078  0.00  0.00    +0.000 A 
ATOM     15  C   UNL     1      45.958   1.450   8.462  0.00  0.00    +0.000 A 
ATOM     16  C   UNL     1      46.683   0.575   7.600  0.00  0.00    +0.000 A 
ATOM     17  C   UNL     1      47.311   1.260   6.585  0.00  0.00    +0.000 A 
ATOM     18  S   UNL     1      47.017   2.941   6.669  0.00  0.00    +0.000 S 
ENDBRANCH  11  14
ENDBRANCH   9  10
ENDBRANCH   6   9
ENDBRANCH   2   3
BRANCH   2  19
ATOM     19  N   UNL     1      47.938   7.194  15.226  0.00  0.00    +0.000 N 
ATOM     20  C   UNL     1      49.004   6.663  15.912  0.00  0.00    +0.000 C 
ATOM     21  O   UNL     1      50.108   6.499  15.403  0.00  0.00    +0.000 OA
ATOM     22  H   UNL     1      47.008   7.024  15.595  0.00  0.00    +0.000 HD
BRANCH  20  23
ATOM     23  C   UNL     1      48.776   6.357  17.328  0.00  0.00    +0.000 A 
ATOM     24  C   UNL     1      49.035   5.079  17.805  0.00  0.00    +0.000 A 
ATOM     25  S   UNL     1      48.718   4.896  19.471  0.00  0.00    +0.000 S 
ATOM     26  C   UNL     1      48.184   6.507  19.601  0.00  0.00    +0.000 A 
ATOM     27  N   UNL     1      47.721   6.999  20.782  0.00  0.00    +0.000 NA
ATOM     28  C   UNL     1      47.315   8.223  20.726  0.00  0.00    +0.000 A 
ATOM     29  N   UNL     1      47.343   9.006  19.600  0.00  0.00    +0.000 N 
ATOM     30  C   UNL     1      47.843   8.566  18.398  0.00  0.00    +0.000 A 
ATOM     31  O   UNL     1      47.924   9.310  17.426  0.00  0.00    +0.000 OA
ATOM     32  C   UNL     1      48.279   7.184  18.399  0.00  0.00    +0.000 A 
ATOM     33  H   UNL     1      47.028   9.964  19.629  0.00  0.00    +0.000 HD
ENDBRANCH  20  23
ENDBRANCH   2  19
TORSDOF 6
ENDMDL
MODEL 3
REMARK VINA RESULT:    -7.138      3.084      8.440
REMARK INTER + INTRA:         -10.641
REMARK INTER:                  -9.530
REMARK INTRA:                  -1.111
REMARK UNBOUND:                -0.999
REMARK  Name = 
REMARK  7 active torsions:
REMARK  status: ('A' for Active; 'I' for Inactive)
REMARK    1  A    between atoms: C_1  and  C_2
REMARK    2  A    between atoms: C_2  and  N_3
REMARK    3  A    between atoms: C_2  and  C_16
REMARK    4  A    between atoms: C_4  and  C_6
REMARK    5  A    between atoms: C_19  and  C_20
REMARK    6  A    between atoms: C_20  and  N_21
REMARK    7  A    between atoms: C_22  and  C_24
REMARK                            x       y       z     vdW  Elec       q    Type
REMARK                         _______ _______ _______ _____ _____    ______ ____
ROOT
ATOM      1  C   UNL     1      49.335   7.488  13.114  0.00  0.00    +0.000 C 
ATOM      2  C   UNL     1      48.026   6.937  13.698  0.00  0.00    +0.000 C 
ENDROOT
BRANCH   2   3
ATOM      3  C   UNL     1      48.302   6.201  15.004  0.00  0.00    +0.000 A 
ATOM      4  C   UNL     1      49.335   6.621  15.855  0.00  0.00    +0.000 A 
ATOM      5  C   UNL     1      49.641   5.903  17.019  0.00  0.00    +0.000 A 
ATOM      6  C   UNL     1      48.925   4.746  17.355  0.00  0.00    +0.000 A 
ATOM      7  C   UNL     1      47.851   4.364  16.543  0.00  0.00    +0.000 A 
ATOM      8  C   UNL     1      47.546   5.080  15.382  0.00  0.00    +0.000 A 
BRANCH   6   9
ATOM      9  C   UNL     1      49.309   3.917  18.554  0.00  0.00    +0.000 C 
BRANCH   9  10
ATOM     10  N   UNL     1      50.663   3.438  18.472  0.00  0.00    +0.000 N 
ATOM     11  C   UNL     1      50.996   2.349  17.690  0.00  0.00    +0.000 C 
ATOM     12  O   UNL     1      50.148   1.746  17.036  0.00  0.00    +0.000 OA
ATOM     13  H   UNL     1      51.403   3.950  18.936  0.00  0.00    +0.000 HD
BRANCH  11  14
ATOM     14  C   UNL     1      52.408   1.977  17.695  0.00  0.00    +0.000 A 
ATOM     15  C   UNL     1      52.941   0.734  17.400  0.00  0.00    +0.000 A 
ATOM     16  C   UNL     1      54.363   0.702  17.516  0.00  0.00    +0.000 A 
ATOM     17  C   UNL     1      54.873   1.921  17.898  0.00  0.00    +0.000 A 
ATOM     18  S   UNL     1      53.647   3.092  18.105  0.00  0.00    +0.000 S 
ENDBRANCH  11  14
ENDBRANCH   9  10
ENDBRANCH   6   9
ENDBRANCH   2   3
BRANCH   2  19
ATOM     19  N   UNL     1      47.333   6.057  12.773  0.00  0.00    +0.000 N 
ATOM     20  C   UNL     1      46.352   6.501  11.919  0.00  0.00    +0.000 C 
ATOM     21  O   UNL     1      46.029   7.682  11.834  0.00  0.00    +0.000 OA
ATOM     22  H   UNL     1      47.339   5.070  13.011  0.00  0.00    +0.000 HD
BRANCH  20  23
ATOM     23  C   UNL     1      45.741   5.490  11.049  0.00  0.00    +0.000 A 
ATOM     24  C   UNL     1      45.858   5.608   9.671  0.00  0.00    +0.000 A 
ATOM     25  S   UNL     1      45.091   4.349   8.813  0.00  0.00    +0.000 S 
ATOM     26  C   UNL     1      44.541   3.630  10.253  0.00  0.00    +0.000 A 
ATOM     27  N   UNL     1      43.768   2.510  10.226  0.00  0.00    +0.000 NA
ATOM     28  C   UNL     1      43.392   2.095  11.390  0.00  0.00    +0.000 A 
ATOM     29  N   UNL     1      43.731   2.688  12.579  0.00  0.00    +0.000 N 
ATOM     30  C   UNL     1      44.546   3.792  12.657  0.00  0.00    +0.000 A 
ATOM     31  O   UNL     1      44.893   4.258  13.737  0.00  0.00    +0.000 OA
ATOM     32  C   UNL     1      44.965   4.320  11.374  0.00  0.00    +0.000 A 
ATOM     33  H   UNL     1      43.420   2.300  13.457  0.00  0.00    +0.000 HD
ENDBRANCH  20  23
ENDBRANCH   2  19
TORSDOF 6
ENDMDL
MODEL 4
REMARK VINA RESULT:    -7.051      3.524      4.693
REMARK INTER + INTRA:         -10.522
REMARK INTER:                  -9.478
REMARK INTRA:                  -1.045
REMARK UNBOUND:                -0.999
REMARK  Name = 
REMARK  7 active torsions:
REMARK  status: ('A' for Active; 'I' for Inactive)
REMARK    1  A    between atoms: C_1  and  C_2
REMARK    2  A    between atoms: C_2  and  N_3
REMARK    3  A    between atoms: C_2  and  C_16
REMARK    4  A    between atoms: C_4  and  C_6
REMARK    5  A    between atoms: C_19  and  C_20
REMARK    6  A    between atoms: C_20  and  N_21
REMARK    7  A    between atoms: C_22  and  C_24
REMARK                            x       y       z     vdW  Elec       q    Type
REMARK                         _______ _______ _______ _____ _____    ______ ____
ROOT
ATOM      1  C   UNL     1      47.536   3.010  17.819  0.00  0.00    +0.000 C 
ATOM      2  C   UNL     1      48.429   4.217  17.496  0.00  0.00    +0.000 C 
ENDROOT
BRANCH   2   3
ATOM      3  C   UNL     1      48.026   4.825  16.157  0.00  0.00    +0.000 A 
ATOM      4  C   UNL     1      48.565   6.052  15.741  0.00  0.00    +0.000 A 
ATOM      5  C   UNL     1      48.142   6.651  14.547  0.00  0.00    +0.000 A 
ATOM      6  C   UNL     1      47.167   6.042  13.747  0.00  0.00    +0.000 A 
ATOM      7  C   UNL     1      46.677   4.786  14.127  0.00  0.00    +0.000 A 
ATOM      8  C   UNL     1      47.099   4.188  15.317  0.00  0.00    +0.000 A 
BRANCH   6   9
ATOM      9  C   UNL     1      46.639   6.725  12.511  0.00  0.00    +0.000 C 
BRANCH   9  10
ATOM     10  N   UNL     1      46.442   5.803  11.424  0.00  0.00    +0.000 N 
ATOM     11  C   UNL     1      45.176   5.424  11.021  0.00  0.00    +0.000 C 
ATOM     12  O   UNL     1      44.169   5.856  11.579  0.00  0.00    +0.000 OA
ATOM     13  H   UNL     1      47.239   5.481  10.891  0.00  0.00    +0.000 HD
BRANCH  11  14
ATOM     14  C   UNL     1      45.124   4.489   9.901  0.00  0.00    +0.000 A 
ATOM     15  C   UNL     1      45.636   4.686   8.630  0.00  0.00    +0.000 A 
ATOM     16  C   UNL     1      45.401   3.576   7.763  0.00  0.00    +0.000 A 
ATOM     17  C   UNL     1      44.714   2.567   8.398  0.00  0.00    +0.000 A 
ATOM     18  S   UNL     1      44.366   2.953  10.025  0.00  0.00    +0.000 S 
ENDBRANCH  11  14
ENDBRANCH   9  10
ENDBRANCH   6   9
ENDBRANCH   2   3
BRANCH   2  19
ATOM     19  N   UNL     1      49.841   3.873  17.476  0.00  0.00    +0.000 N 
ATOM     20  C   UNL     1      50.693   4.175  18.511  0.00  0.00    +0.000 C 
ATOM     21  O   UNL     1      50.314   4.704  19.552  0.00  0.00    +0.000 OA
ATOM     22  H   UNL     1      50.248   3.726  16.558  0.00  0.00    +0.000 HD
BRANCH  20  23
ATOM     23  C   UNL     1      52.092   3.768  18.341  0.00  0.00    +0.000 A 
ATOM     24  C   UNL     1      53.108   4.678  18.599  0.00  0.00    +0.000 A 
ATOM     25  S   UNL     1      54.671   4.041  18.353  0.00  0.00    +0.000 S 
ATOM     26  C   UNL     1      54.040   2.543  17.852  0.00  0.00    +0.000 A 
ATOM     27  N   UNL     1      54.861   1.535  17.449  0.00  0.00    +0.000 NA
ATOM     28  C   UNL     1      54.245   0.469  17.061  0.00  0.00    +0.000 A 
ATOM     29  N   UNL     1      52.883   0.312  17.053  0.00  0.00    +0.000 N 
ATOM     30  C   UNL     1      52.017   1.284  17.492  0.00  0.00    +0.000 A 
ATOM     31  O   UNL     1      50.807   1.090  17.543  0.00  0.00    +0.000 OA
ATOM     32  C   UNL     1      52.658   2.516  17.905  0.00  0.00    +0.000 A 
ATOM     33  H   UNL     1      52.464  -0.557  16.755  0.00  0.00    +0.000 HD
ENDBRANCH  20  23
ENDBRANCH   2  19
TORSDOF 6
ENDMDL
MODEL 5
REMARK VINA RESULT:    -6.922      2.875      8.645
REMARK INTER + INTRA:         -10.348
REMARK INTER:                  -9.329
REMARK INTRA:                  -1.019
REMARK UNBOUND:                -0.999
REMARK  Name = 
REMARK  7 active torsions:
REMARK  status: ('A' for Active; 'I' for Inactive)
REMARK    1  A    between atoms: C_1  and  C_2
REMARK    2  A    between atoms: C_2  and  N_3
REMARK    3  A    between atoms: C_2  and  C_16
REMARK    4  A    between atoms: C_4  and  C_6
REMARK    5  A    between atoms: C_19  and  C_20
REMARK    6  A    between atoms: C_20  and  N_21
REMARK    7  A    between atoms: C_22  and  C_24
REMARK                            x       y       z     vdW  Elec       q    Type
REMARK                         _______ _______ _______ _____ _____    ______ ____
ROOT
ATOM      1  C   UNL     1      48.523   8.020  11.397  0.00  0.00    +0.000 C 
ATOM      2  C   UNL     1      47.607   7.475  12.502  0.00  0.00    +0.000 C 
ENDROOT
BRANCH   2   3
ATOM      3  C   UNL     1      48.426   7.128  13.741  0.00  0.00    +0.000 A 
ATOM      4  C   UNL     1      47.947   6.195  14.673  0.00  0.00    +0.000 A 
ATOM      5  C   UNL     1      48.661   5.929  15.850  0.00  0.00    +0.000 A 
ATOM      6  C   UNL     1      49.863   6.594  16.123  0.00  0.00    +0.000 A 
ATOM      7  C   UNL     1      50.375   7.475  15.164  0.00  0.00    +0.000 A 
ATOM      8  C   UNL     1      49.664   7.741  13.990  0.00  0.00    +0.000 A 
BRANCH   6   9
ATOM      9  C   UNL     1      50.587   6.382  17.429  0.00  0.00    +0.000 C 
BRANCH   9  10
ATOM     10  N   UNL     1      51.341   5.157  17.439  0.00  0.00    +0.000 N 
ATOM     11  C   UNL     1      50.800   3.983  17.926  0.00  0.00    +0.000 C 
ATOM     12  O   UNL     1      49.656   3.940  18.372  0.00  0.00    +0.000 OA
ATOM     13  H   UNL     1      52.259   5.132  17.015  0.00  0.00    +0.000 HD
BRANCH  11  14
ATOM     14  C   UNL     1      51.675   2.815  17.869  0.00  0.00    +0.000 A 
ATOM     15  C   UNL     1      51.359   1.563  17.368  0.00  0.00    +0.000 A 
ATOM     16  C   UNL     1      52.439   0.637  17.476  0.00  0.00    +0.000 A 
ATOM     17  C   UNL     1      53.546   1.208  18.060  0.00  0.00    +0.000 A 
ATOM     18  S   UNL     1      53.285   2.847  18.463  0.00  0.00    +0.000 S 
ENDBRANCH  11  14
ENDBRANCH   9  10
ENDBRANCH   6   9
ENDBRANCH   2   3
BRANCH   2  19
ATOM     19  N   UNL     1      46.849   6.312  12.071  0.00  0.00    +0.000 N 
ATOM     20  C   UNL     1      45.476   6.276  12.082  0.00  0.00    +0.000 C 
ATOM     21  O   UNL     1      44.787   7.240  12.400  0.00  0.00    +0.000 OA
ATOM     22  H   UNL     1      47.344   5.426  12.096  0.00  0.00    +0.000 HD
BRANCH  20  23
ATOM     23  C   UNL     1      44.855   5.028  11.623  0.00  0.00    +0.000 A 
ATOM     24  C   UNL     1      44.080   4.283  12.501  0.00  0.00    +0.000 A 
ATOM     25  S   UNL     1      43.434   2.866  11.805  0.00  0.00    +0.000 S 
ATOM     26  C   UNL     1      44.205   3.180  10.321  0.00  0.00    +0.000 A 
ATOM     27  N   UNL     1      44.096   2.313   9.277  0.00  0.00    +0.000 NA
ATOM     28  C   UNL     1      44.763   2.658   8.227  0.00  0.00    +0.000 A 
ATOM     29  N   UNL     1      45.515   3.800   8.118  0.00  0.00    +0.000 N 
ATOM     30  C   UNL     1      45.616   4.726   9.128  0.00  0.00    +0.000 A 
ATOM     31  O   UNL     1      46.236   5.773   8.978  0.00  0.00    +0.000 OA
ATOM     32  C   UNL     1      44.915   4.366  10.344  0.00  0.00    +0.000 A 
ATOM     33  H   UNL     1      45.996   4.022   7.259  0.00  0.00    +0.000 HD
ENDBRANCH  20  23
ENDBRANCH   2  19
TORSDOF 6
ENDMDL
MODEL 6
REMARK VINA RESULT:    -6.512      4.507      7.552
REMARK INTER + INTRA:          -9.794
REMARK INTER:                  -8.906
REMARK INTRA:                  -0.888
REMARK UNBOUND:                -0.999
REMARK  Name = 
REMARK  7 active torsions:
REMARK  status: ('A' for Active; 'I' for Inactive)
REMARK    1  A    between atoms: C_1  and  C_2
REMARK    2  A    between atoms: C_2  and  N_3
REMARK    3  A    between atoms: C_2  and  C_16
REMARK    4  A    between atoms: C_4  and  C_6
REMARK    5  A    between atoms: C_19  and  C_20
REMARK    6  A    between atoms: C_20  and  N_21
REMARK    7  A    between atoms: C_22  and  C_24
REMARK                            x       y       z     vdW  Elec       q    Type
REMARK                         _______ _______ _______ _____ _____    ______ ____
ROOT
ATOM      1  C   UNL     1      45.085   9.495  12.215  0.00  0.00    +0.000 C 
ATOM      2  C   UNL     1      45.894   8.249  12.606  0.00  0.00    +0.000 C 
ENDROOT
BRANCH   2   3
ATOM      3  C   UNL     1      47.350   8.415  12.185  0.00  0.00    +0.000 A 
ATOM      4  C   UNL     1      48.222   7.316  12.188  0.00  0.00    +0.000 A 
ATOM      5  C   UNL     1      49.578   7.477  11.874  0.00  0.00    +0.000 A 
ATOM      6  C   UNL     1      50.094   8.741  11.559  0.00  0.00    +0.000 A 
ATOM      7  C   UNL     1      49.213   9.827  11.491  0.00  0.00    +0.000 A 
ATOM      8  C   UNL     1      47.859   9.666  11.803  0.00  0.00    +0.000 A 
BRANCH   6   9
ATOM      9  C   UNL     1      51.568   8.938  11.312  0.00  0.00    +0.000 C 
BRANCH   9  10
ATOM     10  N   UNL     1      52.114   7.927  10.446  0.00  0.00    +0.000 N 
ATOM     11  C   UNL     1      52.675   8.251   9.226  0.00  0.00    +0.000 C 
ATOM     12  O   UNL     1      52.727   9.413   8.831  0.00  0.00    +0.000 OA
ATOM     13  H   UNL     1      52.158   6.968  10.765  0.00  0.00    +0.000 HD
BRANCH  11  14
ATOM     14  C   UNL     1      53.197   7.126   8.454  0.00  0.00    +0.000 A 
ATOM     15  C   UNL     1      53.558   5.880   8.940  0.00  0.00    +0.000 A 
ATOM     16  C   UNL     1      54.047   5.011   7.920  0.00  0.00    +0.000 A 
ATOM     17  C   UNL     1      54.048   5.619   6.686  0.00  0.00    +0.000 A 
ATOM     18  S   UNL     1      53.454   7.219   6.759  0.00  0.00    +0.000 S 
ENDBRANCH  11  14
ENDBRANCH   9  10
ENDBRANCH   6   9
ENDBRANCH   2   3
BRANCH   2  19
ATOM     19  N   UNL     1      45.350   7.031  12.030  0.00  0.00    +0.000 N 
ATOM     20  C   UNL     1      45.378   5.823  12.685  0.00  0.00    +0.000 C 
ATOM     21  O   UNL     1      45.812   5.695  13.826  0.00  0.00    +0.000 OA
ATOM     22  H   UNL     1      45.270   7.016  11.018  0.00  0.00    +0.000 HD
BRANCH  20  23
ATOM     23  C   UNL     1      44.796   4.682  11.970  0.00  0.00    +0.000 A 
ATOM     24  C   UNL     1      44.007   3.771  12.658  0.00  0.00    +0.000 A 
ATOM     25  S   UNL     1      43.410   2.509  11.677  0.00  0.00    +0.000 S 
ATOM     26  C   UNL     1      44.222   3.116  10.311  0.00  0.00    +0.000 A 
ATOM     27  N   UNL     1      44.163   2.468   9.116  0.00  0.00    +0.000 NA
ATOM     28  C   UNL     1      44.856   3.021   8.176  0.00  0.00    +0.000 A 
ATOM     29  N   UNL     1      45.590   4.170   8.318  0.00  0.00    +0.000 N 
ATOM     30  C   UNL     1      45.642   4.882   9.493  0.00  0.00    +0.000 A 
ATOM     31  O   UNL     1      46.247   5.946   9.571  0.00  0.00    +0.000 OA
ATOM     32  C   UNL     1      44.910   4.283  10.590  0.00  0.00    +0.000 A 
ATOM     33  H   UNL     1      46.095   4.562   7.536  0.00  0.00    +0.000 HD
ENDBRANCH  20  23
ENDBRANCH   2  19
TORSDOF 6
ENDMDL
MODEL 7
REMARK VINA RESULT:    -5.946      2.811      9.287
REMARK INTER + INTRA:          -9.030
REMARK INTER:                  -7.918
REMARK INTRA:                  -1.112
REMARK UNBOUND:                -0.999
REMARK  Name = 
REMARK  7 active torsions:
REMARK  status: ('A' for Active; 'I' for Inactive)
REMARK    1  A    between atoms: C_1  and  C_2
REMARK    2  A    between atoms: C_2  and  N_3
REMARK    3  A    between atoms: C_2  and  C_16
REMARK    4  A    between atoms: C_4  and  C_6
REMARK    5  A    between atoms: C_19  and  C_20
REMARK    6  A    between atoms: C_20  and  N_21
REMARK    7  A    between atoms: C_22  and  C_24
REMARK                            x       y       z     vdW  Elec       q    Type
REMARK                         _______ _______ _______ _____ _____    ______ ____
ROOT
ATOM      1  C   UNL     1      49.435   7.678  11.380  0.00  0.00    +0.000 C 
ATOM      2  C   UNL     1      48.154   7.706  12.227  0.00  0.00    +0.000 C 
ENDROOT
BRANCH   2   3
ATOM      3  C   UNL     1      48.505   7.791  13.709  0.00  0.00    +0.000 A 
ATOM      4  C   UNL     1      48.897   6.644  14.415  0.00  0.00    +0.000 A 
ATOM      5  C   UNL     1      49.149   6.702  15.792  0.00  0.00    +0.000 A 
ATOM      6  C   UNL     1      49.006   7.906  16.495  0.00  0.00    +0.000 A 
ATOM      7  C   UNL     1      48.680   9.065  15.780  0.00  0.00    +0.000 A 
ATOM      8  C   UNL     1      48.430   9.007  14.406  0.00  0.00    +0.000 A 
BRANCH   6   9
ATOM      9  C   UNL     1      49.184   7.957  17.992  0.00  0.00    +0.000 C 
BRANCH   9  10
ATOM     10  N   UNL     1      50.431   7.375  18.411  0.00  0.00    +0.000 N 
ATOM     11  C   UNL     1      50.472   6.353  19.340  0.00  0.00    +0.000 C 
ATOM     12  O   UNL     1      49.447   5.905  19.847  0.00  0.00    +0.000 OA
ATOM     13  H   UNL     1      51.291   7.664  17.965  0.00  0.00    +0.000 HD
BRANCH  11  14
ATOM     14  C   UNL     1      51.805   5.853  19.667  0.00  0.00    +0.000 A 
ATOM     15  C   UNL     1      52.110   4.707  20.381  0.00  0.00    +0.000 A 
ATOM     16  C   UNL     1      53.515   4.513  20.538  0.00  0.00    +0.000 A 
ATOM     17  C   UNL     1      54.241   5.519  19.943  0.00  0.00    +0.000 A 
ATOM     18  S   UNL     1      53.234   6.678  19.194  0.00  0.00    +0.000 S 
ENDBRANCH  11  14
ENDBRANCH   9  10
ENDBRANCH   6   9
ENDBRANCH   2   3
BRANCH   2  19
ATOM     19  N   UNL     1      47.305   6.550  11.988  0.00  0.00    +0.000 N 
ATOM     20  C   UNL     1      45.935   6.606  12.074  0.00  0.00    +0.000 C 
ATOM     21  O   UNL     1      45.324   7.645  12.303  0.00  0.00    +0.000 OA
ATOM     22  H   UNL     1      47.749   5.644  12.099  0.00  0.00    +0.000 HD
BRANCH  20  23
ATOM     23  C   UNL     1      45.216   5.354  11.811  0.00  0.00    +0.000 A 
ATOM     24  C   UNL     1      44.533   4.724  12.841  0.00  0.00    +0.000 A 
ATOM     25  S   UNL     1      43.753   3.285  12.361  0.00  0.00    +0.000 S 
ATOM     26  C   UNL     1      44.339   3.435  10.771  0.00  0.00    +0.000 A 
ATOM     27  N   UNL     1      44.067   2.488   9.832  0.00  0.00    +0.000 NA
ATOM     28  C   UNL     1      44.606   2.711   8.680  0.00  0.00    +0.000 A 
ATOM     29  N   UNL     1      45.379   3.802   8.376  0.00  0.00    +0.000 N 
ATOM     30  C   UNL     1      45.642   4.805   9.278  0.00  0.00    +0.000 A 
ATOM     31  O   UNL     1      46.274   5.806   8.958  0.00  0.00    +0.000 OA
ATOM     32  C   UNL     1      45.089   4.584  10.599  0.00  0.00    +0.000 A 
ATOM     33  H   UNL     1      45.754   3.928   7.447  0.00  0.00    +0.000 HD
ENDBRANCH  20  23
ENDBRANCH   2  19
TORSDOF 6
ENDMDL
MODEL 8
REMARK VINA RESULT:    -5.869      3.495      5.140
REMARK INTER + INTRA:          -8.926
REMARK INTER:                  -8.419
REMARK INTRA:                  -0.507
REMARK UNBOUND:                -0.999
REMARK  Name = 
REMARK  7 active torsions:
REMARK  status: ('A' for Active; 'I' for Inactive)
REMARK    1  A    between atoms: C_1  and  C_2
REMARK    2  A    between atoms: C_2  and  N_3
REMARK    3  A    between atoms: C_2  and  C_16
REMARK    4  A    between atoms: C_4  and  C_6
REMARK    5  A    between atoms: C_19  and  C_20
REMARK    6  A    between atoms: C_20  and  N_21
REMARK    7  A    between atoms: C_22  and  C_24
REMARK                            x       y       z     vdW  Elec       q    Type
REMARK                         _______ _______ _______ _____ _____    ______ ____
ROOT
ATOM      1  C   UNL     1      48.178   2.712  18.334  0.00  0.00    +0.000 C 
ATOM      2  C   UNL     1      48.721   4.138  18.155  0.00  0.00    +0.000 C 
ENDROOT
BRANCH   2   3
ATOM      3  C   UNL     1      48.309   4.691  16.795  0.00  0.00    +0.000 A 
ATOM      4  C   UNL     1      48.800   5.927  16.350  0.00  0.00    +0.000 A 
ATOM      5  C   UNL     1      48.367   6.474  15.134  0.00  0.00    +0.000 A 
ATOM      6  C   UNL     1      47.428   5.801  14.342  0.00  0.00    +0.000 A 
ATOM      7  C   UNL     1      46.987   4.537  14.752  0.00  0.00    +0.000 A 
ATOM      8  C   UNL     1      47.419   3.991  15.964  0.00  0.00    +0.000 A 
BRANCH   6   9
ATOM      9  C   UNL     1      46.887   6.426  13.080  0.00  0.00    +0.000 C 
BRANCH   9  10
ATOM     10  N   UNL     1      46.443   5.439  12.133  0.00  0.00    +0.000 N 
ATOM     11  C   UNL     1      45.589   5.767  11.097  0.00  0.00    +0.000 C 
ATOM     12  O   UNL     1      45.173   6.914  10.948  0.00  0.00    +0.000 OA
ATOM     13  H   UNL     1      46.819   4.501  12.176  0.00  0.00    +0.000 HD
BRANCH  11  14
ATOM     14  C   UNL     1      45.227   4.668  10.207  0.00  0.00    +0.000 A 
ATOM     15  C   UNL     1      45.471   4.584   8.847  0.00  0.00    +0.000 A 
ATOM     16  C   UNL     1      44.970   3.380   8.270  0.00  0.00    +0.000 A 
ATOM     17  C   UNL     1      44.355   2.580   9.205  0.00  0.00    +0.000 A 
ATOM     18  S   UNL     1      44.392   3.275  10.765  0.00  0.00    +0.000 S 
ENDBRANCH  11  14
ENDBRANCH   9  10
ENDBRANCH   6   9
ENDBRANCH   2   3
BRANCH   2  19
ATOM     19  N   UNL     1      50.166   4.204  18.297  0.00  0.00    +0.000 N 
ATOM     20  C   UNL     1      51.015   3.350  17.637  0.00  0.00    +0.000 C 
ATOM     21  O   UNL     1      50.623   2.507  16.836  0.00  0.00    +0.000 OA
ATOM     22  H   UNL     1      50.508   4.651  19.142  0.00  0.00    +0.000 HD
BRANCH  20  23
ATOM     23  C   UNL     1      52.449   3.537  17.887  0.00  0.00    +0.000 A 
ATOM     24  C   UNL     1      53.168   2.547  18.542  0.00  0.00    +0.000 A 
ATOM     25  S   UNL     1      54.818   2.927  18.748  0.00  0.00    +0.000 S 
ATOM     26  C   UNL     1      54.616   4.445  18.008  0.00  0.00    +0.000 A 
ATOM     27  N   UNL     1      55.657   5.314  17.896  0.00  0.00    +0.000 NA
ATOM     28  C   UNL     1      55.352   6.442  17.347  0.00  0.00    +0.000 A 
ATOM     29  N   UNL     1      54.105   6.775  16.886  0.00  0.00    +0.000 N 
ATOM     30  C   UNL     1      53.035   5.914  16.936  0.00  0.00    +0.000 A 
ATOM     31  O   UNL     1      51.950   6.210  16.450  0.00  0.00    +0.000 OA
ATOM     32  C   UNL     1      53.317   4.646  17.578  0.00  0.00    +0.000 A 
ATOM     33  H   UNL     1      53.938   7.669  16.447  0.00  0.00    +0.000 HD
ENDBRANCH  20  23
ENDBRANCH   2  19
TORSDOF 6
ENDMDL
MODEL 9
REMARK VINA RESULT:    -5.155     10.014     11.236
REMARK INTER + INTRA:          -7.962
REMARK INTER:                  -6.894
REMARK INTRA:                  -1.068
REMARK UNBOUND:                -0.999
REMARK  Name = 
REMARK  7 active torsions:
REMARK  status: ('A' for Active; 'I' for Inactive)
REMARK    1  A    between atoms: C_1  and  C_2
REMARK    2  A    between atoms: C_2  and  N_3
REMARK    3  A    between atoms: C_2  and  C_16
REMARK    4  A    between atoms: C_4  and  C_6
REMARK    5  A    between atoms: C_19  and  C_20
REMARK    6  A    between atoms: C_20  and  N_21
REMARK    7  A    between atoms: C_22  and  C_24
REMARK                            x       y       z     vdW  Elec       q    Type
REMARK                         _______ _______ _______ _____ _____    ______ ____
ROOT
ATOM      1  C   UNL     1      41.222  -3.229  19.943  0.00  0.00    +0.000 C 
ATOM      2  C   UNL     1      40.195  -2.691  18.936  0.00  0.00    +0.000 C 
ENDROOT
BRANCH   2   3
ATOM      3  C   UNL     1      40.629  -3.027  17.513  0.00  0.00    +0.000 A 
ATOM      4  C   UNL     1      40.253  -2.203  16.441  0.00  0.00    +0.000 A 
ATOM      5  C   UNL     1      40.586  -2.547  15.124  0.00  0.00    +0.000 A 
ATOM      6  C   UNL     1      41.294  -3.724  14.849  0.00  0.00    +0.000 A 
ATOM      7  C   UNL     1      41.727  -4.512  15.922  0.00  0.00    +0.000 A 
ATOM      8  C   UNL     1      41.396  -4.170  17.236  0.00  0.00    +0.000 A 
BRANCH   6   9
ATOM      9  C   UNL     1      41.573  -4.148  13.429  0.00  0.00    +0.000 C 
BRANCH   9  10
ATOM     10  N   UNL     1      40.497  -3.806  12.538  0.00  0.00    +0.000 N 
ATOM     11  C   UNL     1      40.543  -2.667  11.757  0.00  0.00    +0.000 C 
ATOM     12  O   UNL     1      41.503  -1.901  11.795  0.00  0.00    +0.000 OA
ATOM     13  H   UNL     1      39.722  -4.446  12.422  0.00  0.00    +0.000 HD
BRANCH  11  14
ATOM     14  C   UNL     1      39.385  -2.447  10.895  0.00  0.00    +0.000 A 
ATOM     15  C   UNL     1      38.474  -1.408  10.975  0.00  0.00    +0.000 A 
ATOM     16  C   UNL     1      37.448  -1.497   9.988  0.00  0.00    +0.000 A 
ATOM     17  C   UNL     1      37.603  -2.604   9.186  0.00  0.00    +0.000 A 
ATOM     18  S   UNL     1      38.981  -3.518   9.615  0.00  0.00    +0.000 S 
ENDBRANCH  11  14
ENDBRANCH   9  10
ENDBRANCH   6   9
ENDBRANCH   2   3
BRANCH   2  19
ATOM     19  N   UNL     1      39.990  -1.258  19.064  0.00  0.00    +0.000 N 
ATOM     20  C   UNL     1      38.968  -0.718  19.807  0.00  0.00    +0.000 C 
ATOM     21  O   UNL     1      38.190  -1.402  20.464  0.00  0.00    +0.000 OA
ATOM     22  H   UNL     1      40.391  -0.686  18.327  0.00  0.00    +0.000 HD
BRANCH  20  23
ATOM     23  C   UNL     1      38.888   0.746  19.835  0.00  0.00    +0.000 A 
ATOM     24  C   UNL     1      39.153   1.428  21.014  0.00  0.00    +0.000 A 
ATOM     25  S   UNL     1      39.016   3.121  20.869  0.00  0.00    +0.000 S 
ATOM     26  C   UNL     1      38.555   2.997  19.236  0.00  0.00    +0.000 A 
ATOM     27  N   UNL     1      38.243   4.105  18.509  0.00  0.00    +0.000 NA
ATOM     28  C   UNL     1      37.875   3.859  17.296  0.00  0.00    +0.000 A 
ATOM     29  N   UNL     1      37.806   2.609  16.738  0.00  0.00    +0.000 N 
ATOM     30  C   UNL     1      38.155   1.467  17.418  0.00  0.00    +0.000 A 
ATOM     31  O   UNL     1      38.155   0.369  16.872  0.00  0.00    +0.000 OA
ATOM     32  C   UNL     1      38.541   1.685  18.798  0.00  0.00    +0.000 A 
ATOM     33  H   UNL     1      37.530   2.487  15.774  0.00  0.00    +0.000 HD
ENDBRANCH  20  23
ENDBRANCH   2  19
TORSDOF 6
ENDMDL
