MODEL 1
REMARK VINA RESULT:    -7.509      0.000      0.000
REMARK INTER + INTRA:         -12.050
REMARK INTER:                 -10.582
REMARK INTRA:                  -1.469
REMARK UNBOUND:                -1.469
REMARK  Name = 
REMARK  8 active torsions:
REMARK  status: ('A' for Active; 'I' for Inactive)
REMARK    1  A    between atoms: C_1  and  C_2
REMARK    2  A    between atoms: C_2  and  N_3
REMARK    3  A    between atoms: N_3  and  C_4
REMARK    4  A    between atoms: C_4  and  C_5
REMARK    5  A    between atoms: C_8  and  C_9
REMARK    6  A    between atoms: C_9  and  O_10
REMARK    7  A    between atoms: O_10  and  C_11
REMARK    8  A    between atoms: C_19  and  C_21
REMARK                            x       y       z     vdW  Elec       q    Type
REMARK                         _______ _______ _______ _____ _____    ______ ____
ROOT
ATOM      1  N   UNL     1      48.610   7.174  13.678  0.00  0.00    +0.000 N 
ATOM      2  C   UNL     1      49.399   7.182  14.853  0.00  0.00    +0.000 C 
ATOM      3  O   UNL     1      50.622   7.034  14.772  0.00  0.00    +0.000 OA
ENDROOT
BRANCH   2   4
ATOM      4  C   UNL     1      48.826   7.484  16.189  0.00  0.00    +0.000 A 
ATOM      5  C   UNL     1      48.621   8.727  16.767  0.00  0.00    +0.000 A 
ATOM      6  S   UNL     1      48.269   8.675  18.442  0.00  0.00    +0.000 S 
ATOM      7  C   UNL     1      48.397   6.985  18.459  0.00  0.00    +0.000 A 
ATOM      8  N   UNL     1      48.337   6.286  19.625  0.00  0.00    +0.000 NA
ATOM      9  C   UNL     1      48.442   5.009  19.474  0.00  0.00    +0.000 A 
ATOM     10  N   UNL     1      48.552   4.362  18.268  0.00  0.00    +0.000 N 
ATOM     11  C   UNL     1      48.503   5.028  17.060  0.00  0.00    +0.000 A 
ATOM     12  O   UNL     1      48.320   4.421  16.008  0.00  0.00    +0.000 OA
ATOM     13  C   UNL     1      48.552   6.469  17.185  0.00  0.00    +0.000 A 
ATOM     14  H   UNL     1      48.506   3.359  18.213  0.00  0.00    +0.000 HD
ENDBRANCH   2   4
BRANCH   1  16
ATOM     15  C   UNL     1      49.019   8.638  11.691  0.00  0.00    +0.000 C 
ATOM     16  C   UNL     1      49.347   7.332  12.417  0.00  0.00    +0.000 C 
ENDBRANCH   1  16
BRANCH   1  17
ATOM     17  C   UNL     1      47.177   7.403  13.718  0.00  0.00    +0.000 C 
BRANCH  17  18
ATOM     18  C   UNL     1      46.190   6.499  13.019  0.00  0.00    +0.000 A 
ATOM     19  C   UNL     1      45.616   6.851  11.789  0.00  0.00    +0.000 A 
ATOM     20  C   UNL     1      45.004   5.873  10.990  0.00  0.00    +0.000 A 
ATOM     21  C   UNL     1      44.946   4.537  11.414  0.00  0.00    +0.000 A 
ATOM     22  C   UNL     1      45.457   4.206  12.674  0.00  0.00    +0.000 A 
ATOM     23  C   UNL     1      46.053   5.180  13.475  0.00  0.00    +0.000 A 
BRANCH  21  24
ATOM     24  C   UNL     1      44.381   3.448  10.526  0.00  0.00    +0.000 C 
BRANCH  24  25
ATOM     25  O   UNL     1      44.345   3.906   9.173  0.00  0.00    +0.000 OA
BRANCH  25  26
ATOM     26  C   UNL     1      45.315   3.279   8.415  0.00  0.00    +0.000 A 
ATOM     27  N   UNL     1      45.506   1.976   8.685  0.00  0.00    +0.000 NA
ATOM     28  C   UNL     1      46.452   1.356   7.954  0.00  0.00    +0.000 A 
ATOM     29  C   UNL     1      47.191   1.979   6.975  0.00  0.00    +0.000 A 
ATOM     30  C   UNL     1      46.898   3.306   6.768  0.00  0.00    +0.000 A 
ATOM     31  N   UNL     1      45.970   3.979   7.475  0.00  0.00    +0.000 NA
ENDBRANCH  25  26
ENDBRANCH  24  25
ENDBRANCH  21  24
ENDBRANCH  17  18
ENDBRANCH   1  17
TORSDOF 7
ENDMDL
MODEL 2
REMARK VINA RESULT:    -7.083      1.941      2.533
REMARK INTER + INTRA:         -11.451
REMARK INTER:                 -10.202
REMARK INTRA:                  -1.248
REMARK UNBOUND:                -1.469
REMARK  Name = 
REMARK  8 active torsions:
REMARK  status: ('A' for Active; 'I' for Inactive)
REMARK    1  A    between atoms: C_1  and  C_2
REMARK    2  A    between atoms: C_2  and  N_3
REMARK    3  A    between atoms: N_3  and  C_4
REMARK    4  A    between atoms: C_4  and  C_5
REMARK    5  A    between atoms: C_8  and  C_9
REMARK    6  A    between atoms: C_9  and  O_10
REMARK    7  A    between atoms: O_10  and  C_11
REMARK    8  A    between atoms: C_19  and  C_21
REMARK                            x       y       z     vdW  Elec       q    Type
REMARK                         _______ _______ _______ _____ _____    ______ ____
ROOT
ATOM      1  N   UNL     1      48.438   7.605  14.705  0.00  0.00    +0.000 N 
ATOM      2  C   UNL     1      48.711   7.314  16.063  0.00  0.00    +0.000 C 
ATOM      3  O   UNL     1      48.662   8.215  16.905  0.00  0.00    +0.000 OA
ENDROOT
BRANCH   2   4
ATOM      4  C   UNL     1      48.940   5.929  16.545  0.00  0.00    +0.000 A 
ATOM      5  C   UNL     1      47.991   4.967  16.859  0.00  0.00    +0.000 A 
ATOM      6  S   UNL     1      48.611   3.617  17.709  0.00  0.00    +0.000 S 
ATOM      7  C   UNL     1      50.173   4.278  17.705  0.00  0.00    +0.000 A 
ATOM      8  N   UNL     1      51.189   3.689  18.391  0.00  0.00    +0.000 NA
ATOM      9  C   UNL     1      52.316   4.307  18.286  0.00  0.00    +0.000 A 
ATOM     10  N   UNL     1      52.536   5.426  17.523  0.00  0.00    +0.000 N 
ATOM     11  C   UNL     1      51.558   5.986  16.725  0.00  0.00    +0.000 A 
ATOM     12  O   UNL     1      51.843   6.800  15.850  0.00  0.00    +0.000 OA
ATOM     13  C   UNL     1      50.241   5.428  16.939  0.00  0.00    +0.000 A 
ATOM     14  H   UNL     1      53.466   5.786  17.387  0.00  0.00    +0.000 HD
ENDBRANCH   2   4
BRANCH   1  16
ATOM     15  C   UNL     1      48.385   9.648  13.263  0.00  0.00    +0.000 C 
ATOM     16  C   UNL     1      47.782   8.893  14.450  0.00  0.00    +0.000 C 
ENDBRANCH   1  16
BRANCH   1  17
ATOM     17  C   UNL     1      48.426   6.567  13.689  0.00  0.00    +0.000 C 
BRANCH  17  18
ATOM     18  C   UNL     1      47.151   6.076  13.044  0.00  0.00    +0.000 A 
ATOM     19  C   UNL     1      46.701   6.594  11.822  0.00  0.00    +0.000 A 
ATOM     20  C   UNL     1      45.745   5.895  11.069  0.00  0.00    +0.000 A 
ATOM     21  C   UNL     1      45.219   4.680  11.531  0.00  0.00    +0.000 A 
ATOM     22  C   UNL     1      45.620   4.205  12.786  0.00  0.00    +0.000 A 
ATOM     23  C   UNL     1      46.559   4.907  13.542  0.00  0.00    +0.000 A 
BRANCH  21  24
ATOM     24  C   UNL     1      44.263   3.860  10.691  0.00  0.00    +0.000 C 
BRANCH  24  25
ATOM     25  O   UNL     1      44.312   4.308   9.336  0.00  0.00    +0.000 OA
BRANCH  25  26
ATOM     26  C   UNL     1      45.211   3.557   8.602  0.00  0.00    +0.000 A 
ATOM     27  N   UNL     1      45.928   4.241   7.694  0.00  0.00    +0.000 NA
ATOM     28  C   UNL     1      46.804   3.519   6.970  0.00  0.00    +0.000 A 
ATOM     29  C   UNL     1      46.993   2.166   7.129  0.00  0.00    +0.000 A 
ATOM     30  C   UNL     1      46.222   1.572   8.100  0.00  0.00    +0.000 A 
ATOM     31  N   UNL     1      45.324   2.242   8.846  0.00  0.00    +0.000 NA
ENDBRANCH  25  26
ENDBRANCH  24  25
ENDBRANCH  21  24
ENDBRANCH  17  18
ENDBRANCH   1  17
TORSDOF 7
ENDMDL
MODEL 3
REMARK VINA RESULT:    -7.007      2.494      4.552
REMARK INTER + INTRA:         -11.342
REMARK INTER:                 -10.022
REMARK INTRA:                  -1.320
REMARK UNBOUND:                -1.469
REMARK  Name = 
REMARK  8 active torsions:
REMARK  status: ('A' for Active; 'I' for Inactive)
REMARK    1  A    between atoms: C_1  and  C_2
REMARK    2  A    between atoms: C_2  and  N_3
REMARK    3  A    between atoms: N_3  and  C_4
REMARK    4  A    between atoms: C_4  and  C_5
REMARK    5  A    between atoms: C_8  and  C_9
REMARK    6  A    between atoms: C_9  and  O_10
REMARK    7  A    between atoms: O_10  and  C_11
REMARK    8  A    between atoms: C_19  and  C_21
REMARK                            x       y       z     vdW  Elec       q    Type
REMARK                         _______ _______ _______ _____ _____    ______ ____
ROOT
ATOM      1  N   UNL     1      48.218   6.573  14.738  0.00  0.00    +0.000 N 
ATOM      2  C   UNL     1      48.510   7.954  14.632  0.00  0.00    +0.000 C 
ATOM      3  O   UNL     1      48.598   8.643  15.653  0.00  0.00    +0.000 OA
ENDROOT
BRANCH   2   4
ATOM      4  C   UNL     1      48.837   8.596  13.334  0.00  0.00    +0.000 A 
ATOM      5  C   UNL     1      50.069   8.664  12.703  0.00  0.00    +0.000 A 
ATOM      6  S   UNL     1      50.135   9.776  11.403  0.00  0.00    +0.000 S 
ATOM      7  C   UNL     1      48.518  10.223  11.649  0.00  0.00    +0.000 A 
ATOM      8  N   UNL     1      47.957  11.246  10.950  0.00  0.00    +0.000 NA
ATOM      9  C   UNL     1      46.720  11.461  11.244  0.00  0.00    +0.000 A 
ATOM     10  N   UNL     1      45.977  10.722  12.131  0.00  0.00    +0.000 N 
ATOM     11  C   UNL     1      46.480   9.608  12.773  0.00  0.00    +0.000 A 
ATOM     12  O   UNL     1      45.734   8.808  13.333  0.00  0.00    +0.000 OA
ATOM     13  C   UNL     1      47.905   9.429  12.601  0.00  0.00    +0.000 A 
ATOM     14  H   UNL     1      44.986  10.865  12.221  0.00  0.00    +0.000 HD
ENDBRANCH   2   4
BRANCH   1  16
ATOM     15  C   UNL     1      47.683   4.636  16.228  0.00  0.00    +0.000 C 
ATOM     16  C   UNL     1      48.379   5.991  16.076  0.00  0.00    +0.000 C 
ENDBRANCH   1  16
BRANCH   1  17
ATOM     17  C   UNL     1      48.162   5.712  13.570  0.00  0.00    +0.000 C 
BRANCH  17  18
ATOM     18  C   UNL     1      46.905   5.532  12.753  0.00  0.00    +0.000 A 
ATOM     19  C   UNL     1      46.688   6.254  11.571  0.00  0.00    +0.000 A 
ATOM     20  C   UNL     1      45.720   5.826  10.649  0.00  0.00    +0.000 A 
ATOM     21  C   UNL     1      44.950   4.681  10.901  0.00  0.00    +0.000 A 
ATOM     22  C   UNL     1      45.122   4.006  12.115  0.00  0.00    +0.000 A 
ATOM     23  C   UNL     1      46.073   4.440  13.039  0.00  0.00    +0.000 A 
BRANCH  21  24
ATOM     24  C   UNL     1      43.972   4.144   9.878  0.00  0.00    +0.000 C 
BRANCH  24  25
ATOM     25  O   UNL     1      44.275   2.776   9.600  0.00  0.00    +0.000 OA
BRANCH  25  26
ATOM     26  C   UNL     1      45.232   2.675   8.609  0.00  0.00    +0.000 A 
ATOM     27  N   UNL     1      45.898   1.508   8.567  0.00  0.00    +0.000 NA
ATOM     28  C   UNL     1      46.836   1.400   7.606  0.00  0.00    +0.000 A 
ATOM     29  C   UNL     1      47.117   2.394   6.698  0.00  0.00    +0.000 A 
ATOM     30  C   UNL     1      46.362   3.535   6.819  0.00  0.00    +0.000 A 
ATOM     31  N   UNL     1      45.418   3.703   7.765  0.00  0.00    +0.000 NA
ENDBRANCH  25  26
ENDBRANCH  24  25
ENDBRANCH  21  24
ENDBRANCH  17  18
ENDBRANCH   1  17
TORSDOF 7
ENDMDL
MODEL 4
REMARK VINA RESULT:    -6.939      1.661      2.373
REMARK INTER + INTRA:         -11.247
REMARK INTER:                  -9.904
REMARK INTRA:                  -1.343
REMARK UNBOUND:                -1.469
REMARK  Name = 
REMARK  8 active torsions:
REMARK  status: ('A' for Active; 'I' for Inactive)
REMARK    1  A    between atoms: C_1  and  C_2
REMARK    2  A    between atoms: C_2  and  N_3
REMARK    3  A    between atoms: N_3  and  C_4
REMARK    4  A    between atoms: C_4  and  C_5
REMARK    5  A    between atoms: C_8  and  C_9
REMARK    6  A    between atoms: C_9  and  O_10
REMARK    7  A    between atoms: O_10  and  C_11
REMARK    8  A    between atoms: C_19  and  C_21
REMARK                            x       y       z     vdW  Elec       q    Type
REMARK                         _______ _______ _______ _____ _____    ______ ____
ROOT
ATOM      1  N   UNL     1      48.444   7.632  13.150  0.00  0.00    +0.000 N 
ATOM      2  C   UNL     1      49.547   7.598  14.036  0.00  0.00    +0.000 C 
ATOM      3  O   UNL     1      50.687   7.790  13.603  0.00  0.00    +0.000 OA
ENDROOT
BRANCH   2   4
ATOM      4  C   UNL     1      49.379   7.459  15.505  0.00  0.00    +0.000 A 
ATOM      5  C   UNL     1      49.439   6.299  16.263  0.00  0.00    +0.000 A 
ATOM      6  S   UNL     1      48.856   6.474  17.863  0.00  0.00    +0.000 S 
ATOM      7  C   UNL     1      48.485   8.107  17.594  0.00  0.00    +0.000 A 
ATOM      8  N   UNL     1      47.824   8.842  18.529  0.00  0.00    +0.000 NA
ATOM      9  C   UNL     1      47.621  10.067  18.181  0.00  0.00    +0.000 A 
ATOM     10  N   UNL     1      48.058  10.640  17.013  0.00  0.00    +0.000 N 
ATOM     11  C   UNL     1      48.828   9.957  16.093  0.00  0.00    +0.000 A 
ATOM     12  O   UNL     1      49.437  10.554  15.208  0.00  0.00    +0.000 OA
ATOM     13  C   UNL     1      48.939   8.540  16.362  0.00  0.00    +0.000 A 
ATOM     14  H   UNL     1      47.973  11.630  16.859  0.00  0.00    +0.000 HD
ENDBRANCH   2   4
BRANCH   1  16
ATOM     15  C   UNL     1      48.272   9.697  11.749  0.00  0.00    +0.000 C 
ATOM     16  C   UNL     1      48.703   8.231  11.835  0.00  0.00    +0.000 C 
ENDBRANCH   1  16
BRANCH   1  17
ATOM     17  C   UNL     1      47.080   7.472  13.622  0.00  0.00    +0.000 C 
BRANCH  17  18
ATOM     18  C   UNL     1      46.107   6.510  12.983  0.00  0.00    +0.000 A 
ATOM     19  C   UNL     1      45.427   6.831  11.800  0.00  0.00    +0.000 A 
ATOM     20  C   UNL     1      44.826   5.820  11.034  0.00  0.00    +0.000 A 
ATOM     21  C   UNL     1      44.884   4.481  11.446  0.00  0.00    +0.000 A 
ATOM     22  C   UNL     1      45.502   4.176  12.664  0.00  0.00    +0.000 A 
ATOM     23  C   UNL     1      46.088   5.182  13.433  0.00  0.00    +0.000 A 
BRANCH  21  24
ATOM     24  C   UNL     1      44.330   3.363  10.588  0.00  0.00    +0.000 C 
BRANCH  24  25
ATOM     25  O   UNL     1      44.243   3.802   9.231  0.00  0.00    +0.000 OA
BRANCH  25  26
ATOM     26  C   UNL     1      45.246   3.237   8.466  0.00  0.00    +0.000 A 
ATOM     27  N   UNL     1      45.496   1.939   8.710  0.00  0.00    +0.000 NA
ATOM     28  C   UNL     1      46.475   1.380   7.972  0.00  0.00    +0.000 A 
ATOM     29  C   UNL     1      47.187   2.056   7.010  0.00  0.00    +0.000 A 
ATOM     30  C   UNL     1      46.833   3.372   6.828  0.00  0.00    +0.000 A 
ATOM     31  N   UNL     1      45.871   3.986   7.543  0.00  0.00    +0.000 NA
ENDBRANCH  25  26
ENDBRANCH  24  25
ENDBRANCH  21  24
ENDBRANCH  17  18
ENDBRANCH   1  17
TORSDOF 7
ENDMDL
MODEL 5
REMARK VINA RESULT:    -6.830      2.216      4.164
REMARK INTER + INTRA:         -11.094
REMARK INTER:                  -9.750
REMARK INTRA:                  -1.344
REMARK UNBOUND:                -1.469
REMARK  Name = 
REMARK  8 active torsions:
REMARK  status: ('A' for Active; 'I' for Inactive)
REMARK    1  A    between atoms: C_1  and  C_2
REMARK    2  A    between atoms: C_2  and  N_3
REMARK    3  A    between atoms: N_3  and  C_4
REMARK    4  A    between atoms: C_4  and  C_5
REMARK    5  A    between atoms: C_8  and  C_9
REMARK    6  A    between atoms: C_9  and  O_10
REMARK    7  A    between atoms: O_10  and  C_11
REMARK    8  A    between atoms: C_19  and  C_21
REMARK                            x       y       z     vdW  Elec       q    Type
REMARK                         _______ _______ _______ _____ _____    ______ ____
ROOT
ATOM      1  N   UNL     1      48.282   6.569  15.061  0.00  0.00    +0.000 N 
ATOM      2  C   UNL     1      48.522   7.961  15.149  0.00  0.00    +0.000 C 
ATOM      3  O   UNL     1      48.592   8.503  16.256  0.00  0.00    +0.000 OA
ENDROOT
BRANCH   2   4
ATOM      4  C   UNL     1      48.816   8.790  13.953  0.00  0.00    +0.000 A 
ATOM      5  C   UNL     1      47.930   9.547  13.202  0.00  0.00    +0.000 A 
ATOM      6  S   UNL     1      48.558  10.085  11.703  0.00  0.00    +0.000 S 
ATOM      7  C   UNL     1      50.037   9.309  11.996  0.00  0.00    +0.000 A 
ATOM      8  N   UNL     1      51.005   9.255  11.043  0.00  0.00    +0.000 NA
ATOM      9  C   UNL     1      52.073   8.637  11.418  0.00  0.00    +0.000 A 
ATOM     10  N   UNL     1      52.284   8.112  12.669  0.00  0.00    +0.000 N 
ATOM     11  C   UNL     1      51.371   8.245  13.695  0.00  0.00    +0.000 A 
ATOM     12  O   UNL     1      51.690   8.023  14.860  0.00  0.00    +0.000 OA
ATOM     13  C   UNL     1      50.096   8.783  13.274  0.00  0.00    +0.000 A 
ATOM     14  H   UNL     1      53.186   7.752  12.933  0.00  0.00    +0.000 HD
ENDBRANCH   2   4
BRANCH   1  16
ATOM     15  C   UNL     1      47.695   4.494  16.330  0.00  0.00    +0.000 C 
ATOM     16  C   UNL     1      48.473   5.812  16.305  0.00  0.00    +0.000 C 
ENDBRANCH   1  16
BRANCH   1  17
ATOM     17  C   UNL     1      48.249   5.878  13.785  0.00  0.00    +0.000 C 
BRANCH  17  18
ATOM     18  C   UNL     1      46.990   5.754  12.960  0.00  0.00    +0.000 A 
ATOM     19  C   UNL     1      46.818   6.474  11.770  0.00  0.00    +0.000 A 
ATOM     20  C   UNL     1      45.836   6.086  10.845  0.00  0.00    +0.000 A 
ATOM     21  C   UNL     1      45.007   4.984  11.102  0.00  0.00    +0.000 A 
ATOM     22  C   UNL     1      45.137   4.313  12.324  0.00  0.00    +0.000 A 
ATOM     23  C   UNL     1      46.103   4.707  13.250  0.00  0.00    +0.000 A 
BRANCH  21  24
ATOM     24  C   UNL     1      44.010   4.487  10.077  0.00  0.00    +0.000 C 
BRANCH  24  25
ATOM     25  O   UNL     1      44.203   3.087   9.864  0.00  0.00    +0.000 OA
BRANCH  25  26
ATOM     26  C   UNL     1      45.108   2.865   8.842  0.00  0.00    +0.000 A 
ATOM     27  N   UNL     1      45.680   1.650   8.834  0.00  0.00    +0.000 NA
ATOM     28  C   UNL     1      46.567   1.424   7.845  0.00  0.00    +0.000 A 
ATOM     29  C   UNL     1      46.883   2.348   6.877  0.00  0.00    +0.000 A 
ATOM     30  C   UNL     1      46.222   3.550   6.969  0.00  0.00    +0.000 A 
ATOM     31  N   UNL     1      45.335   3.835   7.941  0.00  0.00    +0.000 NA
ENDBRANCH  25  26
ENDBRANCH  24  25
ENDBRANCH  21  24
ENDBRANCH  17  18
ENDBRANCH   1  17
TORSDOF 7
ENDMDL
MODEL 6
REMARK VINA RESULT:    -6.807      2.011      2.631
REMARK INTER + INTRA:         -11.062
REMARK INTER:                  -9.523
REMARK INTRA:                  -1.539
REMARK UNBOUND:                -1.469
REMARK  Name = 
REMARK  8 active torsions:
REMARK  status: ('A' for Active; 'I' for Inactive)
REMARK    1  A    between atoms: C_1  and  C_2
REMARK    2  A    between atoms: C_2  and  N_3
REMARK    3  A    between atoms: N_3  and  C_4
REMARK    4  A    between atoms: C_4  and  C_5
REMARK    5  A    between atoms: C_8  and  C_9
REMARK    6  A    between atoms: C_9  and  O_10
REMARK    7  A    between atoms: O_10  and  C_11
REMARK    8  A    between atoms: C_19  and  C_21
REMARK                            x       y       z     vdW  Elec       q    Type
REMARK                         _______ _______ _______ _____ _____    ______ ____
ROOT
ATOM      1  N   UNL     1      49.255   7.955  15.870  0.00  0.00    +0.000 N 
ATOM      2  C   UNL     1      49.703   7.566  17.154  0.00  0.00    +0.000 C 
ATOM      3  O   UNL     1      49.689   8.380  18.082  0.00  0.00    +0.000 OA
ENDROOT
BRANCH   2   4
ATOM      4  C   UNL     1      50.085   6.166  17.470  0.00  0.00    +0.000 A 
ATOM      5  C   UNL     1      51.341   5.585  17.384  0.00  0.00    +0.000 A 
ATOM      6  S   UNL     1      51.335   3.876  17.492  0.00  0.00    +0.000 S 
ATOM      7  C   UNL     1      49.646   3.849  17.639  0.00  0.00    +0.000 A 
ATOM      8  N   UNL     1      48.958   2.676  17.641  0.00  0.00    +0.000 NA
ATOM      9  C   UNL     1      47.682   2.820  17.766  0.00  0.00    +0.000 A 
ATOM     10  N   UNL     1      47.034   4.017  17.940  0.00  0.00    +0.000 N 
ATOM     11  C   UNL     1      47.708   5.217  18.056  0.00  0.00    +0.000 A 
ATOM     12  O   UNL     1      47.146   6.221  18.486  0.00  0.00    +0.000 OA
ATOM     13  C   UNL     1      49.121   5.123  17.756  0.00  0.00    +0.000 A 
ATOM     14  H   UNL     1      46.052   4.048  18.155  0.00  0.00    +0.000 HD
ENDBRANCH   2   4
BRANCH   1  16
ATOM     15  C   UNL     1      49.063  10.223  14.834  0.00  0.00    +0.000 C 
ATOM     16  C   UNL     1      48.484   9.203  15.817  0.00  0.00    +0.000 C 
ENDBRANCH   1  16
BRANCH   1  17
ATOM     17  C   UNL     1      49.198   7.015  14.764  0.00  0.00    +0.000 C 
BRANCH  17  18
ATOM     18  C   UNL     1      47.896   6.572  14.140  0.00  0.00    +0.000 A 
ATOM     19  C   UNL     1      47.319   7.270  13.070  0.00  0.00    +0.000 A 
ATOM     20  C   UNL     1      46.333   6.661  12.279  0.00  0.00    +0.000 A 
ATOM     21  C   UNL     1      45.904   5.354  12.552  0.00  0.00    +0.000 A 
ATOM     22  C   UNL     1      46.433   4.689  13.664  0.00  0.00    +0.000 A 
ATOM     23  C   UNL     1      47.401   5.299  14.461  0.00  0.00    +0.000 A 
BRANCH  21  24
ATOM     24  C   UNL     1      44.917   4.640  11.653  0.00  0.00    +0.000 C 
BRANCH  24  25
ATOM     25  O   UNL     1      44.921   5.249  10.361  0.00  0.00    +0.000 OA
BRANCH  25  26
ATOM     26  C   UNL     1      45.370   4.363   9.400  0.00  0.00    +0.000 A 
ATOM     27  N   UNL     1      45.067   3.073   9.619  0.00  0.00    +0.000 NA
ATOM     28  C   UNL     1      45.503   2.200   8.691  0.00  0.00    +0.000 A 
ATOM     29  C   UNL     1      46.205   2.568   7.567  0.00  0.00    +0.000 A 
ATOM     30  C   UNL     1      46.441   3.915   7.432  0.00  0.00    +0.000 A 
ATOM     31  N   UNL     1      46.038   4.831   8.333  0.00  0.00    +0.000 NA
ENDBRANCH  25  26
ENDBRANCH  24  25
ENDBRANCH  21  24
ENDBRANCH  17  18
ENDBRANCH   1  17
TORSDOF 7
ENDMDL
MODEL 7
REMARK VINA RESULT:    -6.543      3.479      8.026
REMARK INTER + INTRA:         -10.689
REMARK INTER:                  -9.619
REMARK INTRA:                  -1.069
REMARK UNBOUND:                -1.469
REMARK  Name = 
REMARK  8 active torsions:
REMARK  status: ('A' for Active; 'I' for Inactive)
REMARK    1  A    between atoms: C_1  and  C_2
REMARK    2  A    between atoms: C_2  and  N_3
REMARK    3  A    between atoms: N_3  and  C_4
REMARK    4  A    between atoms: C_4  and  C_5
REMARK    5  A    between atoms: C_8  and  C_9
REMARK    6  A    between atoms: C_9  and  O_10
REMARK    7  A    between atoms: O_10  and  C_11
REMARK    8  A    between atoms: C_19  and  C_21
REMARK                            x       y       z     vdW  Elec       q    Type
REMARK                         _______ _______ _______ _____ _____    ______ ____
ROOT
ATOM      1  N   UNL     1      46.429   7.664  12.529  0.00  0.00    +0.000 N 
ATOM      2  C   UNL     1      45.432   7.310  11.590  0.00  0.00    +0.000 C 
ATOM      3  O   UNL     1      44.558   8.127  11.284  0.00  0.00    +0.000 OA
ENDROOT
BRANCH   2   4
ATOM      4  C   UNL     1      45.459   6.020  10.854  0.00  0.00    +0.000 A 
ATOM      5  C   UNL     1      46.015   5.759   9.612  0.00  0.00    +0.000 A 
ATOM      6  S   UNL     1      45.552   4.256   8.934  0.00  0.00    +0.000 S 
ATOM      7  C   UNL     1      44.573   3.907  10.273  0.00  0.00    +0.000 A 
ATOM      8  N   UNL     1      43.769   2.810  10.290  0.00  0.00    +0.000 NA
ATOM      9  C   UNL     1      43.091   2.677  11.379  0.00  0.00    +0.000 A 
ATOM     10  N   UNL     1      43.176   3.506  12.470  0.00  0.00    +0.000 N 
ATOM     11  C   UNL     1      44.063   4.563  12.533  0.00  0.00    +0.000 A 
ATOM     12  O   UNL     1      44.322   5.109  13.602  0.00  0.00    +0.000 OA
ATOM     13  C   UNL     1      44.721   4.847  11.277  0.00  0.00    +0.000 A 
ATOM     14  H   UNL     1      42.712   3.276  13.332  0.00  0.00    +0.000 HD
ENDBRANCH   2   4
BRANCH   1  16
ATOM     15  C   UNL     1      47.675   9.775  12.029  0.00  0.00    +0.000 C 
ATOM     16  C   UNL     1      46.550   9.098  12.817  0.00  0.00    +0.000 C 
ENDBRANCH   1  16
BRANCH   1  17
ATOM     17  C   UNL     1      47.509   6.757  12.874  0.00  0.00    +0.000 C 
BRANCH  17  18
ATOM     18  C   UNL     1      47.614   6.096  14.228  0.00  0.00    +0.000 A 
ATOM     19  C   UNL     1      47.079   4.823  14.467  0.00  0.00    +0.000 A 
ATOM     20  C   UNL     1      47.490   4.082  15.585  0.00  0.00    +0.000 A 
ATOM     21  C   UNL     1      48.431   4.606  16.484  0.00  0.00    +0.000 A 
ATOM     22  C   UNL     1      48.908   5.906  16.278  0.00  0.00    +0.000 A 
ATOM     23  C   UNL     1      48.488   6.649  15.175  0.00  0.00    +0.000 A 
BRANCH  21  24
ATOM     24  C   UNL     1      48.964   3.787  17.640  0.00  0.00    +0.000 C 
BRANCH  24  25
ATOM     25  O   UNL     1      49.392   2.510  17.163  0.00  0.00    +0.000 OA
BRANCH  25  26
ATOM     26  C   UNL     1      50.723   2.292  17.468  0.00  0.00    +0.000 A 
ATOM     27  N   UNL     1      51.421   3.385  17.819  0.00  0.00    +0.000 NA
ATOM     28  C   UNL     1      52.720   3.185  18.114  0.00  0.00    +0.000 A 
ATOM     29  C   UNL     1      53.328   1.951  18.084  0.00  0.00    +0.000 A 
ATOM     30  C   UNL     1      52.515   0.900  17.733  0.00  0.00    +0.000 A 
ATOM     31  N   UNL     1      51.214   1.043  17.418  0.00  0.00    +0.000 NA
ENDBRANCH  25  26
ENDBRANCH  24  25
ENDBRANCH  21  24
ENDBRANCH  17  18
ENDBRANCH   1  17
TORSDOF 7
ENDMDL
MODEL 8
REMARK VINA RESULT:    -6.237      3.044      4.120
REMARK INTER + INTRA:         -10.258
REMARK INTER:                  -9.436
REMARK INTRA:                  -0.822
REMARK UNBOUND:                -1.469
REMARK  Name = 
REMARK  8 active torsions:
REMARK  status: ('A' for Active; 'I' for Inactive)
REMARK    1  A    between atoms: C_1  and  C_2
REMARK    2  A    between atoms: C_2  and  N_3
REMARK    3  A    between atoms: N_3  and  C_4
REMARK    4  A    between atoms: C_4  and  C_5
REMARK    5  A    between atoms: C_8  and  C_9
REMARK    6  A    between atoms: C_9  and  O_10
REMARK    7  A    between atoms: O_10  and  C_11
REMARK    8  A    between atoms: C_19  and  C_21
REMARK                            x       y       z     vdW  Elec       q    Type
REMARK                         _______ _______ _______ _____ _____    ______ ____
ROOT
ATOM      1  N   UNL     1      47.210   8.458  13.300  0.00  0.00    +0.000 N 
ATOM      2  C   UNL     1      48.299   9.355  13.409  0.00  0.00    +0.000 C 
ATOM      3  O   UNL     1      48.129  10.557  13.186  0.00  0.00    +0.000 OA
ENDROOT
BRANCH   2   4
ATOM      4  C   UNL     1      49.632   8.926  13.903  0.00  0.00    +0.000 A 
ATOM      5  C   UNL     1      50.133   9.018  15.193  0.00  0.00    +0.000 A 
ATOM      6  S   UNL     1      51.819   8.747  15.315  0.00  0.00    +0.000 S 
ATOM      7  C   UNL     1      51.945   8.515  13.640  0.00  0.00    +0.000 A 
ATOM      8  N   UNL     1      53.156   8.367  13.038  0.00  0.00    +0.000 NA
ATOM      9  C   UNL     1      53.087   8.193  11.762  0.00  0.00    +0.000 A 
ATOM     10  N   UNL     1      51.924   8.103  11.038  0.00  0.00    +0.000 N 
ATOM     11  C   UNL     1      50.677   8.136  11.629  0.00  0.00    +0.000 A 
ATOM     12  O   UNL     1      49.676   7.777  11.014  0.00  0.00    +0.000 OA
ATOM     13  C   UNL     1      50.704   8.494  13.030  0.00  0.00    +0.000 A 
ATOM     14  H   UNL     1      51.939   7.844  10.066  0.00  0.00    +0.000 HD
ENDBRANCH   2   4
BRANCH   1  16
ATOM     15  C   UNL     1      45.473   9.536  11.860  0.00  0.00    +0.000 C 
ATOM     16  C   UNL     1      45.879   9.076  13.261  0.00  0.00    +0.000 C 
ENDBRANCH   1  16
BRANCH   1  17
ATOM     17  C   UNL     1      47.350   7.046  13.609  0.00  0.00    +0.000 C 
BRANCH  17  18
ATOM     18  C   UNL     1      46.788   5.961  12.723  0.00  0.00    +0.000 A 
ATOM     19  C   UNL     1      46.305   4.756  13.253  0.00  0.00    +0.000 A 
ATOM     20  C   UNL     1      45.470   3.930  12.485  0.00  0.00    +0.000 A 
ATOM     21  C   UNL     1      45.117   4.290  11.176  0.00  0.00    +0.000 A 
ATOM     22  C   UNL     1      45.659   5.458  10.628  0.00  0.00    +0.000 A 
ATOM     23  C   UNL     1      46.501   6.272  11.386  0.00  0.00    +0.000 A 
BRANCH  21  24
ATOM     24  C   UNL     1      44.138   3.467  10.365  0.00  0.00    +0.000 C 
BRANCH  24  25
ATOM     25  O   UNL     1      44.189   3.876   8.997  0.00  0.00    +0.000 OA
BRANCH  25  26
ATOM     26  C   UNL     1      45.211   3.231   8.328  0.00  0.00    +0.000 A 
ATOM     27  N   UNL     1      45.398   1.943   8.664  0.00  0.00    +0.000 NA
ATOM     28  C   UNL     1      46.394   1.305   8.020  0.00  0.00    +0.000 A 
ATOM     29  C   UNL     1      47.185   1.896   7.062  0.00  0.00    +0.000 A 
ATOM     30  C   UNL     1      46.892   3.209   6.781  0.00  0.00    +0.000 A 
ATOM     31  N   UNL     1      45.915   3.899   7.400  0.00  0.00    +0.000 NA
ENDBRANCH  25  26
ENDBRANCH  24  25
ENDBRANCH  21  24
ENDBRANCH  17  18
ENDBRANCH   1  17
TORSDOF 7
ENDMDL
MODEL 9
REMARK VINA RESULT:    -6.127      2.625      3.881
REMARK INTER + INTRA:         -10.103
REMARK INTER:                  -8.987
REMARK INTRA:                  -1.116
REMARK UNBOUND:                -1.469
REMARK  Name = 
REMARK  8 active torsions:
REMARK  status: ('A' for Active; 'I' for Inactive)
REMARK    1  A    between atoms: C_1  and  C_2
REMARK    2  A    between atoms: C_2  and  N_3
REMARK    3  A    between atoms: N_3  and  C_4
REMARK    4  A    between atoms: C_4  and  C_5
REMARK    5  A    between atoms: C_8  and  C_9
REMARK    6  A    between atoms: C_9  and  O_10
REMARK    7  A    between atoms: O_10  and  C_11
REMARK    8  A    between atoms: C_19  and  C_21
REMARK                            x       y       z     vdW  Elec       q    Type
REMARK                         _______ _______ _______ _____ _____    ______ ____
ROOT
ATOM      1  N   UNL     1      46.973   6.181  14.230  0.00  0.00    +0.000 N 
ATOM      2  C   UNL     1      48.317   6.621  14.280  0.00  0.00    +0.000 C 
ATOM      3  O   UNL     1      49.146   5.989  14.942  0.00  0.00    +0.000 OA
ENDROOT
BRANCH   2   4
ATOM      4  C   UNL     1      48.808   7.760  13.464  0.00  0.00    +0.000 A 
ATOM      5  C   UNL     1      49.205   7.748  12.136  0.00  0.00    +0.000 A 
ATOM      6  S   UNL     1      50.035   9.160  11.635  0.00  0.00    +0.000 S 
ATOM      7  C   UNL     1      49.909   9.833  13.187  0.00  0.00    +0.000 A 
ATOM      8  N   UNL     1      50.533  11.001  13.500  0.00  0.00    +0.000 NA
ATOM      9  C   UNL     1      50.338  11.387  14.715  0.00  0.00    +0.000 A 
ATOM     10  N   UNL     1      49.541  10.746  15.630  0.00  0.00    +0.000 N 
ATOM     11  C   UNL     1      48.803   9.622  15.315  0.00  0.00    +0.000 A 
ATOM     12  O   UNL     1      47.896   9.235  16.045  0.00  0.00    +0.000 OA
ATOM     13  C   UNL     1      49.119   9.062  14.019  0.00  0.00    +0.000 A 
ATOM     14  H   UNL     1      49.334  11.166  16.520  0.00  0.00    +0.000 HD
ENDBRANCH   2   4
BRANCH   1  16
ATOM     15  C   UNL     1      47.136   3.750  13.664  0.00  0.00    +0.000 C 
ATOM     16  C   UNL     1      46.736   4.809  14.695  0.00  0.00    +0.000 C 
ENDBRANCH   1  16
BRANCH   1  17
ATOM     17  C   UNL     1      45.977   6.859  13.419  0.00  0.00    +0.000 C 
BRANCH  17  18
ATOM     18  C   UNL     1      45.363   6.228  12.192  0.00  0.00    +0.000 A 
ATOM     19  C   UNL     1      46.049   6.179  10.970  0.00  0.00    +0.000 A 
ATOM     20  C   UNL     1      45.638   5.291   9.964  0.00  0.00    +0.000 A 
ATOM     21  C   UNL     1      44.531   4.453  10.160  0.00  0.00    +0.000 A 
ATOM     22  C   UNL     1      43.808   4.558  11.354  0.00  0.00    +0.000 A 
ATOM     23  C   UNL     1      44.207   5.450  12.348  0.00  0.00    +0.000 A 
BRANCH  21  24
ATOM     24  C   UNL     1      44.129   3.418   9.130  0.00  0.00    +0.000 C 
BRANCH  24  25
ATOM     25  O   UNL     1      44.984   2.278   9.240  0.00  0.00    +0.000 OA
BRANCH  25  26
ATOM     26  C   UNL     1      45.849   2.206   8.165  0.00  0.00    +0.000 A 
ATOM     27  N   UNL     1      46.600   1.093   8.103  0.00  0.00    +0.000 NA
ATOM     28  C   UNL     1      47.449   1.013   7.060  0.00  0.00    +0.000 A 
ATOM     29  C   UNL     1      47.561   1.983   6.091  0.00  0.00    +0.000 A 
ATOM     30  C   UNL     1      46.730   3.067   6.241  0.00  0.00    +0.000 A 
ATOM     31  N   UNL     1      45.870   3.205   7.268  0.00  0.00    +0.000 NA
ENDBRANCH  25  26
ENDBRANCH  24  25
ENDBRANCH  21  24
ENDBRANCH  17  18
ENDBRANCH   1  17
TORSDOF 7
ENDMDL
