MODEL 1
REMARK VINA RESULT:    -7.485      0.000      0.000
REMARK INTER + INTRA:         -12.859
REMARK INTER:                 -11.424
REMARK INTRA:                  -1.435
REMARK UNBOUND:                -1.435
REMARK  Name = 
REMARK  10 active torsions:
REMARK  status: ('A' for Active; 'I' for Inactive)
REMARK    1  A    between atoms: C_1  and  C_2
REMARK    2  A    between atoms: C_2  and  C_3
REMARK    3  A    between atoms: C_3  and  N_4
REMARK    4  A    between atoms: C_3  and  C_20
REMARK    5  A    between atoms: N_4  and  C_5
REMARK    6  A    between atoms: C_5  and  C_6
REMARK    7  A    between atoms: C_9  and  C_10
REMARK    8  A    between atoms: C_10  and  N_11
REMARK    9  A    between atoms: N_11  and  C_12
REMARK   10  A    between atoms: C_12  and  C_13
REMARK                            x       y       z     vdW  Elec       q    Type
REMARK                         _______ _______ _______ _____ _____    ______ ____
ROOT
ATOM      1  C   UNL     1      46.455   8.201  12.943  0.00  0.00    +0.000 C 
ENDROOT
BRANCH   1   2
ATOM      2  C   UNL     1      45.811   6.989  12.313  0.00  0.00    +0.000 A 
ATOM      3  C   UNL     1      44.646   6.434  12.863  0.00  0.00    +0.000 A 
ATOM      4  C   UNL     1      43.994   5.375  12.227  0.00  0.00    +0.000 A 
ATOM      5  C   UNL     1      44.487   4.851  11.024  0.00  0.00    +0.000 A 
ATOM      6  C   UNL     1      45.647   5.409  10.472  0.00  0.00    +0.000 A 
ATOM      7  C   UNL     1      46.301   6.468  11.109  0.00  0.00    +0.000 A 
BRANCH   5   8
ATOM      8  C   UNL     1      43.812   3.673  10.359  0.00  0.00    +0.000 C 
BRANCH   8   9
ATOM      9  N   UNL     1      44.231   3.514   8.969  0.00  0.00    +0.000 NA
ATOM     10  H   UNL     1      44.896   4.250   8.729  0.00  0.00    +0.000 HD
BRANCH   9  11
ATOM     11  C   UNL     1      44.908   2.227   8.787  0.00  0.00    +0.000 C 
BRANCH  11  12
ATOM     12  C   UNL     1      46.105   2.438   7.921  0.00  0.00    +0.000 A 
ATOM     13  C   UNL     1      46.554   3.605   7.335  0.00  0.00    +0.000 A 
ATOM     14  N   UNL     1      47.689   3.257   6.661  0.00  0.00    +0.000 N 
ATOM     15  C   UNL     1      47.888   1.920   6.848  0.00  0.00    +0.000 A 
ATOM     16  N   UNL     1      46.949   1.395   7.603  0.00  0.00    +0.000 NA
ATOM     17  H   UNL     1      48.282   3.875   6.124  0.00  0.00    +0.000 HD
ENDBRANCH  11  12
ENDBRANCH   9  11
ENDBRANCH   8   9
ENDBRANCH   5   8
ENDBRANCH   1   2
BRANCH   1  18
ATOM     18  N   UNL     1      47.093   7.915  14.233  0.00  0.00    +0.000 NA
ATOM     19  H   UNL     1      46.436   7.351  14.772  0.00  0.00    +0.000 HD
BRANCH  18  20
ATOM     20  C   UNL     1      48.336   7.135  14.070  0.00  0.00    +0.000 C 
BRANCH  20  21
ATOM     21  C   UNL     1      48.722   6.634  15.457  0.00  0.00    +0.000 A 
ATOM     22  C   UNL     1      49.575   7.280  16.340  0.00  0.00    +0.000 A 
ATOM     23  S   UNL     1      49.850   6.407  17.785  0.00  0.00    +0.000 S 
ATOM     24  C   UNL     1      48.799   5.158  17.302  0.00  0.00    +0.000 A 
ATOM     25  N   UNL     1      48.570   4.077  18.096  0.00  0.00    +0.000 NA
ATOM     26  C   UNL     1      47.737   3.223  17.603  0.00  0.00    +0.000 A 
ATOM     27  N   UNL     1      47.111   3.350  16.390  0.00  0.00    +0.000 N 
ATOM     28  C   UNL     1      47.300   4.427  15.554  0.00  0.00    +0.000 A 
ATOM     29  O   UNL     1      46.699   4.527  14.493  0.00  0.00    +0.000 OA
ATOM     30  C   UNL     1      48.248   5.407  16.058  0.00  0.00    +0.000 A 
ATOM     31  H   UNL     1      46.455   2.653  16.070  0.00  0.00    +0.000 HD
ENDBRANCH  20  21
BRANCH  20  33
ATOM     32  C   UNL     1      49.802   7.451  11.978  0.00  0.00    +0.000 C 
ATOM     33  C   UNL     1      49.451   7.951  13.373  0.00  0.00    +0.000 C 
ENDBRANCH  20  33
ENDBRANCH  18  20
ENDBRANCH   1  18
TORSDOF 9
ENDMDL
MODEL 2
REMARK VINA RESULT:    -7.106      2.167      3.070
REMARK INTER + INTRA:         -12.279
REMARK INTER:                 -11.547
REMARK INTRA:                  -0.732
REMARK UNBOUND:                -1.435
REMARK  Name = 
REMARK  10 active torsions:
REMARK  status: ('A' for Active; 'I' for Inactive)
REMARK    1  A    between atoms: C_1  and  C_2
REMARK    2  A    between atoms: C_2  and  C_3
REMARK    3  A    between atoms: C_3  and  N_4
REMARK    4  A    between atoms: C_3  and  C_20
REMARK    5  A    between atoms: N_4  and  C_5
REMARK    6  A    between atoms: C_5  and  C_6
REMARK    7  A    between atoms: C_9  and  C_10
REMARK    8  A    between atoms: C_10  and  N_11
REMARK    9  A    between atoms: N_11  and  C_12
REMARK   10  A    between atoms: C_12  and  C_13
REMARK                            x       y       z     vdW  Elec       q    Type
REMARK                         _______ _______ _______ _____ _____    ______ ____
ROOT
ATOM      1  C   UNL     1      47.932   5.934  14.503  0.00  0.00    +0.000 C 
ENDROOT
BRANCH   1   2
ATOM      2  C   UNL     1      47.004   5.492  13.397  0.00  0.00    +0.000 A 
ATOM      3  C   UNL     1      46.174   4.374  13.566  0.00  0.00    +0.000 A 
ATOM      4  C   UNL     1      45.244   4.023  12.585  0.00  0.00    +0.000 A 
ATOM      5  C   UNL     1      45.118   4.784  11.414  0.00  0.00    +0.000 A 
ATOM      6  C   UNL     1      45.943   5.904  11.248  0.00  0.00    +0.000 A 
ATOM      7  C   UNL     1      46.875   6.255  12.229  0.00  0.00    +0.000 A 
BRANCH   5   8
ATOM      8  C   UNL     1      44.148   4.379  10.329  0.00  0.00    +0.000 C 
BRANCH   8   9
ATOM      9  N   UNL     1      44.639   3.247   9.547  0.00  0.00    +0.000 NA
ATOM     10  H   UNL     1      43.869   2.601   9.367  0.00  0.00    +0.000 HD
BRANCH   9  11
ATOM     11  C   UNL     1      45.146   3.706   8.251  0.00  0.00    +0.000 C 
BRANCH  11  12
ATOM     12  C   UNL     1      46.187   2.746   7.781  0.00  0.00    +0.000 A 
ATOM     13  C   UNL     1      47.280   2.983   6.972  0.00  0.00    +0.000 A 
ATOM     14  N   UNL     1      47.914   1.779   6.858  0.00  0.00    +0.000 N 
ATOM     15  C   UNL     1      47.199   0.866   7.579  0.00  0.00    +0.000 A 
ATOM     16  N   UNL     1      46.150   1.417   8.148  0.00  0.00    +0.000 NA
ATOM     17  H   UNL     1      48.761   1.592   6.340  0.00  0.00    +0.000 HD
ENDBRANCH  11  12
ENDBRANCH   9  11
ENDBRANCH   8   9
ENDBRANCH   5   8
ENDBRANCH   1   2
BRANCH   1  18
ATOM     18  N   UNL     1      48.265   4.858  15.446  0.00  0.00    +0.000 NA
ATOM     19  H   UNL     1      49.196   4.524  15.199  0.00  0.00    +0.000 HD
BRANCH  18  20
ATOM     20  C   UNL     1      48.309   5.344  16.839  0.00  0.00    +0.000 C 
BRANCH  20  21
ATOM     21  C   UNL     1      49.692   4.996  17.379  0.00  0.00    +0.000 A 
ATOM     22  C   UNL     1      50.571   5.887  17.978  0.00  0.00    +0.000 A 
ATOM     23  S   UNL     1      52.070   5.182  18.405  0.00  0.00    +0.000 S 
ATOM     24  C   UNL     1      51.576   3.650  17.853  0.00  0.00    +0.000 A 
ATOM     25  N   UNL     1      52.399   2.569  17.930  0.00  0.00    +0.000 NA
ATOM     26  C   UNL     1      51.879   1.473  17.488  0.00  0.00    +0.000 A 
ATOM     27  N   UNL     1      50.613   1.358  16.974  0.00  0.00    +0.000 N 
ATOM     28  C   UNL     1      49.739   2.417  16.882  0.00  0.00    +0.000 A 
ATOM     29  O   UNL     1      48.602   2.274  16.451  0.00  0.00    +0.000 OA
ATOM     30  C   UNL     1      50.288   3.679  17.350  0.00  0.00    +0.000 A 
ATOM     31  H   UNL     1      50.260   0.467  16.660  0.00  0.00    +0.000 HD
ENDBRANCH  20  21
BRANCH  20  33
ATOM     32  C   UNL     1      46.865   5.576  18.957  0.00  0.00    +0.000 C 
ATOM     33  C   UNL     1      47.149   4.776  17.693  0.00  0.00    +0.000 C 
ENDBRANCH  20  33
ENDBRANCH  18  20
ENDBRANCH   1  18
TORSDOF 9
ENDMDL
MODEL 3
REMARK VINA RESULT:    -7.069      1.670      2.007
REMARK INTER + INTRA:         -12.224
REMARK INTER:                 -11.054
REMARK INTRA:                  -1.170
REMARK UNBOUND:                -1.435
REMARK  Name = 
REMARK  10 active torsions:
REMARK  status: ('A' for Active; 'I' for Inactive)
REMARK    1  A    between atoms: C_1  and  C_2
REMARK    2  A    between atoms: C_2  and  C_3
REMARK    3  A    between atoms: C_3  and  N_4
REMARK    4  A    between atoms: C_3  and  C_20
REMARK    5  A    between atoms: N_4  and  C_5
REMARK    6  A    between atoms: C_5  and  C_6
REMARK    7  A    between atoms: C_9  and  C_10
REMARK    8  A    between atoms: C_10  and  N_11
REMARK    9  A    between atoms: N_11  and  C_12
REMARK   10  A    between atoms: C_12  and  C_13
REMARK                            x       y       z     vdW  Elec       q    Type
REMARK                         _______ _______ _______ _____ _____    ______ ____
ROOT
ATOM      1  C   UNL     1      47.828   6.583  13.587  0.00  0.00    +0.000 C 
ENDROOT
BRANCH   1   2
ATOM      2  C   UNL     1      46.847   5.751  12.797  0.00  0.00    +0.000 A 
ATOM      3  C   UNL     1      46.363   4.540  13.311  0.00  0.00    +0.000 A 
ATOM      4  C   UNL     1      45.382   3.818  12.628  0.00  0.00    +0.000 A 
ATOM      5  C   UNL     1      44.857   4.293  11.418  0.00  0.00    +0.000 A 
ATOM      6  C   UNL     1      45.336   5.506  10.908  0.00  0.00    +0.000 A 
ATOM      7  C   UNL     1      46.320   6.228  11.590  0.00  0.00    +0.000 A 
BRANCH   5   8
ATOM      8  C   UNL     1      43.831   3.491  10.652  0.00  0.00    +0.000 C 
BRANCH   8   9
ATOM      9  N   UNL     1      44.190   3.340   9.244  0.00  0.00    +0.000 NA
ATOM     10  H   UNL     1      44.806   4.107   8.968  0.00  0.00    +0.000 HD
BRANCH   9  11
ATOM     11  C   UNL     1      44.922   2.087   9.037  0.00  0.00    +0.000 C 
BRANCH  11  12
ATOM     12  C   UNL     1      46.046   2.344   8.090  0.00  0.00    +0.000 A 
ATOM     13  C   UNL     1      46.443   3.538   7.522  0.00  0.00    +0.000 A 
ATOM     14  N   UNL     1      47.523   3.227   6.746  0.00  0.00    +0.000 N 
ATOM     15  C   UNL     1      47.740   1.884   6.859  0.00  0.00    +0.000 A 
ATOM     16  N   UNL     1      46.866   1.320   7.662  0.00  0.00    +0.000 NA
ATOM     17  H   UNL     1      48.070   3.872   6.192  0.00  0.00    +0.000 HD
ENDBRANCH  11  12
ENDBRANCH   9  11
ENDBRANCH   8   9
ENDBRANCH   5   8
ENDBRANCH   1   2
BRANCH   1  18
ATOM     18  N   UNL     1      48.187   5.986  14.880  0.00  0.00    +0.000 NA
ATOM     19  H   UNL     1      48.539   5.049  14.687  0.00  0.00    +0.000 HD
BRANCH  18  20
ATOM     20  C   UNL     1      49.258   6.744  15.556  0.00  0.00    +0.000 C 
BRANCH  20  21
ATOM     21  C   UNL     1      48.809   6.939  17.000  0.00  0.00    +0.000 A 
ATOM     22  C   UNL     1      48.303   8.114  17.537  0.00  0.00    +0.000 A 
ATOM     23  S   UNL     1      47.964   8.009  19.210  0.00  0.00    +0.000 S 
ATOM     24  C   UNL     1      48.433   6.374  19.265  0.00  0.00    +0.000 A 
ATOM     25  N   UNL     1      48.383   5.660  20.422  0.00  0.00    +0.000 NA
ATOM     26  C   UNL     1      48.754   4.429  20.303  0.00  0.00    +0.000 A 
ATOM     27  N   UNL     1      49.170   3.845  19.134  0.00  0.00    +0.000 N 
ATOM     28  C   UNL     1      49.230   4.521  17.936  0.00  0.00    +0.000 A 
ATOM     29  O   UNL     1      49.573   3.961  16.903  0.00  0.00    +0.000 OA
ATOM     30  C   UNL     1      48.841   5.918  18.024  0.00  0.00    +0.000 A 
ATOM     31  H   UNL     1      49.430   2.871  19.105  0.00  0.00    +0.000 HD
ENDBRANCH  20  21
BRANCH  20  33
ATOM     32  C   UNL     1      51.026   8.160  14.334  0.00  0.00    +0.000 C 
ATOM     33  C   UNL     1      49.588   8.069  14.826  0.00  0.00    +0.000 C 
ENDBRANCH  20  33
ENDBRANCH  18  20
ENDBRANCH   1  18
TORSDOF 9
ENDMDL
MODEL 4
REMARK VINA RESULT:    -6.791      2.369      3.595
REMARK INTER + INTRA:         -11.798
REMARK INTER:                 -10.922
REMARK INTRA:                  -0.876
REMARK UNBOUND:                -1.435
REMARK  Name = 
REMARK  10 active torsions:
REMARK  status: ('A' for Active; 'I' for Inactive)
REMARK    1  A    between atoms: C_1  and  C_2
REMARK    2  A    between atoms: C_2  and  C_3
REMARK    3  A    between atoms: C_3  and  N_4
REMARK    4  A    between atoms: C_3  and  C_20
REMARK    5  A    between atoms: N_4  and  C_5
REMARK    6  A    between atoms: C_5  and  C_6
REMARK    7  A    between atoms: C_9  and  C_10
REMARK    8  A    between atoms: C_10  and  N_11
REMARK    9  A    between atoms: N_11  and  C_12
REMARK   10  A    between atoms: C_12  and  C_13
REMARK                            x       y       z     vdW  Elec       q    Type
REMARK                         _______ _______ _______ _____ _____    ______ ____
ROOT
ATOM      1  C   UNL     1      47.588   5.158  14.728  0.00  0.00    +0.000 C 
ENDROOT
BRANCH   1   2
ATOM      2  C   UNL     1      46.581   4.999  13.614  0.00  0.00    +0.000 A 
ATOM      3  C   UNL     1      46.123   6.115  12.902  0.00  0.00    +0.000 A 
ATOM      4  C   UNL     1      45.268   5.960  11.808  0.00  0.00    +0.000 A 
ATOM      5  C   UNL     1      44.856   4.684  11.398  0.00  0.00    +0.000 A 
ATOM      6  C   UNL     1      45.319   3.569  12.106  0.00  0.00    +0.000 A 
ATOM      7  C   UNL     1      46.173   3.723  13.202  0.00  0.00    +0.000 A 
BRANCH   5   8
ATOM      8  C   UNL     1      43.893   4.515  10.246  0.00  0.00    +0.000 C 
BRANCH   8   9
ATOM      9  N   UNL     1      44.584   4.395   8.965  0.00  0.00    +0.000 NA
ATOM     10  H   UNL     1      45.527   4.776   9.053  0.00  0.00    +0.000 HD
BRANCH   9  11
ATOM     11  C   UNL     1      44.708   2.986   8.584  0.00  0.00    +0.000 C 
BRANCH  11  12
ATOM     12  C   UNL     1      45.999   2.800   7.860  0.00  0.00    +0.000 A 
ATOM     13  C   UNL     1      46.789   3.750   7.242  0.00  0.00    +0.000 A 
ATOM     14  N   UNL     1      47.859   3.062   6.745  0.00  0.00    +0.000 N 
ATOM     15  C   UNL     1      47.687   1.745   7.063  0.00  0.00    +0.000 A 
ATOM     16  N   UNL     1      46.575   1.553   7.735  0.00  0.00    +0.000 NA
ATOM     17  H   UNL     1      48.641   3.453   6.239  0.00  0.00    +0.000 HD
ENDBRANCH  11  12
ENDBRANCH   9  11
ENDBRANCH   8   9
ENDBRANCH   5   8
ENDBRANCH   1   2
BRANCH   1  18
ATOM     18  N   UNL     1      47.119   4.629  16.015  0.00  0.00    +0.000 NA
ATOM     19  H   UNL     1      47.213   3.615  15.972  0.00  0.00    +0.000 HD
BRANCH  18  20
ATOM     20  C   UNL     1      47.941   5.116  17.140  0.00  0.00    +0.000 C 
BRANCH  20  21
ATOM     21  C   UNL     1      49.139   4.179  17.243  0.00  0.00    +0.000 A 
ATOM     22  C   UNL     1      49.097   2.798  17.115  0.00  0.00    +0.000 A 
ATOM     23  S   UNL     1      50.614   2.044  17.357  0.00  0.00    +0.000 S 
ATOM     24  C   UNL     1      51.389   3.541  17.590  0.00  0.00    +0.000 A 
ATOM     25  N   UNL     1      52.724   3.617  17.841  0.00  0.00    +0.000 NA
ATOM     26  C   UNL     1      53.171   4.820  17.978  0.00  0.00    +0.000 A 
ATOM     27  N   UNL     1      52.407   5.956  17.888  0.00  0.00    +0.000 N 
ATOM     28  C   UNL     1      51.056   5.934  17.626  0.00  0.00    +0.000 A 
ATOM     29  O   UNL     1      50.408   6.967  17.516  0.00  0.00    +0.000 OA
ATOM     30  C   UNL     1      50.502   4.597  17.484  0.00  0.00    +0.000 A 
ATOM     31  H   UNL     1      52.823   6.869  17.988  0.00  0.00    +0.000 HD
ENDBRANCH  20  21
BRANCH  20  33
ATOM     32  C   UNL     1      47.363   6.524  19.216  0.00  0.00    +0.000 C 
ATOM     33  C   UNL     1      47.127   5.228  18.453  0.00  0.00    +0.000 C 
ENDBRANCH  20  33
ENDBRANCH  18  20
ENDBRANCH   1  18
TORSDOF 9
ENDMDL
MODEL 5
REMARK VINA RESULT:    -6.460      2.140      2.991
REMARK INTER + INTRA:         -11.293
REMARK INTER:                 -10.129
REMARK INTRA:                  -1.164
REMARK UNBOUND:                -1.435
REMARK  Name = 
REMARK  10 active torsions:
REMARK  status: ('A' for Active; 'I' for Inactive)
REMARK    1  A    between atoms: C_1  and  C_2
REMARK    2  A    between atoms: C_2  and  C_3
REMARK    3  A    between atoms: C_3  and  N_4
REMARK    4  A    between atoms: C_3  and  C_20
REMARK    5  A    between atoms: N_4  and  C_5
REMARK    6  A    between atoms: C_5  and  C_6
REMARK    7  A    between atoms: C_9  and  C_10
REMARK    8  A    between atoms: C_10  and  N_11
REMARK    9  A    between atoms: N_11  and  C_12
REMARK   10  A    between atoms: C_12  and  C_13
REMARK                            x       y       z     vdW  Elec       q    Type
REMARK                         _______ _______ _______ _____ _____    ______ ____
ROOT
ATOM      1  C   UNL     1      48.582   6.957  14.172  0.00  0.00    +0.000 C 
ENDROOT
BRANCH   1   2
ATOM      2  C   UNL     1      47.595   6.182  13.333  0.00  0.00    +0.000 A 
ATOM      3  C   UNL     1      47.015   5.004  13.821  0.00  0.00    +0.000 A 
ATOM      4  C   UNL     1      46.028   4.339  13.089  0.00  0.00    +0.000 A 
ATOM      5  C   UNL     1      45.595   4.841  11.853  0.00  0.00    +0.000 A 
ATOM      6  C   UNL     1      46.171   6.022  11.369  0.00  0.00    +0.000 A 
ATOM      7  C   UNL     1      47.159   6.686  12.100  0.00  0.00    +0.000 A 
BRANCH   5   8
ATOM      8  C   UNL     1      44.563   4.099  11.035  0.00  0.00    +0.000 C 
BRANCH   8   9
ATOM      9  N   UNL     1      45.047   2.793  10.595  0.00  0.00    +0.000 NA
ATOM     10  H   UNL     1      44.674   2.069  11.211  0.00  0.00    +0.000 HD
BRANCH   9  11
ATOM     11  C   UNL     1      44.574   2.508   9.238  0.00  0.00    +0.000 C 
BRANCH  11  12
ATOM     12  C   UNL     1      45.733   2.601   8.301  0.00  0.00    +0.000 A 
ATOM     13  C   UNL     1      46.223   3.709   7.639  0.00  0.00    +0.000 A 
ATOM     14  N   UNL     1      47.295   3.257   6.924  0.00  0.00    +0.000 N 
ATOM     15  C   UNL     1      47.417   1.918   7.163  0.00  0.00    +0.000 A 
ATOM     16  N   UNL     1      46.489   1.490   7.990  0.00  0.00    +0.000 NA
ATOM     17  H   UNL     1      47.896   3.810   6.329  0.00  0.00    +0.000 HD
ENDBRANCH  11  12
ENDBRANCH   9  11
ENDBRANCH   8   9
ENDBRANCH   5   8
ENDBRANCH   1   2
BRANCH   1  18
ATOM     18  N   UNL     1      47.988   7.527  15.389  0.00  0.00    +0.000 NA
ATOM     19  H   UNL     1      47.179   6.952  15.622  0.00  0.00    +0.000 HD
BRANCH  18  20
ATOM     20  C   UNL     1      48.924   7.480  16.529  0.00  0.00    +0.000 C 
BRANCH  20  21
ATOM     21  C   UNL     1      48.967   6.031  17.000  0.00  0.00    +0.000 A 
ATOM     22  C   UNL     1      47.862   5.241  17.282  0.00  0.00    +0.000 A 
ATOM     23  S   UNL     1      48.267   3.681  17.857  0.00  0.00    +0.000 S 
ATOM     24  C   UNL     1      49.934   3.990  17.699  0.00  0.00    +0.000 A 
ATOM     25  N   UNL     1      50.863   3.050  18.023  0.00  0.00    +0.000 NA
ATOM     26  C   UNL     1      52.084   3.423  17.834  0.00  0.00    +0.000 A 
ATOM     27  N   UNL     1      52.463   4.649  17.351  0.00  0.00    +0.000 N 
ATOM     28  C   UNL     1      51.563   5.630  17.000  0.00  0.00    +0.000 A 
ATOM     29  O   UNL     1      51.933   6.702  16.538  0.00  0.00    +0.000 OA
ATOM     30  C   UNL     1      50.173   5.263  17.215  0.00  0.00    +0.000 A 
ATOM     31  H   UNL     1      53.436   4.872  17.210  0.00  0.00    +0.000 HD
ENDBRANCH  20  21
BRANCH  20  33
ATOM     32  C   UNL     1      49.372   8.349  18.910  0.00  0.00    +0.000 C 
ATOM     33  C   UNL     1      48.538   8.483  17.644  0.00  0.00    +0.000 C 
ENDBRANCH  20  33
ENDBRANCH  18  20
ENDBRANCH   1  18
TORSDOF 9
ENDMDL
MODEL 6
REMARK VINA RESULT:    -6.008      3.139      8.532
REMARK INTER + INTRA:         -10.604
REMARK INTER:                 -10.055
REMARK INTRA:                  -0.549
REMARK UNBOUND:                -1.435
REMARK  Name = 
REMARK  10 active torsions:
REMARK  status: ('A' for Active; 'I' for Inactive)
REMARK    1  A    between atoms: C_1  and  C_2
REMARK    2  A    between atoms: C_2  and  C_3
REMARK    3  A    between atoms: C_3  and  N_4
REMARK    4  A    between atoms: C_3  and  C_20
REMARK    5  A    between atoms: N_4  and  C_5
REMARK    6  A    between atoms: C_5  and  C_6
REMARK    7  A    between atoms: C_9  and  C_10
REMARK    8  A    between atoms: C_10  and  N_11
REMARK    9  A    between atoms: N_11  and  C_12
REMARK   10  A    between atoms: C_12  and  C_13
REMARK                            x       y       z     vdW  Elec       q    Type
REMARK                         _______ _______ _______ _____ _____    ______ ____
ROOT
ATOM      1  C   UNL     1      46.459   4.166  14.136  0.00  0.00    +0.000 C 
ENDROOT
BRANCH   1   2
ATOM      2  C   UNL     1      47.291   4.459  15.362  0.00  0.00    +0.000 A 
ATOM      3  C   UNL     1      47.385   3.522  16.400  0.00  0.00    +0.000 A 
ATOM      4  C   UNL     1      48.232   3.748  17.488  0.00  0.00    +0.000 A 
ATOM      5  C   UNL     1      49.008   4.913  17.560  0.00  0.00    +0.000 A 
ATOM      6  C   UNL     1      48.919   5.846  16.519  0.00  0.00    +0.000 A 
ATOM      7  C   UNL     1      48.070   5.621  15.431  0.00  0.00    +0.000 A 
BRANCH   5   8
ATOM      8  C   UNL     1      49.888   5.184  18.759  0.00  0.00    +0.000 C 
BRANCH   8   9
ATOM      9  N   UNL     1      50.792   4.071  19.039  0.00  0.00    +0.000 NA
ATOM     10  H   UNL     1      50.257   3.202  19.074  0.00  0.00    +0.000 HD
BRANCH   9  11
ATOM     11  C   UNL     1      51.784   3.940  17.969  0.00  0.00    +0.000 C 
BRANCH  11  12
ATOM     12  C   UNL     1      52.144   2.498  17.829  0.00  0.00    +0.000 A 
ATOM     13  C   UNL     1      51.383   1.461  17.329  0.00  0.00    +0.000 A 
ATOM     14  N   UNL     1      52.180   0.355  17.411  0.00  0.00    +0.000 N 
ATOM     15  C   UNL     1      53.371   0.744  17.953  0.00  0.00    +0.000 A 
ATOM     16  N   UNL     1      53.383   2.031  18.217  0.00  0.00    +0.000 NA
ATOM     17  H   UNL     1      51.938  -0.582  17.120  0.00  0.00    +0.000 HD
ENDBRANCH  11  12
ENDBRANCH   9  11
ENDBRANCH   8   9
ENDBRANCH   5   8
ENDBRANCH   1   2
BRANCH   1  18
ATOM     18  N   UNL     1      45.302   5.058  13.994  0.00  0.00    +0.000 NA
ATOM     19  H   UNL     1      45.664   5.977  13.739  0.00  0.00    +0.000 HD
BRANCH  18  20
ATOM     20  C   UNL     1      44.394   4.612  12.919  0.00  0.00    +0.000 C 
BRANCH  20  21
ATOM     21  C   UNL     1      45.055   5.000  11.601  0.00  0.00    +0.000 A 
ATOM     22  C   UNL     1      45.888   6.092  11.406  0.00  0.00    +0.000 A 
ATOM     23  S   UNL     1      46.402   6.278   9.785  0.00  0.00    +0.000 S 
ATOM     24  C   UNL     1      45.570   4.876   9.297  0.00  0.00    +0.000 A 
ATOM     25  N   UNL     1      45.596   4.449   8.005  0.00  0.00    +0.000 NA
ATOM     26  C   UNL     1      44.932   3.363   7.791  0.00  0.00    +0.000 A 
ATOM     27  N   UNL     1      44.245   2.662   8.749  0.00  0.00    +0.000 N 
ATOM     28  C   UNL     1      44.195   3.046  10.070  0.00  0.00    +0.000 A 
ATOM     29  O   UNL     1      43.602   2.379  10.908  0.00  0.00    +0.000 OA
ATOM     30  C   UNL     1      44.912   4.278  10.356  0.00  0.00    +0.000 A 
ATOM     31  H   UNL     1      43.760   1.809   8.519  0.00  0.00    +0.000 HD
ENDBRANCH  20  21
BRANCH  20  33
ATOM     32  C   UNL     1      42.304   5.590  11.777  0.00  0.00    +0.000 C 
ATOM     33  C   UNL     1      42.964   5.182  13.087  0.00  0.00    +0.000 C 
ENDBRANCH  20  33
ENDBRANCH  18  20
ENDBRANCH   1  18
TORSDOF 9
ENDMDL
MODEL 7
REMARK VINA RESULT:    -5.866      2.950      7.495
REMARK INTER + INTRA:         -10.387
REMARK INTER:                  -9.187
REMARK INTRA:                  -1.200
REMARK UNBOUND:                -1.435
REMARK  Name = 
REMARK  10 active torsions:
REMARK  status: ('A' for Active; 'I' for Inactive)
REMARK    1  A    between atoms: C_1  and  C_2
REMARK    2  A    between atoms: C_2  and  C_3
REMARK    3  A    between atoms: C_3  and  N_4
REMARK    4  A    between atoms: C_3  and  C_20
REMARK    5  A    between atoms: N_4  and  C_5
REMARK    6  A    between atoms: C_5  and  C_6
REMARK    7  A    between atoms: C_9  and  C_10
REMARK    8  A    between atoms: C_10  and  N_11
REMARK    9  A    between atoms: N_11  and  C_12
REMARK   10  A    between atoms: C_12  and  C_13
REMARK                            x       y       z     vdW  Elec       q    Type
REMARK                         _______ _______ _______ _____ _____    ______ ____
ROOT
ATOM      1  C   UNL     1      48.222   8.402  12.461  0.00  0.00    +0.000 C 
ENDROOT
BRANCH   1   2
ATOM      2  C   UNL     1      48.733   8.253  13.874  0.00  0.00    +0.000 A 
ATOM      3  C   UNL     1      48.150   8.977  14.923  0.00  0.00    +0.000 A 
ATOM      4  C   UNL     1      48.554   8.767  16.244  0.00  0.00    +0.000 A 
ATOM      5  C   UNL     1      49.547   7.824  16.546  0.00  0.00    +0.000 A 
ATOM      6  C   UNL     1      50.124   7.096  15.498  0.00  0.00    +0.000 A 
ATOM      7  C   UNL     1      49.722   7.308  14.176  0.00  0.00    +0.000 A 
BRANCH   5   8
ATOM      8  C   UNL     1      50.021   7.628  17.967  0.00  0.00    +0.000 C 
BRANCH   8   9
ATOM      9  N   UNL     1      50.063   6.217  18.343  0.00  0.00    +0.000 NA
ATOM     10  H   UNL     1      50.698   6.097  19.134  0.00  0.00    +0.000 HD
BRANCH   9  11
ATOM     11  C   UNL     1      48.735   5.764  18.766  0.00  0.00    +0.000 C 
BRANCH  11  12
ATOM     12  C   UNL     1      48.341   4.596  17.925  0.00  0.00    +0.000 A 
ATOM     13  C   UNL     1      47.120   4.324  17.341  0.00  0.00    +0.000 A 
ATOM     14  N   UNL     1      47.294   3.146  16.673  0.00  0.00    +0.000 N 
ATOM     15  C   UNL     1      48.584   2.744  16.872  0.00  0.00    +0.000 A 
ATOM     16  N   UNL     1      49.243   3.597  17.624  0.00  0.00    +0.000 NA
ATOM     17  H   UNL     1      46.599   2.658  16.125  0.00  0.00    +0.000 HD
ENDBRANCH  11  12
ENDBRANCH   9  11
ENDBRANCH   8   9
ENDBRANCH   5   8
ENDBRANCH   1   2
BRANCH   1  18
ATOM     18  N   UNL     1      47.745   7.141  11.880  0.00  0.00    +0.000 NA
ATOM     19  H   UNL     1      48.369   6.406  12.211  0.00  0.00    +0.000 HD
BRANCH  18  20
ATOM     20  C   UNL     1      46.377   6.813  12.327  0.00  0.00    +0.000 C 
BRANCH  20  21
ATOM     21  C   UNL     1      45.817   5.814  11.321  0.00  0.00    +0.000 A 
ATOM     22  C   UNL     1      46.037   5.837   9.952  0.00  0.00    +0.000 A 
ATOM     23  S   UNL     1      45.200   4.608   9.105  0.00  0.00    +0.000 S 
ATOM     24  C   UNL     1      44.556   3.970  10.546  0.00  0.00    +0.000 A 
ATOM     25  N   UNL     1      43.738   2.883  10.536  0.00  0.00    +0.000 NA
ATOM     26  C   UNL     1      43.343   2.506  11.706  0.00  0.00    +0.000 A 
ATOM     27  N   UNL     1      43.689   3.115  12.885  0.00  0.00    +0.000 N 
ATOM     28  C   UNL     1      44.519   4.211  12.949  0.00  0.00    +0.000 A 
ATOM     29  O   UNL     1      44.838   4.711  14.020  0.00  0.00    +0.000 OA
ATOM     30  C   UNL     1      44.974   4.686  11.653  0.00  0.00    +0.000 A 
ATOM     31  H   UNL     1      43.359   2.759  13.768  0.00  0.00    +0.000 HD
ENDBRANCH  20  21
BRANCH  20  33
ATOM     32  C   UNL     1      44.480   8.277  11.386  0.00  0.00    +0.000 C 
ATOM     33  C   UNL     1      45.499   8.077  12.499  0.00  0.00    +0.000 C 
ENDBRANCH  20  33
ENDBRANCH  18  20
ENDBRANCH   1  18
TORSDOF 9
ENDMDL
MODEL 8
REMARK VINA RESULT:    -5.548      2.551      4.113
REMARK INTER + INTRA:          -9.902
REMARK INTER:                  -8.947
REMARK INTRA:                  -0.955
REMARK UNBOUND:                -1.435
REMARK  Name = 
REMARK  10 active torsions:
REMARK  status: ('A' for Active; 'I' for Inactive)
REMARK    1  A    between atoms: C_1  and  C_2
REMARK    2  A    between atoms: C_2  and  C_3
REMARK    3  A    between atoms: C_3  and  N_4
REMARK    4  A    between atoms: C_3  and  C_20
REMARK    5  A    between atoms: N_4  and  C_5
REMARK    6  A    between atoms: C_5  and  C_6
REMARK    7  A    between atoms: C_9  and  C_10
REMARK    8  A    between atoms: C_10  and  N_11
REMARK    9  A    between atoms: N_11  and  C_12
REMARK   10  A    between atoms: C_12  and  C_13
REMARK                            x       y       z     vdW  Elec       q    Type
REMARK                         _______ _______ _______ _____ _____    ______ ____
ROOT
ATOM      1  C   UNL     1      49.000   7.933  15.780  0.00  0.00    +0.000 C 
ENDROOT
BRANCH   1   2
ATOM      2  C   UNL     1      48.107   7.590  14.612  0.00  0.00    +0.000 A 
ATOM      3  C   UNL     1      47.919   6.256  14.225  0.00  0.00    +0.000 A 
ATOM      4  C   UNL     1      47.018   5.929  13.209  0.00  0.00    +0.000 A 
ATOM      5  C   UNL     1      46.279   6.929  12.560  0.00  0.00    +0.000 A 
ATOM      6  C   UNL     1      46.462   8.261  12.951  0.00  0.00    +0.000 A 
ATOM      7  C   UNL     1      47.365   8.589  13.966  0.00  0.00    +0.000 A 
BRANCH   5   8
ATOM      8  C   UNL     1      45.339   6.584  11.428  0.00  0.00    +0.000 C 
BRANCH   8   9
ATOM      9  N   UNL     1      43.941   6.591  11.853  0.00  0.00    +0.000 NA
ATOM     10  H   UNL     1      43.591   7.550  11.846  0.00  0.00    +0.000 HD
BRANCH   9  11
ATOM     11  C   UNL     1      43.123   5.812  10.920  0.00  0.00    +0.000 C 
BRANCH  11  12
ATOM     12  C   UNL     1      43.443   4.366  11.100  0.00  0.00    +0.000 A 
ATOM     13  C   UNL     1      43.961   3.474  10.183  0.00  0.00    +0.000 A 
ATOM     14  N   UNL     1      44.074   2.290  10.854  0.00  0.00    +0.000 N 
ATOM     15  C   UNL     1      43.626   2.492  12.128  0.00  0.00    +0.000 A 
ATOM     16  N   UNL     1      43.237   3.734  12.310  0.00  0.00    +0.000 NA
ATOM     17  H   UNL     1      44.430   1.420  10.482  0.00  0.00    +0.000 HD
ENDBRANCH  11  12
ENDBRANCH   9  11
ENDBRANCH   8   9
ENDBRANCH   5   8
ENDBRANCH   1   2
BRANCH   1  18
ATOM     18  N   UNL     1      48.376   7.670  17.083  0.00  0.00    +0.000 NA
ATOM     19  H   UNL     1      47.945   6.748  17.026  0.00  0.00    +0.000 HD
BRANCH  18  20
ATOM     20  C   UNL     1      49.373   7.641  18.172  0.00  0.00    +0.000 C 
BRANCH  20  21
ATOM     21  C   UNL     1      50.245   6.413  17.933  0.00  0.00    +0.000 A 
ATOM     22  C   UNL     1      51.632   6.400  17.917  0.00  0.00    +0.000 A 
ATOM     23  S   UNL     1      52.295   4.866  17.548  0.00  0.00    +0.000 S 
ATOM     24  C   UNL     1      50.752   4.156  17.448  0.00  0.00    +0.000 A 
ATOM     25  N   UNL     1      50.596   2.834  17.162  0.00  0.00    +0.000 NA
ATOM     26  C   UNL     1      49.368   2.437  17.137  0.00  0.00    +0.000 A 
ATOM     27  N   UNL     1      48.281   3.238  17.372  0.00  0.00    +0.000 N 
ATOM     28  C   UNL     1      48.384   4.577  17.673  0.00  0.00    +0.000 A 
ATOM     29  O   UNL     1      47.394   5.258  17.912  0.00  0.00    +0.000 OA
ATOM     30  C   UNL     1      49.749   5.076  17.692  0.00  0.00    +0.000 A 
ATOM     31  H   UNL     1      47.346   2.861  17.354  0.00  0.00    +0.000 HD
ENDBRANCH  20  21
BRANCH  20  33
ATOM     32  C   UNL     1      47.513   8.603  19.670  0.00  0.00    +0.000 C 
ATOM     33  C   UNL     1      48.711   7.668  19.571  0.00  0.00    +0.000 C 
ENDBRANCH  20  33
ENDBRANCH  18  20
ENDBRANCH   1  18
TORSDOF 9
ENDMDL
MODEL 9
REMARK VINA RESULT:    -5.471      2.247      2.818
REMARK INTER + INTRA:          -9.785
REMARK INTER:                  -9.686
REMARK INTRA:                  -0.099
REMARK UNBOUND:                -1.435
REMARK  Name = 
REMARK  10 active torsions:
REMARK  status: ('A' for Active; 'I' for Inactive)
REMARK    1  A    between atoms: C_1  and  C_2
REMARK    2  A    between atoms: C_2  and  C_3
REMARK    3  A    between atoms: C_3  and  N_4
REMARK    4  A    between atoms: C_3  and  C_20
REMARK    5  A    between atoms: N_4  and  C_5
REMARK    6  A    between atoms: C_5  and  C_6
REMARK    7  A    between atoms: C_9  and  C_10
REMARK    8  A    between atoms: C_10  and  N_11
REMARK    9  A    between atoms: N_11  and  C_12
REMARK   10  A    between atoms: C_12  and  C_13
REMARK                            x       y       z     vdW  Elec       q    Type
REMARK                         _______ _______ _______ _____ _____    ______ ____
ROOT
ATOM      1  C   UNL     1      47.268   6.690  13.490  0.00  0.00    +0.000 C 
ENDROOT
BRANCH   1   2
ATOM      2  C   UNL     1      46.487   5.786  12.566  0.00  0.00    +0.000 A 
ATOM      3  C   UNL     1      46.298   4.434  12.882  0.00  0.00    +0.000 A 
ATOM      4  C   UNL     1      45.493   3.621  12.081  0.00  0.00    +0.000 A 
ATOM      5  C   UNL     1      44.854   4.143  10.947  0.00  0.00    +0.000 A 
ATOM      6  C   UNL     1      45.038   5.495  10.635  0.00  0.00    +0.000 A 
ATOM      7  C   UNL     1      45.845   6.309  11.436  0.00  0.00    +0.000 A 
BRANCH   5   8
ATOM      8  C   UNL     1      44.022   3.255  10.050  0.00  0.00    +0.000 C 
BRANCH   8   9
ATOM      9  N   UNL     1      44.309   3.479   8.636  0.00  0.00    +0.000 NA
ATOM     10  H   UNL     1      43.750   4.264   8.297  0.00  0.00    +0.000 HD
BRANCH   9  11
ATOM     11  C   UNL     1      45.721   3.829   8.453  0.00  0.00    +0.000 C 
BRANCH  11  12
ATOM     12  C   UNL     1      46.435   2.645   7.891  0.00  0.00    +0.000 A 
ATOM     13  C   UNL     1      47.468   2.612   6.976  0.00  0.00    +0.000 A 
ATOM     14  N   UNL     1      47.763   1.289   6.811  0.00  0.00    +0.000 N 
ATOM     15  C   UNL     1      46.914   0.575   7.607  0.00  0.00    +0.000 A 
ATOM     16  N   UNL     1      46.099   1.362   8.272  0.00  0.00    +0.000 NA
ATOM     17  H   UNL     1      48.481   0.904   6.213  0.00  0.00    +0.000 HD
ENDBRANCH  11  12
ENDBRANCH   9  11
ENDBRANCH   8   9
ENDBRANCH   5   8
ENDBRANCH   1   2
BRANCH   1  18
ATOM     18  N   UNL     1      48.302   5.982  14.256  0.00  0.00    +0.000 NA
ATOM     19  H   UNL     1      48.934   5.556  13.579  0.00  0.00    +0.000 HD
BRANCH  18  20
ATOM     20  C   UNL     1      49.088   6.904  15.098  0.00  0.00    +0.000 C 
BRANCH  20  21
ATOM     21  C   UNL     1      49.323   6.190  16.425  0.00  0.00    +0.000 A 
ATOM     22  C   UNL     1      48.350   5.553  17.182  0.00  0.00    +0.000 A 
ATOM     23  S   UNL     1      48.941   4.915  18.655  0.00  0.00    +0.000 S 
ATOM     24  C   UNL     1      50.528   5.423  18.309  0.00  0.00    +0.000 A 
ATOM     25  N   UNL     1      51.553   5.186  19.172  0.00  0.00    +0.000 NA
ATOM     26  C   UNL     1      52.701   5.615  18.764  0.00  0.00    +0.000 A 
ATOM     27  N   UNL     1      52.918   6.260  17.574  0.00  0.00    +0.000 N 
ATOM     28  C   UNL     1      51.919   6.517  16.663  0.00  0.00    +0.000 A 
ATOM     29  O   UNL     1      52.152   7.064  15.593  0.00  0.00    +0.000 OA
ATOM     30  C   UNL     1      50.602   6.069  17.088  0.00  0.00    +0.000 A 
ATOM     31  H   UNL     1      53.845   6.555  17.307  0.00  0.00    +0.000 HD
ENDBRANCH  20  21
BRANCH  20  33
ATOM     32  C   UNL     1      49.327   9.463  14.965  0.00  0.00    +0.000 C 
ATOM     33  C   UNL     1      48.406   8.285  15.249  0.00  0.00    +0.000 C 
ENDBRANCH  20  33
ENDBRANCH  18  20
ENDBRANCH   1  18
TORSDOF 9
ENDMDL
