MODEL 1
REMARK VINA RESULT:    -7.824      0.000      0.000
REMARK INTER + INTRA:         -10.447
REMARK INTER:                  -9.882
REMARK INTRA:                  -0.565
REMARK UNBOUND:                -0.565
REMARK  Name = 
REMARK  5 active torsions:
REMARK  status: ('A' for Active; 'I' for Inactive)
REMARK    1  A    between atoms: N_1  and  C_2
REMARK    2  A    between atoms: C_2  and  C_3
REMARK    3  A    between atoms: C_3  and  C_4
REMARK    4  A    between atoms: C_7  and  C_8
REMARK    5  A    between atoms: C_8  and  C_9
REMARK                            x       y       z     vdW  Elec       q    Type
REMARK                         _______ _______ _______ _____ _____    ______ ____
ROOT
ATOM      1  C   UNL     1      45.801   3.006   7.889  0.00  0.00    +0.000 A 
ATOM      2  C   UNL     1      45.101   2.216   8.808  0.00  0.00    +0.000 A 
ATOM      3  C   UNL     1      44.562   2.782   9.970  0.00  0.00    +0.000 A 
ATOM      4  C   UNL     1      44.711   4.151  10.232  0.00  0.00    +0.000 A 
ATOM      5  C   UNL     1      45.391   4.942   9.291  0.00  0.00    +0.000 A 
ATOM      6  C   UNL     1      45.930   4.377   8.135  0.00  0.00    +0.000 A 
ENDROOT
BRANCH   1   7
ATOM      7  C   UNL     1      46.408   2.398   6.645  0.00  0.00    +0.000 C 
BRANCH   7   8
ATOM      8  C   UNL     1      47.819   1.855   6.898  0.00  0.00    +0.000 C 
BRANCH   8   9
ATOM      9  N   UNL     1      48.604   1.826   5.663  0.00  0.00    +0.000 NA
ATOM     10  H   UNL     1      49.553   2.135   5.864  0.00  0.00    +0.000 HD
ATOM     11  H   UNL     1      48.220   2.491   4.996  0.00  0.00    +0.000 HD
ENDBRANCH   8   9
ENDBRANCH   7   8
ENDBRANCH   1   7
BRANCH   4  12
ATOM     12  C   UNL     1      44.261   4.755  11.558  0.00  0.00    +0.000 C 
BRANCH  12  13
ATOM     13  C   UNL     1      45.461   4.611  12.430  0.00  0.00    +0.000 A 
ATOM     14  N   UNL     1      45.521   3.621  13.340  0.00  0.00    +0.000 NA
ATOM     15  O   UNL     1      46.489   4.021  14.250  0.00  0.00    +0.000 OA
ATOM     16  C   UNL     1      47.030   5.203  13.849  0.00  0.00    +0.000 A 
ATOM     17  C   UNL     1      47.914   5.990  14.565  0.00  0.00    +0.000 A 
ATOM     18  C   UNL     1      48.314   7.163  13.940  0.00  0.00    +0.000 A 
ATOM     19  F   UNL     1      49.116   8.016  14.605  0.00  0.00    +0.000 F 
ATOM     20  C   UNL     1      47.913   7.497  12.644  0.00  0.00    +0.000 A 
ATOM     21  C   UNL     1      47.004   6.682  11.953  0.00  0.00    +0.000 A 
ATOM     22  C   UNL     1      46.521   5.534  12.604  0.00  0.00    +0.000 A 
ENDBRANCH  12  13
ENDBRANCH   4  12
TORSDOF 5
ENDMDL
MODEL 2
REMARK VINA RESULT:    -7.807      1.704      2.229
REMARK INTER + INTRA:         -10.425
REMARK INTER:                 -10.205
REMARK INTRA:                  -0.220
REMARK UNBOUND:                -0.565
REMARK  Name = 
REMARK  5 active torsions:
REMARK  status: ('A' for Active; 'I' for Inactive)
REMARK    1  A    between atoms: N_1  and  C_2
REMARK    2  A    between atoms: C_2  and  C_3
REMARK    3  A    between atoms: C_3  and  C_4
REMARK    4  A    between atoms: C_7  and  C_8
REMARK    5  A    between atoms: C_8  and  C_9
REMARK                            x       y       z     vdW  Elec       q    Type
REMARK                         _______ _______ _______ _____ _____    ______ ____
ROOT
ATOM      1  C   UNL     1      45.892   3.177   7.809  0.00  0.00    +0.000 A 
ATOM      2  C   UNL     1      45.676   1.919   8.383  0.00  0.00    +0.000 A 
ATOM      3  C   UNL     1      44.823   1.774   9.483  0.00  0.00    +0.000 A 
ATOM      4  C   UNL     1      44.167   2.886  10.029  0.00  0.00    +0.000 A 
ATOM      5  C   UNL     1      44.368   4.142   9.431  0.00  0.00    +0.000 A 
ATOM      6  C   UNL     1      45.220   4.285   8.336  0.00  0.00    +0.000 A 
ENDROOT
BRANCH   1   7
ATOM      7  C   UNL     1      46.832   3.346   6.637  0.00  0.00    +0.000 C 
BRANCH   7   8
ATOM      8  C   UNL     1      48.070   2.450   6.756  0.00  0.00    +0.000 C 
BRANCH   8   9
ATOM      9  N   UNL     1      48.446   1.893   5.455  0.00  0.00    +0.000 NA
ATOM     10  H   UNL     1      48.221   2.568   4.726  0.00  0.00    +0.000 HD
ATOM     11  H   UNL     1      47.890   1.064   5.262  0.00  0.00    +0.000 HD
ENDBRANCH   8   9
ENDBRANCH   7   8
ENDBRANCH   1   7
BRANCH   4  12
ATOM     12  C   UNL     1      43.353   2.771  11.313  0.00  0.00    +0.000 C 
BRANCH  12  13
ATOM     13  C   UNL     1      43.499   4.117  11.938  0.00  0.00    +0.000 A 
ATOM     14  N   UNL     1      42.560   5.060  11.739  0.00  0.00    +0.000 NA
ATOM     15  O   UNL     1      43.183   6.264  12.040  0.00  0.00    +0.000 OA
ATOM     16  C   UNL     1      44.454   6.024  12.464  0.00  0.00    +0.000 A 
ATOM     17  C   UNL     1      45.432   6.970  12.712  0.00  0.00    +0.000 A 
ATOM     18  C   UNL     1      46.658   6.471  13.127  0.00  0.00    +0.000 A 
ATOM     19  F   UNL     1      47.680   7.326  13.317  0.00  0.00    +0.000 F 
ATOM     20  C   UNL     1      46.876   5.110  13.352  0.00  0.00    +0.000 A 
ATOM     21  C   UNL     1      45.866   4.176  13.076  0.00  0.00    +0.000 A 
ATOM     22  C   UNL     1      44.644   4.657  12.573  0.00  0.00    +0.000 A 
ENDBRANCH  12  13
ENDBRANCH   4  12
TORSDOF 5
ENDMDL
MODEL 3
REMARK VINA RESULT:    -7.333      3.255      6.290
REMARK INTER + INTRA:          -9.827
REMARK INTER:                  -9.073
REMARK INTRA:                  -0.755
REMARK UNBOUND:                -0.565
REMARK  Name = 
REMARK  5 active torsions:
REMARK  status: ('A' for Active; 'I' for Inactive)
REMARK    1  A    between atoms: N_1  and  C_2
REMARK    2  A    between atoms: C_2  and  C_3
REMARK    3  A    between atoms: C_3  and  C_4
REMARK    4  A    between atoms: C_7  and  C_8
REMARK    5  A    between atoms: C_8  and  C_9
REMARK                            x       y       z     vdW  Elec       q    Type
REMARK                         _______ _______ _______ _____ _____    ______ ____
ROOT
ATOM      1  C   UNL     1      47.575   6.294  12.870  0.00  0.00    +0.000 A 
ATOM      2  C   UNL     1      46.773   5.250  13.343  0.00  0.00    +0.000 A 
ATOM      3  C   UNL     1      45.532   4.980  12.754  0.00  0.00    +0.000 A 
ATOM      4  C   UNL     1      45.071   5.749  11.676  0.00  0.00    +0.000 A 
ATOM      5  C   UNL     1      45.894   6.778  11.189  0.00  0.00    +0.000 A 
ATOM      6  C   UNL     1      47.129   7.048  11.779  0.00  0.00    +0.000 A 
ENDROOT
BRANCH   1   7
ATOM      7  C   UNL     1      48.905   6.609  13.517  0.00  0.00    +0.000 C 
BRANCH   7   8
ATOM      8  C   UNL     1      48.747   7.037  14.981  0.00  0.00    +0.000 C 
BRANCH   8   9
ATOM      9  N   UNL     1      47.905   8.229  15.096  0.00  0.00    +0.000 NA
ATOM     10  H   UNL     1      48.338   8.993  14.580  0.00  0.00    +0.000 HD
ATOM     11  H   UNL     1      47.861   8.526  16.067  0.00  0.00    +0.000 HD
ENDBRANCH   8   9
ENDBRANCH   7   8
ENDBRANCH   1   7
BRANCH   4  12
ATOM     12  C   UNL     1      43.664   5.565  11.119  0.00  0.00    +0.000 C 
BRANCH  12  13
ATOM     13  C   UNL     1      43.723   4.228  10.463  0.00  0.00    +0.000 A 
ATOM     14  N   UNL     1      43.147   3.162  11.049  0.00  0.00    +0.000 NA
ATOM     15  O   UNL     1      43.747   2.056  10.464  0.00  0.00    +0.000 OA
ATOM     16  C   UNL     1      44.623   2.467   9.508  0.00  0.00    +0.000 A 
ATOM     17  C   UNL     1      45.516   1.672   8.812  0.00  0.00    +0.000 A 
ATOM     18  C   UNL     1      46.316   2.333   7.891  0.00  0.00    +0.000 A 
ATOM     19  F   UNL     1      47.260   1.638   7.228  0.00  0.00    +0.000 F 
ATOM     20  C   UNL     1      46.182   3.698   7.625  0.00  0.00    +0.000 A 
ATOM     21  C   UNL     1      45.277   4.477   8.360  0.00  0.00    +0.000 A 
ATOM     22  C   UNL     1      44.518   3.839   9.358  0.00  0.00    +0.000 A 
ENDBRANCH  12  13
ENDBRANCH   4  12
TORSDOF 5
ENDMDL
MODEL 4
REMARK VINA RESULT:    -6.829      3.353      6.670
REMARK INTER + INTRA:          -9.191
REMARK INTER:                  -9.614
REMARK INTRA:                   0.423
REMARK UNBOUND:                -0.565
REMARK  Name = 
REMARK  5 active torsions:
REMARK  status: ('A' for Active; 'I' for Inactive)
REMARK    1  A    between atoms: N_1  and  C_2
REMARK    2  A    between atoms: C_2  and  C_3
REMARK    3  A    between atoms: C_3  and  C_4
REMARK    4  A    between atoms: C_7  and  C_8
REMARK    5  A    between atoms: C_8  and  C_9
REMARK                            x       y       z     vdW  Elec       q    Type
REMARK                         _______ _______ _______ _____ _____    ______ ____
ROOT
ATOM      1  C   UNL     1      46.830   4.236  14.028  0.00  0.00    +0.000 A 
ATOM      2  C   UNL     1      46.699   5.574  13.642  0.00  0.00    +0.000 A 
ATOM      3  C   UNL     1      45.914   5.924  12.536  0.00  0.00    +0.000 A 
ATOM      4  C   UNL     1      45.242   4.939  11.798  0.00  0.00    +0.000 A 
ATOM      5  C   UNL     1      45.357   3.600  12.209  0.00  0.00    +0.000 A 
ATOM      6  C   UNL     1      46.142   3.253  13.308  0.00  0.00    +0.000 A 
ENDROOT
BRANCH   1   7
ATOM      7  C   UNL     1      47.697   3.847  15.205  0.00  0.00    +0.000 C 
BRANCH   7   8
ATOM      8  C   UNL     1      47.107   4.324  16.537  0.00  0.00    +0.000 C 
BRANCH   8   9
ATOM      9  N   UNL     1      46.690   3.192  17.366  0.00  0.00    +0.000 NA
ATOM     10  H   UNL     1      45.743   3.357  17.703  0.00  0.00    +0.000 HD
ATOM     11  H   UNL     1      47.283   3.132  18.190  0.00  0.00    +0.000 HD
ENDBRANCH   8   9
ENDBRANCH   7   8
ENDBRANCH   1   7
BRANCH   4  12
ATOM     12  C   UNL     1      44.505   5.284  10.509  0.00  0.00    +0.000 C 
BRANCH  12  13
ATOM     13  C   UNL     1      44.499   3.996   9.758  0.00  0.00    +0.000 A 
ATOM     14  N   UNL     1      43.787   2.950  10.216  0.00  0.00    +0.000 NA
ATOM     15  O   UNL     1      44.334   1.836   9.592  0.00  0.00    +0.000 OA
ATOM     16  C   UNL     1      45.316   2.230   8.738  0.00  0.00    +0.000 A 
ATOM     17  C   UNL     1      46.190   1.407   8.051  0.00  0.00    +0.000 A 
ATOM     18  C   UNL     1      47.116   2.054   7.245  0.00  0.00    +0.000 A 
ATOM     19  F   UNL     1      48.045   1.322   6.602  0.00  0.00    +0.000 F 
ATOM     20  C   UNL     1      47.123   3.440   7.076  0.00  0.00    +0.000 A 
ATOM     21  C   UNL     1      46.232   4.246   7.800  0.00  0.00    +0.000 A 
ATOM     22  C   UNL     1      45.344   3.614   8.687  0.00  0.00    +0.000 A 
ENDBRANCH  12  13
ENDBRANCH   4  12
TORSDOF 5
ENDMDL
MODEL 5
REMARK VINA RESULT:    -5.976      3.490      6.432
REMARK INTER + INTRA:          -8.113
REMARK INTER:                  -7.834
REMARK INTRA:                  -0.279
REMARK UNBOUND:                -0.565
REMARK  Name = 
REMARK  5 active torsions:
REMARK  status: ('A' for Active; 'I' for Inactive)
REMARK    1  A    between atoms: N_1  and  C_2
REMARK    2  A    between atoms: C_2  and  C_3
REMARK    3  A    between atoms: C_3  and  C_4
REMARK    4  A    between atoms: C_7  and  C_8
REMARK    5  A    between atoms: C_8  and  C_9
REMARK                            x       y       z     vdW  Elec       q    Type
REMARK                         _______ _______ _______ _____ _____    ______ ____
ROOT
ATOM      1  C   UNL     1      47.544   7.187  13.097  0.00  0.00    +0.000 A 
ATOM      2  C   UNL     1      46.571   8.178  13.263  0.00  0.00    +0.000 A 
ATOM      3  C   UNL     1      45.322   8.064  12.641  0.00  0.00    +0.000 A 
ATOM      4  C   UNL     1      45.022   6.952  11.841  0.00  0.00    +0.000 A 
ATOM      5  C   UNL     1      45.995   5.947  11.701  0.00  0.00    +0.000 A 
ATOM      6  C   UNL     1      47.239   6.063  12.320  0.00  0.00    +0.000 A 
ENDROOT
BRANCH   1   7
ATOM      7  C   UNL     1      48.904   7.315  13.745  0.00  0.00    +0.000 C 
BRANCH   7   8
ATOM      8  C   UNL     1      48.826   7.218  15.273  0.00  0.00    +0.000 C 
BRANCH   8   9
ATOM      9  N   UNL     1      48.365   5.894  15.695  0.00  0.00    +0.000 NA
ATOM     10  H   UNL     1      49.037   5.193  15.388  0.00  0.00    +0.000 HD
ATOM     11  H   UNL     1      47.487   5.673  15.233  0.00  0.00    +0.000 HD
ENDBRANCH   8   9
ENDBRANCH   7   8
ENDBRANCH   1   7
BRANCH   4  12
ATOM     12  C   UNL     1      43.727   6.881  11.040  0.00  0.00    +0.000 C 
BRANCH  12  13
ATOM     13  C   UNL     1      43.419   5.423  11.007  0.00  0.00    +0.000 A 
ATOM     14  N   UNL     1      42.861   4.826  12.077  0.00  0.00    +0.000 NA
ATOM     15  O   UNL     1      43.122   3.472  11.917  0.00  0.00    +0.000 OA
ATOM     16  C   UNL     1      43.775   3.272  10.740  0.00  0.00    +0.000 A 
ATOM     17  C   UNL     1      44.334   2.086  10.300  0.00  0.00    +0.000 A 
ATOM     18  C   UNL     1      44.960   2.140   9.062  0.00  0.00    +0.000 A 
ATOM     19  F   UNL     1      45.589   1.044   8.601  0.00  0.00    +0.000 F 
ATOM     20  C   UNL     1      44.965   3.294   8.275  0.00  0.00    +0.000 A 
ATOM     21  C   UNL     1      44.402   4.484   8.760  0.00  0.00    +0.000 A 
ATOM     22  C   UNL     1      43.839   4.470  10.048  0.00  0.00    +0.000 A 
ENDBRANCH  12  13
ENDBRANCH   4  12
TORSDOF 5
ENDMDL
MODEL 6
REMARK VINA RESULT:    -5.581      4.478      6.824
REMARK INTER + INTRA:          -7.614
REMARK INTER:                  -7.045
REMARK INTRA:                  -0.569
REMARK UNBOUND:                -0.565
REMARK  Name = 
REMARK  5 active torsions:
REMARK  status: ('A' for Active; 'I' for Inactive)
REMARK    1  A    between atoms: N_1  and  C_2
REMARK    2  A    between atoms: C_2  and  C_3
REMARK    3  A    between atoms: C_3  and  C_4
REMARK    4  A    between atoms: C_7  and  C_8
REMARK    5  A    between atoms: C_8  and  C_9
REMARK                            x       y       z     vdW  Elec       q    Type
REMARK                         _______ _______ _______ _____ _____    ______ ____
ROOT
ATOM      1  C   UNL     1      47.308   5.941  13.491  0.00  0.00    +0.000 A 
ATOM      2  C   UNL     1      46.607   4.752  13.721  0.00  0.00    +0.000 A 
ATOM      3  C   UNL     1      46.760   4.055  14.925  0.00  0.00    +0.000 A 
ATOM      4  C   UNL     1      47.617   4.537  15.925  0.00  0.00    +0.000 A 
ATOM      5  C   UNL     1      48.297   5.746  15.697  0.00  0.00    +0.000 A 
ATOM      6  C   UNL     1      48.145   6.438  14.496  0.00  0.00    +0.000 A 
ENDROOT
BRANCH   1   7
ATOM      7  C   UNL     1      47.167   6.686  12.182  0.00  0.00    +0.000 C 
BRANCH   7   8
ATOM      8  C   UNL     1      45.702   6.827  11.754  0.00  0.00    +0.000 C 
BRANCH   8   9
ATOM      9  N   UNL     1      45.445   6.107  10.505  0.00  0.00    +0.000 NA
ATOM     10  H   UNL     1      46.276   6.151   9.918  0.00  0.00    +0.000 HD
ATOM     11  H   UNL     1      44.702   6.571   9.988  0.00  0.00    +0.000 HD
ENDBRANCH   8   9
ENDBRANCH   7   8
ENDBRANCH   1   7
BRANCH   4  12
ATOM     12  C   UNL     1      47.909   3.718  17.178  0.00  0.00    +0.000 C 
BRANCH  12  13
ATOM     13  C   UNL     1      49.227   3.089  16.881  0.00  0.00    +0.000 A 
ATOM     14  N   UNL     1      49.288   1.957  16.156  0.00  0.00    +0.000 NA
ATOM     15  O   UNL     1      50.530   1.407  16.441  0.00  0.00    +0.000 OA
ATOM     16  C   UNL     1      51.211   2.234  17.280  0.00  0.00    +0.000 A 
ATOM     17  C   UNL     1      52.415   1.964  17.905  0.00  0.00    +0.000 A 
ATOM     18  C   UNL     1      52.904   2.971  18.726  0.00  0.00    +0.000 A 
ATOM     19  F   UNL     1      54.033   2.752  19.425  0.00  0.00    +0.000 F 
ATOM     20  C   UNL     1      52.265   4.206  18.859  0.00  0.00    +0.000 A 
ATOM     21  C   UNL     1      51.037   4.440  18.222  0.00  0.00    +0.000 A 
ATOM     22  C   UNL     1      50.484   3.400  17.454  0.00  0.00    +0.000 A 
ENDBRANCH  12  13
ENDBRANCH   4  12
TORSDOF 5
ENDMDL
MODEL 7
REMARK VINA RESULT:    -5.513      4.557      7.914
REMARK INTER + INTRA:          -7.528
REMARK INTER:                  -7.195
REMARK INTRA:                  -0.333
REMARK UNBOUND:                -0.565
REMARK  Name = 
REMARK  5 active torsions:
REMARK  status: ('A' for Active; 'I' for Inactive)
REMARK    1  A    between atoms: N_1  and  C_2
REMARK    2  A    between atoms: C_2  and  C_3
REMARK    3  A    between atoms: C_3  and  C_4
REMARK    4  A    between atoms: C_7  and  C_8
REMARK    5  A    between atoms: C_8  and  C_9
REMARK                            x       y       z     vdW  Elec       q    Type
REMARK                         _______ _______ _______ _____ _____    ______ ____
ROOT
ATOM      1  C   UNL     1      50.936   2.446  17.461  0.00  0.00    +0.000 A 
ATOM      2  C   UNL     1      50.590   3.708  17.957  0.00  0.00    +0.000 A 
ATOM      3  C   UNL     1      49.344   4.273  17.661  0.00  0.00    +0.000 A 
ATOM      4  C   UNL     1      48.418   3.584  16.865  0.00  0.00    +0.000 A 
ATOM      5  C   UNL     1      48.762   2.305  16.394  0.00  0.00    +0.000 A 
ATOM      6  C   UNL     1      50.005   1.744  16.687  0.00  0.00    +0.000 A 
ENDROOT
BRANCH   1   7
ATOM      7  C   UNL     1      52.290   1.839  17.755  0.00  0.00    +0.000 C 
BRANCH   7   8
ATOM      8  C   UNL     1      53.231   2.834  18.443  0.00  0.00    +0.000 C 
BRANCH   8   9
ATOM      9  N   UNL     1      53.935   2.209  19.563  0.00  0.00    +0.000 NA
ATOM     10  H   UNL     1      54.511   2.909  20.028  0.00  0.00    +0.000 HD
ATOM     11  H   UNL     1      54.572   1.497  19.215  0.00  0.00    +0.000 HD
ENDBRANCH   8   9
ENDBRANCH   7   8
ENDBRANCH   1   7
BRANCH   4  12
ATOM     12  C   UNL     1      47.120   4.243  16.413  0.00  0.00    +0.000 C 
BRANCH  12  13
ATOM     13  C   UNL     1      47.484   4.865  15.108  0.00  0.00    +0.000 A 
ATOM     14  N   UNL     1      48.374   5.873  15.064  0.00  0.00    +0.000 NA
ATOM     15  O   UNL     1      48.152   6.503  13.847  0.00  0.00    +0.000 OA
ATOM     16  C   UNL     1      47.183   5.839  13.162  0.00  0.00    +0.000 A 
ATOM     17  C   UNL     1      46.583   6.243  11.983  0.00  0.00    +0.000 A 
ATOM     18  C   UNL     1      45.607   5.393  11.484  0.00  0.00    +0.000 A 
ATOM     19  F   UNL     1      44.928   5.755  10.379  0.00  0.00    +0.000 F 
ATOM     20  C   UNL     1      45.298   4.171  12.087  0.00  0.00    +0.000 A 
ATOM     21  C   UNL     1      45.915   3.800  13.291  0.00  0.00    +0.000 A 
ATOM     22  C   UNL     1      46.845   4.690  13.856  0.00  0.00    +0.000 A 
ENDBRANCH  12  13
ENDBRANCH   4  12
TORSDOF 5
ENDMDL
MODEL 8
REMARK VINA RESULT:    -5.218      3.459      5.054
REMARK INTER + INTRA:          -7.155
REMARK INTER:                  -6.582
REMARK INTRA:                  -0.573
REMARK UNBOUND:                -0.565
REMARK  Name = 
REMARK  5 active torsions:
REMARK  status: ('A' for Active; 'I' for Inactive)
REMARK    1  A    between atoms: N_1  and  C_2
REMARK    2  A    between atoms: C_2  and  C_3
REMARK    3  A    between atoms: C_3  and  C_4
REMARK    4  A    between atoms: C_7  and  C_8
REMARK    5  A    between atoms: C_8  and  C_9
REMARK                            x       y       z     vdW  Elec       q    Type
REMARK                         _______ _______ _______ _____ _____    ______ ____
ROOT
ATOM      1  C   UNL     1      44.990   5.044  11.767  0.00  0.00    +0.000 A 
ATOM      2  C   UNL     1      45.556   4.535  12.941  0.00  0.00    +0.000 A 
ATOM      3  C   UNL     1      46.735   5.082  13.461  0.00  0.00    +0.000 A 
ATOM      4  C   UNL     1      47.369   6.154  12.817  0.00  0.00    +0.000 A 
ATOM      5  C   UNL     1      46.779   6.679  11.654  0.00  0.00    +0.000 A 
ATOM      6  C   UNL     1      45.606   6.131  11.135  0.00  0.00    +0.000 A 
ENDROOT
BRANCH   1   7
ATOM      7  C   UNL     1      43.731   4.442  11.185  0.00  0.00    +0.000 C 
BRANCH   7   8
ATOM      8  C   UNL     1      43.904   2.956  10.852  0.00  0.00    +0.000 C 
BRANCH   8   9
ATOM      9  N   UNL     1      43.072   2.120  11.720  0.00  0.00    +0.000 NA
ATOM     10  H   UNL     1      42.091   2.314  11.528  0.00  0.00    +0.000 HD
ATOM     11  H   UNL     1      43.230   2.370  12.693  0.00  0.00    +0.000 HD
ENDBRANCH   8   9
ENDBRANCH   7   8
ENDBRANCH   1   7
BRANCH   4  12
ATOM     12  C   UNL     1      48.727   6.666  13.284  0.00  0.00    +0.000 C 
BRANCH  12  13
ATOM     13  C   UNL     1      48.418   7.333  14.581  0.00  0.00    +0.000 A 
ATOM     14  N   UNL     1      47.997   8.611  14.600  0.00  0.00    +0.000 NA
ATOM     15  O   UNL     1      48.237   9.055  15.893  0.00  0.00    +0.000 OA
ATOM     16  C   UNL     1      48.741   8.033  16.638  0.00  0.00    +0.000 A 
ATOM     17  C   UNL     1      49.241   8.120  17.924  0.00  0.00    +0.000 A 
ATOM     18  C   UNL     1      49.710   6.932  18.467  0.00  0.00    +0.000 A 
ATOM     19  F   UNL     1      50.279   6.952  19.687  0.00  0.00    +0.000 F 
ATOM     20  C   UNL     1      49.617   5.712  17.794  0.00  0.00    +0.000 A 
ATOM     21  C   UNL     1      49.117   5.663  16.484  0.00  0.00    +0.000 A 
ATOM     22  C   UNL     1      48.717   6.871  15.885  0.00  0.00    +0.000 A 
ENDBRANCH  12  13
ENDBRANCH   4  12
TORSDOF 5
ENDMDL
MODEL 9
REMARK VINA RESULT:    -5.117      4.384      6.072
REMARK INTER + INTRA:          -7.028
REMARK INTER:                  -6.309
REMARK INTRA:                  -0.719
REMARK UNBOUND:                -0.565
REMARK  Name = 
REMARK  5 active torsions:
REMARK  status: ('A' for Active; 'I' for Inactive)
REMARK    1  A    between atoms: N_1  and  C_2
REMARK    2  A    between atoms: C_2  and  C_3
REMARK    3  A    between atoms: C_3  and  C_4
REMARK    4  A    between atoms: C_7  and  C_8
REMARK    5  A    between atoms: C_8  and  C_9
REMARK                            x       y       z     vdW  Elec       q    Type
REMARK                         _______ _______ _______ _____ _____    ______ ____
ROOT
ATOM      1  C   UNL     1      45.659   6.829  12.521  0.00  0.00    +0.000 A 
ATOM      2  C   UNL     1      46.474   5.727  12.804  0.00  0.00    +0.000 A 
ATOM      3  C   UNL     1      47.737   5.904  13.382  0.00  0.00    +0.000 A 
ATOM      4  C   UNL     1      48.207   7.188  13.691  0.00  0.00    +0.000 A 
ATOM      5  C   UNL     1      47.372   8.287  13.430  0.00  0.00    +0.000 A 
ATOM      6  C   UNL     1      46.115   8.110  12.852  0.00  0.00    +0.000 A 
ENDROOT
BRANCH   1   7
ATOM      7  C   UNL     1      44.305   6.649  11.874  0.00  0.00    +0.000 C 
BRANCH   7   8
ATOM      8  C   UNL     1      43.669   5.301  12.232  0.00  0.00    +0.000 C 
BRANCH   8   9
ATOM      9  N   UNL     1      42.666   5.454  13.289  0.00  0.00    +0.000 NA
ATOM     10  H   UNL     1      42.809   4.730  13.990  0.00  0.00    +0.000 HD
ATOM     11  H   UNL     1      41.737   5.303  12.904  0.00  0.00    +0.000 HD
ENDBRANCH   8   9
ENDBRANCH   7   8
ENDBRANCH   1   7
BRANCH   4  12
ATOM     12  C   UNL     1      49.634   7.410  14.183  0.00  0.00    +0.000 C 
BRANCH  12  13
ATOM     13  C   UNL     1      49.541   7.143  15.646  0.00  0.00    +0.000 A 
ATOM     14  N   UNL     1      49.755   5.902  16.122  0.00  0.00    +0.000 NA
ATOM     15  O   UNL     1      49.167   5.888  17.380  0.00  0.00    +0.000 OA
ATOM     16  C   UNL     1      48.664   7.120  17.661  0.00  0.00    +0.000 A 
ATOM     17  C   UNL     1      47.880   7.462  18.747  0.00  0.00    +0.000 A 
ATOM     18  C   UNL     1      47.481   8.790  18.805  0.00  0.00    +0.000 A 
ATOM     19  F   UNL     1      46.655   9.180  19.794  0.00  0.00    +0.000 F 
ATOM     20  C   UNL     1      47.901   9.740  17.871  0.00  0.00    +0.000 A 
ATOM     21  C   UNL     1      48.684   9.355  16.773  0.00  0.00    +0.000 A 
ATOM     22  C   UNL     1      49.027   7.997  16.652  0.00  0.00    +0.000 A 
ENDBRANCH  12  13
ENDBRANCH   4  12
TORSDOF 5
ENDMDL
