MODEL 1
REMARK VINA RESULT:    -8.575      0.000      0.000
REMARK INTER + INTRA:         -12.912
REMARK INTER:                 -12.084
REMARK INTRA:                  -0.828
REMARK UNBOUND:                -0.828
REMARK  Name = 
REMARK  7 active torsions:
REMARK  status: ('A' for Active; 'I' for Inactive)
REMARK    1  A    between atoms: C_2  and  C_20
REMARK    2  A    between atoms: N_3  and  C_4
REMARK    3  A    between atoms: C_4  and  C_5
REMARK    4  A    between atoms: C_8  and  C_9
REMARK    5  A    between atoms: C_9  and  N_10
REMARK    6  A    between atoms: N_10  and  C_11
REMARK    7  A    between atoms: C_11  and  C_12
REMARK                            x       y       z     vdW  Elec       q    Type
REMARK                         _______ _______ _______ _____ _____    ______ ____
ROOT
ATOM      1  C   UNL     1      46.414   4.658  14.017  0.00  0.00    +0.000 C 
ENDROOT
BRANCH   1   2
ATOM      2  C   UNL     1      45.664   5.959  13.667  0.00  0.00    +0.000 C 
ATOM      3  C   UNL     1      46.476   6.907  12.771  0.00  0.00    +0.000 C 
ATOM      4  C   UNL     1      46.710   6.335  11.373  0.00  0.00    +0.000 C 
ATOM      5  C   UNL     1      45.396   5.920  10.689  0.00  0.00    +0.000 C 
ATOM      6  C   UNL     1      44.533   5.026  11.598  0.00  0.00    +0.000 C 
ATOM      7  C   UNL     1      44.331   5.642  12.980  0.00  0.00    +0.000 C 
BRANCH   5   8
ATOM      8  C   UNL     1      45.693   5.223   9.347  0.00  0.00    +0.000 C 
BRANCH   8   9
ATOM      9  N   UNL     1      44.979   3.950   9.279  0.00  0.00    +0.000 NA
ATOM     10  H   UNL     1      44.102   4.013   9.795  0.00  0.00    +0.000 HD
BRANCH   9  11
ATOM     11  C   UNL     1      44.709   3.542   7.907  0.00  0.00    +0.000 C 
BRANCH  11  12
ATOM     12  C   UNL     1      45.894   2.798   7.340  0.00  0.00    +0.000 A 
ATOM     13  C   UNL     1      46.562   3.270   6.208  0.00  0.00    +0.000 A 
ATOM     14  C   UNL     1      47.642   2.548   5.726  0.00  0.00    +0.000 A 
ATOM     15  N   UNL     1      48.095   1.404   6.281  0.00  0.00    +0.000 NA
ATOM     16  C   UNL     1      47.435   0.961   7.373  0.00  0.00    +0.000 A 
ATOM     17  C   UNL     1      46.347   1.614   7.932  0.00  0.00    +0.000 A 
ENDBRANCH  11  12
ENDBRANCH   9  11
ENDBRANCH   8   9
ENDBRANCH   5   8
ENDBRANCH   1   2
BRANCH   1  20
ATOM     18  O   UNL     1      46.607   3.561  16.627  0.00  0.00    +0.000 OA
ATOM     19  C   UNL     1      47.509   4.275  16.208  0.00  0.00    +0.000 C 
ATOM     20  N   UNL     1      47.474   4.879  14.972  0.00  0.00    +0.000 N 
ATOM     21  H   UNL     1      48.286   5.391  14.644  0.00  0.00    +0.000 HD
BRANCH  19  22
ATOM     22  C   UNL     1      48.688   4.576  17.022  0.00  0.00    +0.000 A 
ATOM     23  C   UNL     1      48.800   5.800  17.668  0.00  0.00    +0.000 A 
ATOM     24  S   UNL     1      50.231   5.958  18.579  0.00  0.00    +0.000 S 
ATOM     25  C   UNL     1      50.729   4.382  18.175  0.00  0.00    +0.000 A 
ATOM     26  N   UNL     1      51.886   3.860  18.666  0.00  0.00    +0.000 NA
ATOM     27  C   UNL     1      52.111   2.637  18.319  0.00  0.00    +0.000 A 
ATOM     28  N   UNL     1      51.296   1.893  17.509  0.00  0.00    +0.000 N 
ATOM     29  C   UNL     1      50.164   2.404  16.919  0.00  0.00    +0.000 A 
ATOM     30  O   UNL     1      49.544   1.759  16.080  0.00  0.00    +0.000 OA
ATOM     31  C   UNL     1      49.836   3.756  17.328  0.00  0.00    +0.000 A 
ATOM     32  H   UNL     1      51.549   0.954  17.239  0.00  0.00    +0.000 HD
ENDBRANCH  19  22
ENDBRANCH   1  20
TORSDOF 7
ENDMDL
MODEL 2
REMARK VINA RESULT:    -8.159      2.043      2.571
REMARK INTER + INTRA:         -12.326
REMARK INTER:                 -11.122
REMARK INTRA:                  -1.204
REMARK UNBOUND:                -0.828
REMARK  Name = 
REMARK  7 active torsions:
REMARK  status: ('A' for Active; 'I' for Inactive)
REMARK    1  A    between atoms: C_2  and  C_20
REMARK    2  A    between atoms: N_3  and  C_4
REMARK    3  A    between atoms: C_4  and  C_5
REMARK    4  A    between atoms: C_8  and  C_9
REMARK    5  A    between atoms: C_9  and  N_10
REMARK    6  A    between atoms: N_10  and  C_11
REMARK    7  A    between atoms: C_11  and  C_12
REMARK                            x       y       z     vdW  Elec       q    Type
REMARK                         _______ _______ _______ _____ _____    ______ ____
ROOT
ATOM      1  C   UNL     1      47.208   5.647  12.934  0.00  0.00    +0.000 C 
ENDROOT
BRANCH   1   2
ATOM      2  C   UNL     1      46.049   6.564  12.491  0.00  0.00    +0.000 C 
ATOM      3  C   UNL     1      45.800   6.541  10.974  0.00  0.00    +0.000 C 
ATOM      4  C   UNL     1      45.288   5.187  10.485  0.00  0.00    +0.000 C 
ATOM      5  C   UNL     1      44.039   4.727  11.255  0.00  0.00    +0.000 C 
ATOM      6  C   UNL     1      44.242   4.809  12.779  0.00  0.00    +0.000 C 
ATOM      7  C   UNL     1      44.754   6.179  13.215  0.00  0.00    +0.000 C 
BRANCH   5   8
ATOM      8  C   UNL     1      43.644   3.300  10.825  0.00  0.00    +0.000 C 
BRANCH   8   9
ATOM      9  N   UNL     1      44.834   2.559  10.412  0.00  0.00    +0.000 NA
ATOM     10  H   UNL     1      45.129   1.927  11.154  0.00  0.00    +0.000 HD
BRANCH   9  11
ATOM     11  C   UNL     1      44.612   1.801   9.187  0.00  0.00    +0.000 C 
BRANCH  11  12
ATOM     12  C   UNL     1      45.717   2.073   8.196  0.00  0.00    +0.000 A 
ATOM     13  C   UNL     1      46.642   1.081   7.864  0.00  0.00    +0.000 A 
ATOM     14  C   UNL     1      47.641   1.383   6.951  0.00  0.00    +0.000 A 
ATOM     15  N   UNL     1      47.781   2.586   6.356  0.00  0.00    +0.000 NA
ATOM     16  C   UNL     1      46.879   3.533   6.691  0.00  0.00    +0.000 A 
ATOM     17  C   UNL     1      45.844   3.328   7.590  0.00  0.00    +0.000 A 
ENDBRANCH  11  12
ENDBRANCH   9  11
ENDBRANCH   8   9
ENDBRANCH   5   8
ENDBRANCH   1   2
BRANCH   1  20
ATOM     18  O   UNL     1      47.349   3.559  14.850  0.00  0.00    +0.000 OA
ATOM     19  C   UNL     1      47.589   4.709  15.197  0.00  0.00    +0.000 C 
ATOM     20  N   UNL     1      47.503   5.782  14.341  0.00  0.00    +0.000 N 
ATOM     21  H   UNL     1      47.795   6.700  14.660  0.00  0.00    +0.000 HD
BRANCH  19  22
ATOM     22  C   UNL     1      47.950   5.032  16.578  0.00  0.00    +0.000 A 
ATOM     23  C   UNL     1      47.215   4.513  17.634  0.00  0.00    +0.000 A 
ATOM     24  S   UNL     1      47.798   4.987  19.164  0.00  0.00    +0.000 S 
ATOM     25  C   UNL     1      49.075   5.869  18.467  0.00  0.00    +0.000 A 
ATOM     26  N   UNL     1      49.993   6.512  19.239  0.00  0.00    +0.000 NA
ATOM     27  C   UNL     1      50.934   7.095  18.578  0.00  0.00    +0.000 A 
ATOM     28  N   UNL     1      51.033   7.114  17.212  0.00  0.00    +0.000 N 
ATOM     29  C   UNL     1      50.085   6.554  16.389  0.00  0.00    +0.000 A 
ATOM     30  O   UNL     1      50.126   6.722  15.175  0.00  0.00    +0.000 OA
ATOM     31  C   UNL     1      49.038   5.834  17.087  0.00  0.00    +0.000 A 
ATOM     32  H   UNL     1      51.772   7.625  16.752  0.00  0.00    +0.000 HD
ENDBRANCH  19  22
ENDBRANCH   1  20
TORSDOF 7
ENDMDL
MODEL 3
REMARK VINA RESULT:    -8.132      1.846      2.227
REMARK INTER + INTRA:         -12.288
REMARK INTER:                 -11.107
REMARK INTRA:                  -1.181
REMARK UNBOUND:                -0.828
REMARK  Name = 
REMARK  7 active torsions:
REMARK  status: ('A' for Active; 'I' for Inactive)
REMARK    1  A    between atoms: C_2  and  C_20
REMARK    2  A    between atoms: N_3  and  C_4
REMARK    3  A    between atoms: C_4  and  C_5
REMARK    4  A    between atoms: C_8  and  C_9
REMARK    5  A    between atoms: C_9  and  N_10
REMARK    6  A    between atoms: N_10  and  C_11
REMARK    7  A    between atoms: C_11  and  C_12
REMARK                            x       y       z     vdW  Elec       q    Type
REMARK                         _______ _______ _______ _____ _____    ______ ____
ROOT
ATOM      1  C   UNL     1      47.083   5.370  13.349  0.00  0.00    +0.000 C 
ENDROOT
BRANCH   1   2
ATOM      2  C   UNL     1      46.109   6.425  12.787  0.00  0.00    +0.000 C 
ATOM      3  C   UNL     1      46.110   6.499  11.251  0.00  0.00    +0.000 C 
ATOM      4  C   UNL     1      45.554   5.232  10.604  0.00  0.00    +0.000 C 
ATOM      5  C   UNL     1      44.156   4.874  11.137  0.00  0.00    +0.000 C 
ATOM      6  C   UNL     1      44.114   4.864  12.676  0.00  0.00    +0.000 C 
ATOM      7  C   UNL     1      44.681   6.149  13.272  0.00  0.00    +0.000 C 
BRANCH   5   8
ATOM      8  C   UNL     1      43.698   3.519  10.561  0.00  0.00    +0.000 C 
BRANCH   8   9
ATOM      9  N   UNL     1      44.854   2.649  10.360  0.00  0.00    +0.000 NA
ATOM     10  H   UNL     1      45.015   2.082  11.191  0.00  0.00    +0.000 HD
BRANCH   9  11
ATOM     11  C   UNL     1      44.693   1.780   9.201  0.00  0.00    +0.000 C 
BRANCH  11  12
ATOM     12  C   UNL     1      45.763   2.070   8.177  0.00  0.00    +0.000 A 
ATOM     13  C   UNL     1      45.850   3.323   7.565  0.00  0.00    +0.000 A 
ATOM     14  C   UNL     1      46.850   3.537   6.629  0.00  0.00    +0.000 A 
ATOM     15  N   UNL     1      47.754   2.603   6.263  0.00  0.00    +0.000 NA
ATOM     16  C   UNL     1      47.653   1.398   6.863  0.00  0.00    +0.000 A 
ATOM     17  C   UNL     1      46.692   1.089   7.813  0.00  0.00    +0.000 A 
ENDBRANCH  11  12
ENDBRANCH   9  11
ENDBRANCH   8   9
ENDBRANCH   5   8
ENDBRANCH   1   2
BRANCH   1  20
ATOM     18  O   UNL     1      49.412   6.633  14.362  0.00  0.00    +0.000 OA
ATOM     19  C   UNL     1      48.543   6.264  15.142  0.00  0.00    +0.000 C 
ATOM     20  N   UNL     1      47.404   5.608  14.737  0.00  0.00    +0.000 N 
ATOM     21  H   UNL     1      46.679   5.400  15.415  0.00  0.00    +0.000 HD
BRANCH  19  22
ATOM     22  C   UNL     1      48.676   6.460  16.586  0.00  0.00    +0.000 A 
ATOM     23  C   UNL     1      48.780   7.740  17.112  0.00  0.00    +0.000 A 
ATOM     24  S   UNL     1      48.908   7.767  18.811  0.00  0.00    +0.000 S 
ATOM     25  C   UNL     1      48.789   6.073  18.904  0.00  0.00    +0.000 A 
ATOM     26  N   UNL     1      48.796   5.429  20.102  0.00  0.00    +0.000 NA
ATOM     27  C   UNL     1      48.645   4.150  20.024  0.00  0.00    +0.000 A 
ATOM     28  N   UNL     1      48.507   3.450  18.855  0.00  0.00    +0.000 N 
ATOM     29  C   UNL     1      48.580   4.044  17.618  0.00  0.00    +0.000 A 
ATOM     30  O   UNL     1      48.606   3.370  16.594  0.00  0.00    +0.000 OA
ATOM     31  C   UNL     1      48.689   5.490  17.656  0.00  0.00    +0.000 A 
ATOM     32  H   UNL     1      48.435   2.443  18.858  0.00  0.00    +0.000 HD
ENDBRANCH  19  22
ENDBRANCH   1  20
TORSDOF 7
ENDMDL
MODEL 4
REMARK VINA RESULT:    -7.683      3.609      9.396
REMARK INTER + INTRA:         -11.655
REMARK INTER:                 -10.288
REMARK INTRA:                  -1.366
REMARK UNBOUND:                -0.828
REMARK  Name = 
REMARK  7 active torsions:
REMARK  status: ('A' for Active; 'I' for Inactive)
REMARK    1  A    between atoms: C_2  and  C_20
REMARK    2  A    between atoms: N_3  and  C_4
REMARK    3  A    between atoms: C_4  and  C_5
REMARK    4  A    between atoms: C_8  and  C_9
REMARK    5  A    between atoms: C_9  and  N_10
REMARK    6  A    between atoms: N_10  and  C_11
REMARK    7  A    between atoms: C_11  and  C_12
REMARK                            x       y       z     vdW  Elec       q    Type
REMARK                         _______ _______ _______ _____ _____    ______ ____
ROOT
ATOM      1  C   UNL     1      48.609   5.780  15.948  0.00  0.00    +0.000 C 
ENDROOT
BRANCH   1   2
ATOM      2  C   UNL     1      48.191   5.199  17.314  0.00  0.00    +0.000 C 
ATOM      3  C   UNL     1      47.552   3.804  17.212  0.00  0.00    +0.000 C 
ATOM      4  C   UNL     1      48.544   2.739  16.746  0.00  0.00    +0.000 C 
ATOM      5  C   UNL     1      49.810   2.703  17.620  0.00  0.00    +0.000 C 
ATOM      6  C   UNL     1      50.426   4.103  17.794  0.00  0.00    +0.000 C 
ATOM      7  C   UNL     1      49.396   5.128  18.259  0.00  0.00    +0.000 C 
BRANCH   5   8
ATOM      8  C   UNL     1      50.836   1.715  17.030  0.00  0.00    +0.000 C 
BRANCH   8   9
ATOM      9  N   UNL     1      51.560   1.048  18.108  0.00  0.00    +0.000 NA
ATOM     10  H   UNL     1      51.128   0.149  18.316  0.00  0.00    +0.000 HD
BRANCH   9  11
ATOM     11  C   UNL     1      52.967   0.849  17.785  0.00  0.00    +0.000 C 
BRANCH  11  12
ATOM     12  C   UNL     1      53.760   2.089  18.120  0.00  0.00    +0.000 A 
ATOM     13  C   UNL     1      54.793   2.526  17.288  0.00  0.00    +0.000 A 
ATOM     14  C   UNL     1      55.494   3.668  17.643  0.00  0.00    +0.000 A 
ATOM     15  N   UNL     1      55.243   4.393  18.753  0.00  0.00    +0.000 NA
ATOM     16  C   UNL     1      54.243   3.955  19.546  0.00  0.00    +0.000 A 
ATOM     17  C   UNL     1      53.483   2.827  19.276  0.00  0.00    +0.000 A 
ENDBRANCH  11  12
ENDBRANCH   9  11
ENDBRANCH   8   9
ENDBRANCH   5   8
ENDBRANCH   1   2
BRANCH   1  20
ATOM     18  O   UNL     1      48.760   6.292  13.161  0.00  0.00    +0.000 OA
ATOM     19  C   UNL     1      47.672   6.051  13.668  0.00  0.00    +0.000 C 
ATOM     20  N   UNL     1      47.506   5.833  15.017  0.00  0.00    +0.000 N 
ATOM     21  H   UNL     1      46.596   5.556  15.369  0.00  0.00    +0.000 HD
BRANCH  19  22
ATOM     22  C   UNL     1      46.446   6.019  12.871  0.00  0.00    +0.000 A 
ATOM     23  C   UNL     1      45.958   7.181  12.288  0.00  0.00    +0.000 A 
ATOM     24  S   UNL     1      44.533   6.941  11.385  0.00  0.00    +0.000 S 
ATOM     25  C   UNL     1      44.542   5.271  11.708  0.00  0.00    +0.000 A 
ATOM     26  N   UNL     1      43.591   4.446  11.191  0.00  0.00    +0.000 NA
ATOM     27  C   UNL     1      43.753   3.198  11.474  0.00  0.00    +0.000 A 
ATOM     28  N   UNL     1      44.767   2.698  12.246  0.00  0.00    +0.000 N 
ATOM     29  C   UNL     1      45.700   3.499  12.862  0.00  0.00    +0.000 A 
ATOM     30  O   UNL     1      46.499   3.033  13.666  0.00  0.00    +0.000 OA
ATOM     31  C   UNL     1      45.595   4.905  12.523  0.00  0.00    +0.000 A 
ATOM     32  H   UNL     1      44.815   1.714  12.468  0.00  0.00    +0.000 HD
ENDBRANCH  19  22
ENDBRANCH   1  20
TORSDOF 7
ENDMDL
MODEL 5
REMARK VINA RESULT:    -7.597      3.588      4.554
REMARK INTER + INTRA:         -11.533
REMARK INTER:                 -10.343
REMARK INTRA:                  -1.191
REMARK UNBOUND:                -0.828
REMARK  Name = 
REMARK  7 active torsions:
REMARK  status: ('A' for Active; 'I' for Inactive)
REMARK    1  A    between atoms: C_2  and  C_20
REMARK    2  A    between atoms: N_3  and  C_4
REMARK    3  A    between atoms: C_4  and  C_5
REMARK    4  A    between atoms: C_8  and  C_9
REMARK    5  A    between atoms: C_9  and  N_10
REMARK    6  A    between atoms: N_10  and  C_11
REMARK    7  A    between atoms: C_11  and  C_12
REMARK                            x       y       z     vdW  Elec       q    Type
REMARK                         _______ _______ _______ _____ _____    ______ ____
ROOT
ATOM      1  C   UNL     1      46.663   6.620  11.567  0.00  0.00    +0.000 C 
ENDROOT
BRANCH   1   2
ATOM      2  C   UNL     1      45.805   6.478  12.840  0.00  0.00    +0.000 C 
ATOM      3  C   UNL     1      44.296   6.602  12.573  0.00  0.00    +0.000 C 
ATOM      4  C   UNL     1      43.752   5.443  11.739  0.00  0.00    +0.000 C 
ATOM      5  C   UNL     1      44.093   4.075  12.355  0.00  0.00    +0.000 C 
ATOM      6  C   UNL     1      45.589   3.956  12.696  0.00  0.00    +0.000 C 
ATOM      7  C   UNL     1      46.082   5.137  13.528  0.00  0.00    +0.000 C 
BRANCH   5   8
ATOM      8  C   UNL     1      43.648   2.940  11.410  0.00  0.00    +0.000 C 
BRANCH   8   9
ATOM      9  N   UNL     1      44.796   2.445  10.655  0.00  0.00    +0.000 NA
ATOM     10  H   UNL     1      45.220   1.655  11.139  0.00  0.00    +0.000 HD
BRANCH   9  11
ATOM     11  C   UNL     1      44.433   2.048   9.301  0.00  0.00    +0.000 C 
BRANCH  11  12
ATOM     12  C   UNL     1      45.598   2.260   8.364  0.00  0.00    +0.000 A 
ATOM     13  C   UNL     1      46.409   1.191   7.975  0.00  0.00    +0.000 A 
ATOM     14  C   UNL     1      47.468   1.439   7.115  0.00  0.00    +0.000 A 
ATOM     15  N   UNL     1      47.772   2.660   6.626  0.00  0.00    +0.000 NA
ATOM     16  C   UNL     1      46.979   3.681   7.015  0.00  0.00    +0.000 A 
ATOM     17  C   UNL     1      45.896   3.533   7.867  0.00  0.00    +0.000 A 
ENDBRANCH  11  12
ENDBRANCH   9  11
ENDBRANCH   8   9
ENDBRANCH   5   8
ENDBRANCH   1   2
BRANCH   1  20
ATOM     18  O   UNL     1      47.383   9.347  11.875  0.00  0.00    +0.000 OA
ATOM     19  C   UNL     1      48.237   8.481  12.023  0.00  0.00    +0.000 C 
ATOM     20  N   UNL     1      47.980   7.140  11.852  0.00  0.00    +0.000 N 
ATOM     21  H   UNL     1      48.703   6.462  12.070  0.00  0.00    +0.000 HD
BRANCH  19  22
ATOM     22  C   UNL     1      49.620   8.819  12.359  0.00  0.00    +0.000 A 
ATOM     23  C   UNL     1      50.308   9.771  11.619  0.00  0.00    +0.000 A 
ATOM     24  S   UNL     1      51.897  10.041  12.170  0.00  0.00    +0.000 S 
ATOM     25  C   UNL     1      51.707   8.925  13.440  0.00  0.00    +0.000 A 
ATOM     26  N   UNL     1      52.706   8.696  14.334  0.00  0.00    +0.000 NA
ATOM     27  C   UNL     1      52.404   7.865  15.274  0.00  0.00    +0.000 A 
ATOM     28  N   UNL     1      51.200   7.225  15.392  0.00  0.00    +0.000 N 
ATOM     29  C   UNL     1      50.192   7.356  14.466  0.00  0.00    +0.000 A 
ATOM     30  O   UNL     1      49.189   6.653  14.521  0.00  0.00    +0.000 OA
ATOM     31  C   UNL     1      50.462   8.327  13.424  0.00  0.00    +0.000 A 
ATOM     32  H   UNL     1      51.039   6.552  16.127  0.00  0.00    +0.000 HD
ENDBRANCH  19  22
ENDBRANCH   1  20
TORSDOF 7
ENDMDL
MODEL 6
REMARK VINA RESULT:    -7.513      3.783      8.749
REMARK INTER + INTRA:         -11.416
REMARK INTER:                  -9.384
REMARK INTRA:                  -2.032
REMARK UNBOUND:                -0.828
REMARK  Name = 
REMARK  7 active torsions:
REMARK  status: ('A' for Active; 'I' for Inactive)
REMARK    1  A    between atoms: C_2  and  C_20
REMARK    2  A    between atoms: N_3  and  C_4
REMARK    3  A    between atoms: C_4  and  C_5
REMARK    4  A    between atoms: C_8  and  C_9
REMARK    5  A    between atoms: C_9  and  N_10
REMARK    6  A    between atoms: N_10  and  C_11
REMARK    7  A    between atoms: C_11  and  C_12
REMARK                            x       y       z     vdW  Elec       q    Type
REMARK                         _______ _______ _______ _____ _____    ______ ____
ROOT
ATOM      1  C   UNL     1      49.122   6.919  15.591  0.00  0.00    +0.000 C 
ENDROOT
BRANCH   1   2
ATOM      2  C   UNL     1      49.444   8.403  15.859  0.00  0.00    +0.000 C 
ATOM      3  C   UNL     1      48.269   9.178  16.477  0.00  0.00    +0.000 C 
ATOM      4  C   UNL     1      47.935   8.705  17.891  0.00  0.00    +0.000 C 
ATOM      5  C   UNL     1      49.163   8.732  18.818  0.00  0.00    +0.000 C 
ATOM      6  C   UNL     1      50.374   8.022  18.187  0.00  0.00    +0.000 C 
ATOM      7  C   UNL     1      50.665   8.530  16.777  0.00  0.00    +0.000 C 
BRANCH   5   8
ATOM      8  C   UNL     1      48.810   8.116  20.186  0.00  0.00    +0.000 C 
BRANCH   8   9
ATOM      9  N   UNL     1      47.722   7.154  20.033  0.00  0.00    +0.000 NA
ATOM     10  H   UNL     1      47.359   7.185  19.082  0.00  0.00    +0.000 HD
BRANCH   9  11
ATOM     11  C   UNL     1      48.139   5.796  20.352  0.00  0.00    +0.000 C 
BRANCH  11  12
ATOM     12  C   UNL     1      48.302   4.988  19.087  0.00  0.00    +0.000 A 
ATOM     13  C   UNL     1      47.224   4.782  18.223  0.00  0.00    +0.000 A 
ATOM     14  C   UNL     1      47.426   4.030  17.077  0.00  0.00    +0.000 A 
ATOM     15  N   UNL     1      48.608   3.475  16.737  0.00  0.00    +0.000 NA
ATOM     16  C   UNL     1      49.639   3.682  17.585  0.00  0.00    +0.000 A 
ATOM     17  C   UNL     1      49.537   4.421  18.752  0.00  0.00    +0.000 A 
ENDBRANCH  11  12
ENDBRANCH   9  11
ENDBRANCH   8   9
ENDBRANCH   5   8
ENDBRANCH   1   2
BRANCH   1  20
ATOM     18  O   UNL     1      49.000   6.238  12.839  0.00  0.00    +0.000 OA
ATOM     19  C   UNL     1      47.959   6.385  13.467  0.00  0.00    +0.000 C 
ATOM     20  N   UNL     1      47.930   6.754  14.792  0.00  0.00    +0.000 N 
ATOM     21  H   UNL     1      47.043   6.779  15.284  0.00  0.00    +0.000 HD
BRANCH  19  22
ATOM     22  C   UNL     1      46.651   6.216  12.832  0.00  0.00    +0.000 A 
ATOM     23  C   UNL     1      45.992   7.307  12.283  0.00  0.00    +0.000 A 
ATOM     24  S   UNL     1      44.494   6.909  11.576  0.00  0.00    +0.000 S 
ATOM     25  C   UNL     1      44.694   5.260  11.943  0.00  0.00    +0.000 A 
ATOM     26  N   UNL     1      43.765   4.337  11.575  0.00  0.00    +0.000 NA
ATOM     27  C   UNL     1      44.072   3.119  11.872  0.00  0.00    +0.000 A 
ATOM     28  N   UNL     1      45.215   2.740  12.523  0.00  0.00    +0.000 N 
ATOM     29  C   UNL     1      46.141   3.642  12.992  0.00  0.00    +0.000 A 
ATOM     30  O   UNL     1      47.072   3.279  13.702  0.00  0.00    +0.000 OA
ATOM     31  C   UNL     1      45.869   5.019  12.628  0.00  0.00    +0.000 A 
ATOM     32  H   UNL     1      45.379   1.774  12.765  0.00  0.00    +0.000 HD
ENDBRANCH  19  22
ENDBRANCH   1  20
TORSDOF 7
ENDMDL
MODEL 7
REMARK VINA RESULT:    -7.490      3.473      8.589
REMARK INTER + INTRA:         -11.383
REMARK INTER:                 -10.205
REMARK INTRA:                  -1.178
REMARK UNBOUND:                -0.828
REMARK  Name = 
REMARK  7 active torsions:
REMARK  status: ('A' for Active; 'I' for Inactive)
REMARK    1  A    between atoms: C_2  and  C_20
REMARK    2  A    between atoms: N_3  and  C_4
REMARK    3  A    between atoms: C_4  and  C_5
REMARK    4  A    between atoms: C_8  and  C_9
REMARK    5  A    between atoms: C_9  and  N_10
REMARK    6  A    between atoms: N_10  and  C_11
REMARK    7  A    between atoms: C_11  and  C_12
REMARK                            x       y       z     vdW  Elec       q    Type
REMARK                         _______ _______ _______ _____ _____    ______ ____
ROOT
ATOM      1  C   UNL     1      46.582   8.227  12.840  0.00  0.00    +0.000 C 
ENDROOT
BRANCH   1   2
ATOM      2  C   UNL     1      48.100   8.260  12.569  0.00  0.00    +0.000 C 
ATOM      3  C   UNL     1      48.823   9.407  13.294  0.00  0.00    +0.000 C 
ATOM      4  C   UNL     1      48.814   9.238  14.812  0.00  0.00    +0.000 C 
ATOM      5  C   UNL     1      49.373   7.872  15.247  0.00  0.00    +0.000 C 
ATOM      6  C   UNL     1      48.711   6.712  14.482  0.00  0.00    +0.000 C 
ATOM      7  C   UNL     1      48.746   6.929  12.972  0.00  0.00    +0.000 C 
BRANCH   5   8
ATOM      8  C   UNL     1      49.213   7.693  16.770  0.00  0.00    +0.000 C 
BRANCH   8   9
ATOM      9  N   UNL     1      48.241   6.638  17.047  0.00  0.00    +0.000 NA
ATOM     10  H   UNL     1      48.020   6.132  16.192  0.00  0.00    +0.000 HD
BRANCH   9  11
ATOM     11  C   UNL     1      48.718   5.703  18.058  0.00  0.00    +0.000 C 
BRANCH  11  12
ATOM     12  C   UNL     1      48.949   4.344  17.445  0.00  0.00    +0.000 A 
ATOM     13  C   UNL     1      50.150   3.660  17.650  0.00  0.00    +0.000 A 
ATOM     14  C   UNL     1      50.314   2.415  17.061  0.00  0.00    +0.000 A 
ATOM     15  N   UNL     1      49.381   1.814  16.293  0.00  0.00    +0.000 NA
ATOM     16  C   UNL     1      48.228   2.491  16.104  0.00  0.00    +0.000 A 
ATOM     17  C   UNL     1      47.968   3.738  16.652  0.00  0.00    +0.000 A 
ENDBRANCH  11  12
ENDBRANCH   9  11
ENDBRANCH   8   9
ENDBRANCH   5   8
ENDBRANCH   1   2
BRANCH   1  20
ATOM     18  O   UNL     1      44.442   7.630  11.076  0.00  0.00    +0.000 OA
ATOM     19  C   UNL     1      44.993   6.718  11.679  0.00  0.00    +0.000 C 
ATOM     20  N   UNL     1      46.010   6.926  12.583  0.00  0.00    +0.000 N 
ATOM     21  H   UNL     1      46.486   6.128  12.990  0.00  0.00    +0.000 HD
BRANCH  19  22
ATOM     22  C   UNL     1      44.576   5.326  11.511  0.00  0.00    +0.000 A 
ATOM     23  C   UNL     1      43.848   4.687  12.505  0.00  0.00    +0.000 A 
ATOM     24  S   UNL     1      43.440   3.078  12.120  0.00  0.00    +0.000 S 
ATOM     25  C   UNL     1      44.187   3.193  10.596  0.00  0.00    +0.000 A 
ATOM     26  N   UNL     1      44.173   2.151   9.722  0.00  0.00    +0.000 NA
ATOM     27  C   UNL     1      44.731   2.397   8.585  0.00  0.00    +0.000 A 
ATOM     28  N   UNL     1      45.322   3.586   8.247  0.00  0.00    +0.000 N 
ATOM     29  C   UNL     1      45.438   4.637   9.125  0.00  0.00    +0.000 A 
ATOM     30  O   UNL     1      46.105   5.625   8.841  0.00  0.00    +0.000 OA
ATOM     31  C   UNL     1      44.771   4.429  10.396  0.00  0.00    +0.000 A 
ATOM     32  H   UNL     1      45.780   3.702   7.355  0.00  0.00    +0.000 HD
ENDBRANCH  19  22
ENDBRANCH   1  20
TORSDOF 7
ENDMDL
MODEL 8
REMARK VINA RESULT:    -7.240      3.822      9.118
REMARK INTER + INTRA:         -11.031
REMARK INTER:                  -8.842
REMARK INTRA:                  -2.188
REMARK UNBOUND:                -0.828
REMARK  Name = 
REMARK  7 active torsions:
REMARK  status: ('A' for Active; 'I' for Inactive)
REMARK    1  A    between atoms: C_2  and  C_20
REMARK    2  A    between atoms: N_3  and  C_4
REMARK    3  A    between atoms: C_4  and  C_5
REMARK    4  A    between atoms: C_8  and  C_9
REMARK    5  A    between atoms: C_9  and  N_10
REMARK    6  A    between atoms: N_10  and  C_11
REMARK    7  A    between atoms: C_11  and  C_12
REMARK                            x       y       z     vdW  Elec       q    Type
REMARK                         _______ _______ _______ _____ _____    ______ ____
ROOT
ATOM      1  C   UNL     1      48.873   5.825  16.321  0.00  0.00    +0.000 C 
ENDROOT
BRANCH   1   2
ATOM      2  C   UNL     1      48.734   4.610  17.261  0.00  0.00    +0.000 C 
ATOM      3  C   UNL     1      49.804   4.569  18.364  0.00  0.00    +0.000 C 
ATOM      4  C   UNL     1      49.658   5.714  19.365  0.00  0.00    +0.000 C 
ATOM      5  C   UNL     1      48.245   5.780  19.969  0.00  0.00    +0.000 C 
ATOM      6  C   UNL     1      47.154   5.751  18.883  0.00  0.00    +0.000 C 
ATOM      7  C   UNL     1      47.346   4.590  17.911  0.00  0.00    +0.000 C 
BRANCH   5   8
ATOM      8  C   UNL     1      48.105   7.030  20.861  0.00  0.00    +0.000 C 
BRANCH   8   9
ATOM      9  N   UNL     1      47.491   8.116  20.101  0.00  0.00    +0.000 NA
ATOM     10  H   UNL     1      46.668   8.464  20.591  0.00  0.00    +0.000 HD
BRANCH   9  11
ATOM     11  C   UNL     1      48.418   9.214  19.864  0.00  0.00    +0.000 C 
BRANCH  11  12
ATOM     12  C   UNL     1      48.839   9.240  18.415  0.00  0.00    +0.000 A 
ATOM     13  C   UNL     1      50.182   9.104  18.056  0.00  0.00    +0.000 A 
ATOM     14  C   UNL     1      50.517   9.137  16.711  0.00  0.00    +0.000 A 
ATOM     15  N   UNL     1      49.622   9.297  15.714  0.00  0.00    +0.000 NA
ATOM     16  C   UNL     1      48.329   9.430  16.080  0.00  0.00    +0.000 A 
ATOM     17  C   UNL     1      47.894   9.406  17.396  0.00  0.00    +0.000 A 
ENDBRANCH  11  12
ENDBRANCH   9  11
ENDBRANCH   8   9
ENDBRANCH   5   8
ENDBRANCH   1   2
BRANCH   1  20
ATOM     18  O   UNL     1      49.139   6.592  13.603  0.00  0.00    +0.000 OA
ATOM     19  C   UNL     1      48.049   6.218  14.016  0.00  0.00    +0.000 C 
ATOM     20  N   UNL     1      47.825   5.868  15.327  0.00  0.00    +0.000 N 
ATOM     21  H   UNL     1      46.925   5.485  15.595  0.00  0.00    +0.000 HD
BRANCH  19  22
ATOM     22  C   UNL     1      46.879   6.154  13.139  0.00  0.00    +0.000 A 
ATOM     23  C   UNL     1      46.407   7.302  12.517  0.00  0.00    +0.000 A 
ATOM     24  S   UNL     1      45.049   7.025  11.524  0.00  0.00    +0.000 S 
ATOM     25  C   UNL     1      45.072   5.358  11.861  0.00  0.00    +0.000 A 
ATOM     26  N   UNL     1      44.174   4.510  11.289  0.00  0.00    +0.000 NA
ATOM     27  C   UNL     1      44.342   3.267  11.593  0.00  0.00    +0.000 A 
ATOM     28  N   UNL     1      45.314   2.794  12.434  0.00  0.00    +0.000 N 
ATOM     29  C   UNL     1      46.187   3.619  13.103  0.00  0.00    +0.000 A 
ATOM     30  O   UNL     1      46.941   3.175  13.962  0.00  0.00    +0.000 OA
ATOM     31  C   UNL     1      46.076   5.020  12.746  0.00  0.00    +0.000 A 
ATOM     32  H   UNL     1      45.367   1.813  12.666  0.00  0.00    +0.000 HD
ENDBRANCH  19  22
ENDBRANCH   1  20
TORSDOF 7
ENDMDL
MODEL 9
REMARK VINA RESULT:    -7.062      3.347      9.004
REMARK INTER + INTRA:         -10.780
REMARK INTER:                  -9.294
REMARK INTRA:                  -1.486
REMARK UNBOUND:                -0.828
REMARK  Name = 
REMARK  7 active torsions:
REMARK  status: ('A' for Active; 'I' for Inactive)
REMARK    1  A    between atoms: C_2  and  C_20
REMARK    2  A    between atoms: N_3  and  C_4
REMARK    3  A    between atoms: C_4  and  C_5
REMARK    4  A    between atoms: C_8  and  C_9
REMARK    5  A    between atoms: C_9  and  N_10
REMARK    6  A    between atoms: N_10  and  C_11
REMARK    7  A    between atoms: C_11  and  C_12
REMARK                            x       y       z     vdW  Elec       q    Type
REMARK                         _______ _______ _______ _____ _____    ______ ____
ROOT
ATOM      1  C   UNL     1      48.624   5.633  16.982  0.00  0.00    +0.000 C 
ENDROOT
BRANCH   1   2
ATOM      2  C   UNL     1      48.301   6.690  18.057  0.00  0.00    +0.000 C 
ATOM      3  C   UNL     1      48.435   6.158  19.493  0.00  0.00    +0.000 C 
ATOM      4  C   UNL     1      49.879   5.819  19.859  0.00  0.00    +0.000 C 
ATOM      5  C   UNL     1      50.832   7.002  19.619  0.00  0.00    +0.000 C 
ATOM      6  C   UNL     1      50.664   7.597  18.208  0.00  0.00    +0.000 C 
ATOM      7  C   UNL     1      49.206   7.917  17.893  0.00  0.00    +0.000 C 
BRANCH   5   8
ATOM      8  C   UNL     1      52.291   6.570  19.868  0.00  0.00    +0.000 C 
BRANCH   8   9
ATOM      9  N   UNL     1      52.394   5.114  19.811  0.00  0.00    +0.000 NA
ATOM     10  H   UNL     1      51.470   4.694  19.897  0.00  0.00    +0.000 HD
BRANCH   9  11
ATOM     11  C   UNL     1      53.026   4.654  18.582  0.00  0.00    +0.000 C 
BRANCH  11  12
ATOM     12  C   UNL     1      52.396   3.363  18.120  0.00  0.00    +0.000 A 
ATOM     13  C   UNL     1      53.088   2.154  18.210  0.00  0.00    +0.000 A 
ATOM     14  C   UNL     1      52.465   0.997  17.768  0.00  0.00    +0.000 A 
ATOM     15  N   UNL     1      51.221   0.961  17.248  0.00  0.00    +0.000 NA
ATOM     16  C   UNL     1      50.567   2.140  17.166  0.00  0.00    +0.000 A 
ATOM     17  C   UNL     1      51.103   3.348  17.584  0.00  0.00    +0.000 A 
ENDBRANCH  11  12
ENDBRANCH   9  11
ENDBRANCH   8   9
ENDBRANCH   5   8
ENDBRANCH   1   2
BRANCH   1  20
ATOM     18  O   UNL     1      49.235   6.637  14.399  0.00  0.00    +0.000 OA
ATOM     19  C   UNL     1      48.119   6.183  14.617  0.00  0.00    +0.000 C 
ATOM     20  N   UNL     1      47.729   5.715  15.851  0.00  0.00    +0.000 N 
ATOM     21  H   UNL     1      46.822   5.272  15.953  0.00  0.00    +0.000 HD
BRANCH  19  22
ATOM     22  C   UNL     1      47.092   6.143  13.576  0.00  0.00    +0.000 A 
ATOM     23  C   UNL     1      46.689   7.311  12.943  0.00  0.00    +0.000 A 
ATOM     24  S   UNL     1      45.499   7.061  11.750  0.00  0.00    +0.000 S 
ATOM     25  C   UNL     1      45.511   5.379  12.009  0.00  0.00    +0.000 A 
ATOM     26  N   UNL     1      44.727   4.546  11.273  0.00  0.00    +0.000 NA
ATOM     27  C   UNL     1      44.879   3.293  11.541  0.00  0.00    +0.000 A 
ATOM     28  N   UNL     1      45.727   2.795  12.493  0.00  0.00    +0.000 N 
ATOM     29  C   UNL     1      46.474   3.600  13.321  0.00  0.00    +0.000 A 
ATOM     30  O   UNL     1      47.104   3.128  14.260  0.00  0.00    +0.000 OA
ATOM     31  C   UNL     1      46.383   5.015  13.016  0.00  0.00    +0.000 A 
ATOM     32  H   UNL     1      45.769   1.805  12.685  0.00  0.00    +0.000 HD
ENDBRANCH  19  22
ENDBRANCH   1  20
TORSDOF 7
ENDMDL
