MODEL 1
REMARK VINA RESULT:    -8.860      0.000      0.000
REMARK INTER + INTRA:         -11.614
REMARK INTER:                 -10.932
REMARK INTRA:                  -0.682
REMARK UNBOUND:                -0.682
REMARK  Name = 
REMARK  6 active torsions:
REMARK  status: ('A' for Active; 'I' for Inactive)
REMARK    1  A    between atoms: C_1  and  C_2
REMARK    2  A    between atoms: C_7  and  C_8
REMARK    3  A    between atoms: C_8  and  N_9
REMARK    4  A    between atoms: N_9  and  C_10
REMARK    5  A    between atoms: C_13  and  C_14
REMARK    6  A    between atoms: C_25  and  C_26
REMARK                            x       y       z     vdW  Elec       q    Type
REMARK                         _______ _______ _______ _____ _____    ______ ____
ROOT
ATOM      1  C   UNL     1      43.849   5.048  11.389  0.00  0.00    +0.000 C 
ATOM      2  C   UNL     1      42.998   6.258  11.039  0.00  0.00    +0.000 C 
ATOM      3  C   UNL     1      42.488   5.284  12.044  0.00  0.00    +0.000 C 
ENDROOT
BRANCH   1  10
ATOM      4  C   UNL     1      50.207   7.368  14.749  0.00  0.00    +0.000 C 
ATOM      5  C   UNL     1      49.437   8.651  14.457  0.00  0.00    +0.000 C 
ATOM      6  C   UNL     1      47.904   8.519  14.543  0.00  0.00    +0.000 C 
ATOM      7  N   UNL     1      47.248   8.146  13.283  0.00  0.00    +0.000 N 
ATOM      8  C   UNL     1      46.774   6.850  13.140  0.00  0.00    +0.000 A 
ATOM      9  C   UNL     1      45.655   6.606  12.336  0.00  0.00    +0.000 A 
ATOM     10  C   UNL     1      45.116   5.314  12.197  0.00  0.00    +0.000 A 
ATOM     11  C   UNL     1      45.795   4.289  12.855  0.00  0.00    +0.000 A 
ATOM     12  C   UNL     1      46.884   4.601  13.649  0.00  0.00    +0.000 A 
ATOM     13  N   UNL     1      47.363   5.849  13.819  0.00  0.00    +0.000 NA
ATOM     14  C   UNL     1      47.775   8.808  12.083  0.00  0.00    +0.000 C 
ATOM     15  C   UNL     1      49.316   8.840  12.042  0.00  0.00    +0.000 C 
ATOM     16  C   UNL     1      49.959   7.547  11.549  0.00  0.00    +0.000 C 
ATOM     17  O   UNL     1      49.902   9.303  13.266  0.00  0.00    +0.000 OA
ENDBRANCH   1  10
BRANCH   1  18
ATOM     18  N   UNL     1      43.898   3.809  10.607  0.00  0.00    +0.000 N 
ATOM     19  H   UNL     1      43.199   3.098  10.800  0.00  0.00    +0.000 HD
BRANCH  18  20
ATOM     20  C   UNL     1      44.801   3.500   9.586  0.00  0.00    +0.000 A 
ATOM     21  C   UNL     1      45.164   2.160   9.386  0.00  0.00    +0.000 A 
ATOM     22  C   UNL     1      46.012   1.800   8.344  0.00  0.00    +0.000 A 
ATOM     23  C   UNL     1      46.481   2.807   7.514  0.00  0.00    +0.000 A 
ATOM     24  N   UNL     1      46.154   4.122   7.656  0.00  0.00    +0.000 NA
ATOM     25  C   UNL     1      45.316   4.426   8.681  0.00  0.00    +0.000 A 
BRANCH  23  26
ATOM     26  C   UNL     1      47.407   2.478   6.383  0.00  0.00    +0.000 C 
ATOM     27  N   UNL     1      47.344   3.337   5.320  0.00  0.00    +0.000 N 
ATOM     28  O   UNL     1      48.167   1.518   6.402  0.00  0.00    +0.000 OA
ATOM     29  H   UNL     1      46.696   4.116   5.353  0.00  0.00    +0.000 HD
ATOM     30  H   UNL     1      47.935   3.190   4.516  0.00  0.00    +0.000 HD
ENDBRANCH  23  26
ENDBRANCH  18  20
ENDBRANCH   1  18
TORSDOF 4
ENDMDL
MODEL 2
REMARK VINA RESULT:    -7.954      1.503      2.397
REMARK INTER + INTRA:         -10.496
REMARK INTER:                 -10.541
REMARK INTRA:                   0.045
REMARK UNBOUND:                -0.682
REMARK  Name = 
REMARK  6 active torsions:
REMARK  status: ('A' for Active; 'I' for Inactive)
REMARK    1  A    between atoms: C_1  and  C_2
REMARK    2  A    between atoms: C_7  and  C_8
REMARK    3  A    between atoms: C_8  and  N_9
REMARK    4  A    between atoms: N_9  and  C_10
REMARK    5  A    between atoms: C_13  and  C_14
REMARK    6  A    between atoms: C_25  and  C_26
REMARK                            x       y       z     vdW  Elec       q    Type
REMARK                         _______ _______ _______ _____ _____    ______ ____
ROOT
ATOM      1  C   UNL     1      43.754   5.478  11.149  0.00  0.00    +0.000 C 
ATOM      2  C   UNL     1      42.543   5.337  12.058  0.00  0.00    +0.000 C 
ATOM      3  C   UNL     1      43.623   4.315  12.134  0.00  0.00    +0.000 C 
ENDROOT
BRANCH   1  10
ATOM      4  C   UNL     1      49.260  10.253  13.142  0.00  0.00    +0.000 C 
ATOM      5  C   UNL     1      49.990   8.999  12.678  0.00  0.00    +0.000 C 
ATOM      6  C   UNL     1      49.295   8.230  11.536  0.00  0.00    +0.000 C 
ATOM      7  N   UNL     1      48.345   7.200  11.977  0.00  0.00    +0.000 N 
ATOM      8  C   UNL     1      46.987   7.457  11.856  0.00  0.00    +0.000 A 
ATOM      9  C   UNL     1      46.099   6.396  11.638  0.00  0.00    +0.000 A 
ATOM     10  C   UNL     1      44.720   6.614  11.469  0.00  0.00    +0.000 A 
ATOM     11  C   UNL     1      44.285   7.934  11.589  0.00  0.00    +0.000 A 
ATOM     12  C   UNL     1      45.217   8.937  11.787  0.00  0.00    +0.000 A 
ATOM     13  N   UNL     1      46.544   8.725  11.897  0.00  0.00    +0.000 NA
ATOM     14  C   UNL     1      48.781   6.397  13.126  0.00  0.00    +0.000 C 
ATOM     15  C   UNL     1      49.405   7.248  14.252  0.00  0.00    +0.000 C 
ATOM     16  C   UNL     1      48.388   7.917  15.171  0.00  0.00    +0.000 C 
ATOM     17  O   UNL     1      50.395   8.169  13.777  0.00  0.00    +0.000 OA
ENDBRANCH   1  10
BRANCH   1  18
ATOM     18  N   UNL     1      43.801   5.038   9.751  0.00  0.00    +0.000 N 
ATOM     19  H   UNL     1      43.160   5.474   9.095  0.00  0.00    +0.000 HD
BRANCH  18  20
ATOM     20  C   UNL     1      44.663   4.084   9.203  0.00  0.00    +0.000 A 
ATOM     21  C   UNL     1      44.459   2.731   9.512  0.00  0.00    +0.000 A 
ATOM     22  C   UNL     1      45.255   1.743   8.941  0.00  0.00    +0.000 A 
ATOM     23  C   UNL     1      46.249   2.141   8.061  0.00  0.00    +0.000 A 
ATOM     24  N   UNL     1      46.485   3.439   7.719  0.00  0.00    +0.000 NA
ATOM     25  C   UNL     1      45.678   4.368   8.293  0.00  0.00    +0.000 A 
BRANCH  23  26
ATOM     26  C   UNL     1      47.142   1.120   7.427  0.00  0.00    +0.000 C 
ATOM     27  N   UNL     1      46.782  -0.180   7.655  0.00  0.00    +0.000 N 
ATOM     28  O   UNL     1      48.120   1.417   6.751  0.00  0.00    +0.000 OA
ATOM     29  H   UNL     1      45.965  -0.374   8.222  0.00  0.00    +0.000 HD
ATOM     30  H   UNL     1      47.328  -0.933   7.263  0.00  0.00    +0.000 HD
ENDBRANCH  23  26
ENDBRANCH  18  20
ENDBRANCH   1  18
TORSDOF 4
ENDMDL
MODEL 3
REMARK VINA RESULT:    -6.821      3.848      5.974
REMARK INTER + INTRA:          -9.098
REMARK INTER:                  -8.748
REMARK INTRA:                  -0.350
REMARK UNBOUND:                -0.682
REMARK  Name = 
REMARK  6 active torsions:
REMARK  status: ('A' for Active; 'I' for Inactive)
REMARK    1  A    between atoms: C_1  and  C_2
REMARK    2  A    between atoms: C_7  and  C_8
REMARK    3  A    between atoms: C_8  and  N_9
REMARK    4  A    between atoms: N_9  and  C_10
REMARK    5  A    between atoms: C_13  and  C_14
REMARK    6  A    between atoms: C_25  and  C_26
REMARK                            x       y       z     vdW  Elec       q    Type
REMARK                         _______ _______ _______ _____ _____    ______ ____
ROOT
ATOM      1  C   UNL     1      48.166   7.318  13.419  0.00  0.00    +0.000 C 
ATOM      2  C   UNL     1      48.979   7.293  12.134  0.00  0.00    +0.000 C 
ATOM      3  C   UNL     1      48.541   8.606  12.684  0.00  0.00    +0.000 C 
ENDROOT
BRANCH   1  10
ATOM      4  C   UNL     1      50.741   5.374  20.251  0.00  0.00    +0.000 C 
ATOM      5  C   UNL     1      49.476   4.544  20.067  0.00  0.00    +0.000 C 
ATOM      6  C   UNL     1      49.197   4.102  18.617  0.00  0.00    +0.000 C 
ATOM      7  N   UNL     1      48.382   5.041  17.834  0.00  0.00    +0.000 N 
ATOM      8  C   UNL     1      49.008   5.815  16.868  0.00  0.00    +0.000 A 
ATOM      9  C   UNL     1      48.297   6.206  15.727  0.00  0.00    +0.000 A 
ATOM     10  C   UNL     1      48.904   6.955  14.703  0.00  0.00    +0.000 A 
ATOM     11  C   UNL     1      50.230   7.333  14.918  0.00  0.00    +0.000 A 
ATOM     12  C   UNL     1      50.879   6.898  16.059  0.00  0.00    +0.000 A 
ATOM     13  N   UNL     1      50.306   6.136  17.012  0.00  0.00    +0.000 NA
ATOM     14  C   UNL     1      47.255   5.644  18.556  0.00  0.00    +0.000 C 
ATOM     15  C   UNL     1      47.634   6.120  19.974  0.00  0.00    +0.000 C 
ATOM     16  C   UNL     1      48.323   7.479  20.018  0.00  0.00    +0.000 C 
ATOM     17  O   UNL     1      48.344   5.128  20.728  0.00  0.00    +0.000 OA
ENDBRANCH   1  10
BRANCH   1  18
ATOM     18  N   UNL     1      46.716   7.105  13.490  0.00  0.00    +0.000 N 
ATOM     19  H   UNL     1      46.159   7.793  13.987  0.00  0.00    +0.000 HD
BRANCH  18  20
ATOM     20  C   UNL     1      45.998   6.052  12.918  0.00  0.00    +0.000 A 
ATOM     21  C   UNL     1      45.564   6.171  11.590  0.00  0.00    +0.000 A 
ATOM     22  C   UNL     1      44.899   5.123  10.962  0.00  0.00    +0.000 A 
ATOM     23  C   UNL     1      44.683   3.964  11.691  0.00  0.00    +0.000 A 
ATOM     24  N   UNL     1      45.090   3.790  12.980  0.00  0.00    +0.000 NA
ATOM     25  C   UNL     1      45.743   4.836  13.549  0.00  0.00    +0.000 A 
BRANCH  23  26
ATOM     26  C   UNL     1      43.961   2.808  11.067  0.00  0.00    +0.000 C 
ATOM     27  N   UNL     1      44.566   2.284   9.958  0.00  0.00    +0.000 N 
ATOM     28  O   UNL     1      42.913   2.359  11.513  0.00  0.00    +0.000 OA
ATOM     29  H   UNL     1      45.433   2.693   9.628  0.00  0.00    +0.000 HD
ATOM     30  H   UNL     1      44.149   1.502   9.476  0.00  0.00    +0.000 HD
ENDBRANCH  23  26
ENDBRANCH  18  20
ENDBRANCH   1  18
TORSDOF 4
ENDMDL
MODEL 4
REMARK VINA RESULT:    -6.314      3.211      8.485
REMARK INTER + INTRA:          -8.472
REMARK INTER:                  -7.601
REMARK INTRA:                  -0.872
REMARK UNBOUND:                -0.682
REMARK  Name = 
REMARK  6 active torsions:
REMARK  status: ('A' for Active; 'I' for Inactive)
REMARK    1  A    between atoms: C_1  and  C_2
REMARK    2  A    between atoms: C_7  and  C_8
REMARK    3  A    between atoms: C_8  and  N_9
REMARK    4  A    between atoms: N_9  and  C_10
REMARK    5  A    between atoms: C_13  and  C_14
REMARK    6  A    between atoms: C_25  and  C_26
REMARK                            x       y       z     vdW  Elec       q    Type
REMARK                         _______ _______ _______ _____ _____    ______ ____
ROOT
ATOM      1  C   UNL     1      49.405   7.854  12.491  0.00  0.00    +0.000 C 
ATOM      2  C   UNL     1      49.970   9.033  11.713  0.00  0.00    +0.000 C 
ATOM      3  C   UNL     1      50.285   7.650  11.257  0.00  0.00    +0.000 C 
ENDROOT
BRANCH   1  10
ATOM      4  C   UNL     1      42.249   5.543  11.747  0.00  0.00    +0.000 C 
ATOM      5  C   UNL     1      42.959   4.381  12.431  0.00  0.00    +0.000 C 
ATOM      6  C   UNL     1      44.092   4.790  13.393  0.00  0.00    +0.000 C 
ATOM      7  N   UNL     1      45.419   4.894  12.771  0.00  0.00    +0.000 N 
ATOM      8  C   UNL     1      45.943   6.157  12.536  0.00  0.00    +0.000 A 
ATOM      9  C   UNL     1      47.329   6.347  12.568  0.00  0.00    +0.000 A 
ATOM     10  C   UNL     1      47.902   7.618  12.377  0.00  0.00    +0.000 A 
ATOM     11  C   UNL     1      47.016   8.658  12.096  0.00  0.00    +0.000 A 
ATOM     12  C   UNL     1      45.656   8.404  12.097  0.00  0.00    +0.000 A 
ATOM     13  N   UNL     1      45.112   7.194  12.333  0.00  0.00    +0.000 NA
ATOM     14  C   UNL     1      45.741   3.838  11.803  0.00  0.00    +0.000 C 
ATOM     15  C   UNL     1      44.579   3.535  10.835  0.00  0.00    +0.000 C 
ATOM     16  C   UNL     1      44.467   4.505   9.663  0.00  0.00    +0.000 C 
ATOM     17  O   UNL     1      43.324   3.347  11.505  0.00  0.00    +0.000 OA
ENDBRANCH   1  10
BRANCH   1  18
ATOM     18  N   UNL     1      49.999   7.301  13.712  0.00  0.00    +0.000 N 
ATOM     19  H   UNL     1      50.802   6.688  13.613  0.00  0.00    +0.000 HD
BRANCH  18  20
ATOM     20  C   UNL     1      49.591   7.548  15.026  0.00  0.00    +0.000 A 
ATOM     21  C   UNL     1      49.518   8.875  15.473  0.00  0.00    +0.000 A 
ATOM     22  C   UNL     1      49.059   9.170  16.753  0.00  0.00    +0.000 A 
ATOM     23  C   UNL     1      48.678   8.113  17.563  0.00  0.00    +0.000 A 
ATOM     24  N   UNL     1      48.720   6.806  17.178  0.00  0.00    +0.000 NA
ATOM     25  C   UNL     1      49.165   6.566  15.917  0.00  0.00    +0.000 A 
BRANCH  23  26
ATOM     26  C   UNL     1      48.187   8.372  18.955  0.00  0.00    +0.000 C 
ATOM     27  N   UNL     1      49.114   8.165  19.940  0.00  0.00    +0.000 N 
ATOM     28  O   UNL     1      47.047   8.746  19.201  0.00  0.00    +0.000 OA
ATOM     29  H   UNL     1      50.044   7.854  19.684  0.00  0.00    +0.000 HD
ATOM     30  H   UNL     1      48.868   8.318  20.906  0.00  0.00    +0.000 HD
ENDBRANCH  23  26
ENDBRANCH  18  20
ENDBRANCH   1  18
TORSDOF 4
ENDMDL
