MODEL 1
REMARK VINA RESULT:    -8.702      0.000      0.000
REMARK INTER + INTRA:         -14.254
REMARK INTER:                 -12.772
REMARK INTRA:                  -1.482
REMARK UNBOUND:                -1.482
REMARK  Name = 
REMARK  9 active torsions:
REMARK  status: ('A' for Active; 'I' for Inactive)
REMARK    1  A    between atoms: C_1  and  O_2
REMARK    2  A    between atoms: O_2  and  C_3
REMARK    3  A    between atoms: C_10  and  C_11
REMARK    4  A    between atoms: N_13  and  C_14
REMARK    5  A    between atoms: C_14  and  C_15
REMARK    6  A    between atoms: C_18  and  O_19
REMARK    7  A    between atoms: O_19  and  C_20
REMARK    8  A    between atoms: C_20  and  C_21
REMARK    9  A    between atoms: C_21  and  C_24
REMARK                            x       y       z     vdW  Elec       q    Type
REMARK                         _______ _______ _______ _____ _____    ______ ____
ROOT
ATOM      1  C   UNL     1      46.076   7.110  12.427  0.00  0.00    +0.000 A 
ATOM      2  C   UNL     1      44.842   6.728  12.970  0.00  0.00    +0.000 A 
ATOM      3  C   UNL     1      43.984   5.869  12.274  0.00  0.00    +0.000 A 
ATOM      4  C   UNL     1      44.345   5.369  11.022  0.00  0.00    +0.000 A 
ATOM      5  C   UNL     1      45.564   5.765  10.466  0.00  0.00    +0.000 A 
ATOM      6  C   UNL     1      46.428   6.622  11.163  0.00  0.00    +0.000 A 
ENDROOT
BRANCH   1   7
ATOM      7  C   UNL     1      47.006   7.996  13.219  0.00  0.00    +0.000 C 
BRANCH   7  10
ATOM      8  C   UNL     1      48.716   6.822  14.548  0.00  0.00    +0.000 C 
ATOM      9  O   UNL     1      49.538   6.935  13.635  0.00  0.00    +0.000 OA
ATOM     10  N   UNL     1      47.454   7.337  14.426  0.00  0.00    +0.000 N 
ATOM     11  H   UNL     1      46.754   7.108  15.119  0.00  0.00    +0.000 HD
BRANCH   8  19
ATOM     12  C   UNL     1      47.297   4.227  16.332  0.00  0.00    +0.000 A 
ATOM     13  N   UNL     1      46.964   3.266  17.220  0.00  0.00    +0.000 NA
ATOM     14  C   UNL     1      47.727   3.112  18.303  0.00  0.00    +0.000 A 
ATOM     15  N   UNL     1      48.814   3.813  18.615  0.00  0.00    +0.000 NA
ATOM     16  C   UNL     1      49.119   4.750  17.702  0.00  0.00    +0.000 A 
ATOM     17  S   UNL     1      50.483   5.730  17.944  0.00  0.00    +0.000 S 
ATOM     18  C   UNL     1      50.193   6.569  16.497  0.00  0.00    +0.000 A 
ATOM     19  C   UNL     1      49.068   6.134  15.804  0.00  0.00    +0.000 A 
ATOM     20  C   UNL     1      48.428   5.037  16.528  0.00  0.00    +0.000 A 
BRANCH  12  22
ATOM     21  C   UNL     1      47.075   3.580  14.099  0.00  0.00    +0.000 C 
ATOM     22  O   UNL     1      46.533   4.330  15.186  0.00  0.00    +0.000 OA
ENDBRANCH  12  22
ENDBRANCH   8  19
ENDBRANCH   7  10
ENDBRANCH   1   7
BRANCH   4  23
ATOM     23  O   UNL     1      43.602   4.502  10.260  0.00  0.00    +0.000 OA
BRANCH  23  24
ATOM     24  C   UNL     1      44.207   4.047   9.038  0.00  0.00    +0.000 C 
BRANCH  24  25
ATOM     25  C   UNL     1      44.870   2.669   9.189  0.00  0.00    +0.000 C 
ATOM     26  F   UNL     1      45.379   2.574  10.459  0.00  0.00    +0.000 F 
ATOM     27  F   UNL     1      43.866   1.732   9.159  0.00  0.00    +0.000 F 
BRANCH  25  28
ATOM     28  C   UNL     1      45.907   2.406   8.106  0.00  0.00    +0.000 A 
ATOM     29  C   UNL     1      46.266   3.423   7.220  0.00  0.00    +0.000 A 
ATOM     30  C   UNL     1      47.224   3.161   6.244  0.00  0.00    +0.000 A 
ATOM     31  C   UNL     1      47.808   1.902   6.179  0.00  0.00    +0.000 A 
ATOM     32  C   UNL     1      47.414   0.951   7.102  0.00  0.00    +0.000 A 
ATOM     33  N   UNL     1      46.485   1.172   8.059  0.00  0.00    +0.000 NA
ENDBRANCH  25  28
ENDBRANCH  24  25
ENDBRANCH  23  24
ENDBRANCH   4  23
TORSDOF 8
ENDMDL
MODEL 2
REMARK VINA RESULT:    -7.820      2.196      2.744
REMARK INTER + INTRA:         -12.960
REMARK INTER:                 -12.087
REMARK INTRA:                  -0.873
REMARK UNBOUND:                -1.482
REMARK  Name = 
REMARK  9 active torsions:
REMARK  status: ('A' for Active; 'I' for Inactive)
REMARK    1  A    between atoms: C_1  and  O_2
REMARK    2  A    between atoms: O_2  and  C_3
REMARK    3  A    between atoms: C_10  and  C_11
REMARK    4  A    between atoms: N_13  and  C_14
REMARK    5  A    between atoms: C_14  and  C_15
REMARK    6  A    between atoms: C_18  and  O_19
REMARK    7  A    between atoms: O_19  and  C_20
REMARK    8  A    between atoms: C_20  and  C_21
REMARK    9  A    between atoms: C_21  and  C_24
REMARK                            x       y       z     vdW  Elec       q    Type
REMARK                         _______ _______ _______ _____ _____    ______ ____
ROOT
ATOM      1  C   UNL     1      46.884   6.254  12.928  0.00  0.00    +0.000 A 
ATOM      2  C   UNL     1      45.957   5.428  13.577  0.00  0.00    +0.000 A 
ATOM      3  C   UNL     1      44.893   4.849  12.874  0.00  0.00    +0.000 A 
ATOM      4  C   UNL     1      44.737   5.082  11.507  0.00  0.00    +0.000 A 
ATOM      5  C   UNL     1      45.646   5.924  10.861  0.00  0.00    +0.000 A 
ATOM      6  C   UNL     1      46.715   6.501  11.560  0.00  0.00    +0.000 A 
ENDROOT
BRANCH   1   7
ATOM      7  C   UNL     1      48.052   6.824  13.695  0.00  0.00    +0.000 C 
BRANCH   7  10
ATOM      8  C   UNL     1      49.011   6.447  15.932  0.00  0.00    +0.000 C 
ATOM      9  O   UNL     1      50.155   6.593  15.492  0.00  0.00    +0.000 OA
ATOM     10  N   UNL     1      47.922   6.567  15.113  0.00  0.00    +0.000 N 
ATOM     11  H   UNL     1      47.009   6.302  15.457  0.00  0.00    +0.000 HD
BRANCH   8  19
ATOM     12  C   UNL     1      47.882   8.308  18.613  0.00  0.00    +0.000 A 
ATOM     13  N   UNL     1      47.490   8.784  19.814  0.00  0.00    +0.000 NA
ATOM     14  C   UNL     1      47.526   7.963  20.865  0.00  0.00    +0.000 A 
ATOM     15  N   UNL     1      47.910   6.690  20.865  0.00  0.00    +0.000 NA
ATOM     16  C   UNL     1      48.282   6.250  19.651  0.00  0.00    +0.000 A 
ATOM     17  S   UNL     1      48.794   4.641  19.474  0.00  0.00    +0.000 S 
ATOM     18  C   UNL     1      49.065   4.864  17.813  0.00  0.00    +0.000 A 
ATOM     19  C   UNL     1      48.780   6.147  17.357  0.00  0.00    +0.000 A 
ATOM     20  C   UNL     1      48.304   6.976  18.463  0.00  0.00    +0.000 A 
BRANCH  12  22
ATOM     21  C   UNL     1      48.758  10.191  17.546  0.00  0.00    +0.000 C 
ATOM     22  O   UNL     1      47.778   9.152  17.526  0.00  0.00    +0.000 OA
ENDBRANCH  12  22
ENDBRANCH   8  19
ENDBRANCH   7  10
ENDBRANCH   1   7
BRANCH   4  23
ATOM     23  O   UNL     1      43.754   4.551  10.710  0.00  0.00    +0.000 OA
BRANCH  23  24
ATOM     24  C   UNL     1      44.164   4.086   9.414  0.00  0.00    +0.000 C 
BRANCH  24  25
ATOM     25  C   UNL     1      44.820   2.698   9.468  0.00  0.00    +0.000 C 
ATOM     26  F   UNL     1      45.438   2.562  10.686  0.00  0.00    +0.000 F 
ATOM     27  F   UNL     1      43.805   1.772   9.503  0.00  0.00    +0.000 F 
BRANCH  25  28
ATOM     28  C   UNL     1      45.754   2.454   8.292  0.00  0.00    +0.000 A 
ATOM     29  C   UNL     1      45.961   3.457   7.344  0.00  0.00    +0.000 A 
ATOM     30  C   UNL     1      46.827   3.214   6.281  0.00  0.00    +0.000 A 
ATOM     31  C   UNL     1      47.472   1.987   6.192  0.00  0.00    +0.000 A 
ATOM     32  C   UNL     1      47.230   1.049   7.178  0.00  0.00    +0.000 A 
ATOM     33  N   UNL     1      46.394   1.252   8.220  0.00  0.00    +0.000 NA
ENDBRANCH  25  28
ENDBRANCH  24  25
ENDBRANCH  23  24
ENDBRANCH   4  23
TORSDOF 8
ENDMDL
MODEL 3
REMARK VINA RESULT:    -7.785      2.212      2.682
REMARK INTER + INTRA:         -12.908
REMARK INTER:                 -11.751
REMARK INTRA:                  -1.157
REMARK UNBOUND:                -1.482
REMARK  Name = 
REMARK  9 active torsions:
REMARK  status: ('A' for Active; 'I' for Inactive)
REMARK    1  A    between atoms: C_1  and  O_2
REMARK    2  A    between atoms: O_2  and  C_3
REMARK    3  A    between atoms: C_10  and  C_11
REMARK    4  A    between atoms: N_13  and  C_14
REMARK    5  A    between atoms: C_14  and  C_15
REMARK    6  A    between atoms: C_18  and  O_19
REMARK    7  A    between atoms: O_19  and  C_20
REMARK    8  A    between atoms: C_20  and  C_21
REMARK    9  A    between atoms: C_21  and  C_24
REMARK                            x       y       z     vdW  Elec       q    Type
REMARK                         _______ _______ _______ _____ _____    ______ ____
ROOT
ATOM      1  C   UNL     1      47.865   6.812  14.135  0.00  0.00    +0.000 A 
ATOM      2  C   UNL     1      47.262   5.566  14.343  0.00  0.00    +0.000 A 
ATOM      3  C   UNL     1      46.514   4.950  13.333  0.00  0.00    +0.000 A 
ATOM      4  C   UNL     1      46.357   5.567  12.091  0.00  0.00    +0.000 A 
ATOM      5  C   UNL     1      46.938   6.821  11.886  0.00  0.00    +0.000 A 
ATOM      6  C   UNL     1      47.693   7.438  12.894  0.00  0.00    +0.000 A 
ENDROOT
BRANCH   1   7
ATOM      7  C   UNL     1      48.710   7.433  15.221  0.00  0.00    +0.000 C 
BRANCH   7  10
ATOM      8  C   UNL     1      49.727   6.062  16.997  0.00  0.00    +0.000 C 
ATOM      9  O   UNL     1      48.861   6.419  17.801  0.00  0.00    +0.000 OA
ATOM     10  N   UNL     1      49.708   6.502  15.701  0.00  0.00    +0.000 N 
ATOM     11  H   UNL     1      50.501   6.318  15.102  0.00  0.00    +0.000 HD
BRANCH   8  19
ATOM     12  C   UNL     1      50.082   2.627  16.958  0.00  0.00    +0.000 A 
ATOM     13  N   UNL     1      50.484   1.343  17.069  0.00  0.00    +0.000 NA
ATOM     14  C   UNL     1      51.683   1.098  17.600  0.00  0.00    +0.000 A 
ATOM     15  N   UNL     1      52.557   1.999  18.039  0.00  0.00    +0.000 NA
ATOM     16  C   UNL     1      52.126   3.264  17.902  0.00  0.00    +0.000 A 
ATOM     17  S   UNL     1      53.124   4.540  18.408  0.00  0.00    +0.000 S 
ATOM     18  C   UNL     1      51.965   5.690  17.944  0.00  0.00    +0.000 A 
ATOM     19  C   UNL     1      50.806   5.143  17.403  0.00  0.00    +0.000 A 
ATOM     20  C   UNL     1      50.908   3.685  17.373  0.00  0.00    +0.000 A 
BRANCH  12  22
ATOM     21  C   UNL     1      47.783   2.881  17.280  0.00  0.00    +0.000 C 
ATOM     22  O   UNL     1      48.866   2.866  16.349  0.00  0.00    +0.000 OA
ENDBRANCH  12  22
ENDBRANCH   8  19
ENDBRANCH   7  10
ENDBRANCH   1   7
BRANCH   4  23
ATOM     23  O   UNL     1      45.673   5.051  11.019  0.00  0.00    +0.000 OA
BRANCH  23  24
ATOM     24  C   UNL     1      45.393   3.642  11.059  0.00  0.00    +0.000 C 
BRANCH  24  25
ATOM     25  C   UNL     1      44.576   3.171   9.846  0.00  0.00    +0.000 C 
ATOM     26  F   UNL     1      43.720   2.182  10.262  0.00  0.00    +0.000 F 
ATOM     27  F   UNL     1      43.744   4.206   9.493  0.00  0.00    +0.000 F 
BRANCH  25  28
ATOM     28  C   UNL     1      45.460   2.748   8.683  0.00  0.00    +0.000 A 
ATOM     29  C   UNL     1      45.767   3.658   7.670  0.00  0.00    +0.000 A 
ATOM     30  C   UNL     1      46.586   3.250   6.620  0.00  0.00    +0.000 A 
ATOM     31  C   UNL     1      47.087   1.955   6.608  0.00  0.00    +0.000 A 
ATOM     32  C   UNL     1      46.754   1.115   7.655  0.00  0.00    +0.000 A 
ATOM     33  N   UNL     1      45.959   1.478   8.685  0.00  0.00    +0.000 NA
ENDBRANCH  25  28
ENDBRANCH  24  25
ENDBRANCH  23  24
ENDBRANCH   4  23
TORSDOF 8
ENDMDL
MODEL 4
REMARK VINA RESULT:    -7.781      1.362      1.465
REMARK INTER + INTRA:         -12.901
REMARK INTER:                 -11.579
REMARK INTRA:                  -1.322
REMARK UNBOUND:                -1.482
REMARK  Name = 
REMARK  9 active torsions:
REMARK  status: ('A' for Active; 'I' for Inactive)
REMARK    1  A    between atoms: C_1  and  O_2
REMARK    2  A    between atoms: O_2  and  C_3
REMARK    3  A    between atoms: C_10  and  C_11
REMARK    4  A    between atoms: N_13  and  C_14
REMARK    5  A    between atoms: C_14  and  C_15
REMARK    6  A    between atoms: C_18  and  O_19
REMARK    7  A    between atoms: O_19  and  C_20
REMARK    8  A    between atoms: C_20  and  C_21
REMARK    9  A    between atoms: C_21  and  C_24
REMARK                            x       y       z     vdW  Elec       q    Type
REMARK                         _______ _______ _______ _____ _____    ______ ____
ROOT
ATOM      1  C   UNL     1      46.819   6.790  12.591  0.00  0.00    +0.000 A 
ATOM      2  C   UNL     1      45.933   6.078  13.409  0.00  0.00    +0.000 A 
ATOM      3  C   UNL     1      44.909   5.300  12.855  0.00  0.00    +0.000 A 
ATOM      4  C   UNL     1      44.754   5.213  11.471  0.00  0.00    +0.000 A 
ATOM      5  C   UNL     1      45.622   5.939  10.651  0.00  0.00    +0.000 A 
ATOM      6  C   UNL     1      46.652   6.716  11.203  0.00  0.00    +0.000 A 
ENDROOT
BRANCH   1   7
ATOM      7  C   UNL     1      47.946   7.581  13.209  0.00  0.00    +0.000 C 
BRANCH   7  10
ATOM      8  C   UNL     1      48.990   7.920  15.413  0.00  0.00    +0.000 C 
ATOM      9  O   UNL     1      49.886   8.605  14.910  0.00  0.00    +0.000 OA
ATOM     10  N   UNL     1      47.987   7.398  14.643  0.00  0.00    +0.000 N 
ATOM     11  H   UNL     1      47.349   6.725  15.046  0.00  0.00    +0.000 HD
BRANCH   8  19
ATOM     12  C   UNL     1      48.538   5.066  17.305  0.00  0.00    +0.000 A 
ATOM     13  N   UNL     1      48.385   4.139  18.273  0.00  0.00    +0.000 NA
ATOM     14  C   UNL     1      48.438   4.536  19.546  0.00  0.00    +0.000 A 
ATOM     15  N   UNL     1      48.635   5.776  19.983  0.00  0.00    +0.000 NA
ATOM     16  C   UNL     1      48.794   6.668  18.990  0.00  0.00    +0.000 A 
ATOM     17  S   UNL     1      49.063   8.299  19.376  0.00  0.00    +0.000 S 
ATOM     18  C   UNL     1      49.142   8.721  17.734  0.00  0.00    +0.000 A 
ATOM     19  C   UNL     1      48.967   7.650  16.863  0.00  0.00    +0.000 A 
ATOM     20  C   UNL     1      48.764   6.417  17.621  0.00  0.00    +0.000 A 
BRANCH  12  22
ATOM     21  C   UNL     1      47.526   3.659  15.740  0.00  0.00    +0.000 C 
ATOM     22  O   UNL     1      48.543   4.628  15.995  0.00  0.00    +0.000 OA
ENDBRANCH  12  22
ENDBRANCH   8  19
ENDBRANCH   7  10
ENDBRANCH   1   7
BRANCH   4  23
ATOM     23  O   UNL     1      43.810   4.464  10.815  0.00  0.00    +0.000 OA
BRANCH  23  24
ATOM     24  C   UNL     1      44.164   3.998   9.502  0.00  0.00    +0.000 C 
BRANCH  24  25
ATOM     25  C   UNL     1      44.864   2.631   9.533  0.00  0.00    +0.000 C 
ATOM     26  F   UNL     1      45.518   2.509  10.733  0.00  0.00    +0.000 F 
ATOM     27  F   UNL     1      43.880   1.674   9.591  0.00  0.00    +0.000 F 
BRANCH  25  28
ATOM     28  C   UNL     1      45.773   2.420   8.331  0.00  0.00    +0.000 A 
ATOM     29  C   UNL     1      45.969   3.453   7.413  0.00  0.00    +0.000 A 
ATOM     30  C   UNL     1      46.813   3.240   6.326  0.00  0.00    +0.000 A 
ATOM     31  C   UNL     1      47.449   2.013   6.185  0.00  0.00    +0.000 A 
ATOM     32  C   UNL     1      47.221   1.044   7.145  0.00  0.00    +0.000 A 
ATOM     33  N   UNL     1      46.405   1.218   8.208  0.00  0.00    +0.000 NA
ENDBRANCH  25  28
ENDBRANCH  24  25
ENDBRANCH  23  24
ENDBRANCH   4  23
TORSDOF 8
ENDMDL
MODEL 5
REMARK VINA RESULT:    -7.281      2.307      4.004
REMARK INTER + INTRA:         -12.168
REMARK INTER:                 -10.842
REMARK INTRA:                  -1.326
REMARK UNBOUND:                -1.482
REMARK  Name = 
REMARK  9 active torsions:
REMARK  status: ('A' for Active; 'I' for Inactive)
REMARK    1  A    between atoms: C_1  and  O_2
REMARK    2  A    between atoms: O_2  and  C_3
REMARK    3  A    between atoms: C_10  and  C_11
REMARK    4  A    between atoms: N_13  and  C_14
REMARK    5  A    between atoms: C_14  and  C_15
REMARK    6  A    between atoms: C_18  and  O_19
REMARK    7  A    between atoms: O_19  and  C_20
REMARK    8  A    between atoms: C_20  and  C_21
REMARK    9  A    between atoms: C_21  and  C_24
REMARK                            x       y       z     vdW  Elec       q    Type
REMARK                         _______ _______ _______ _____ _____    ______ ____
ROOT
ATOM      1  C   UNL     1      46.456   4.634  13.988  0.00  0.00    +0.000 A 
ATOM      2  C   UNL     1      45.603   5.659  13.558  0.00  0.00    +0.000 A 
ATOM      3  C   UNL     1      44.693   5.448  12.514  0.00  0.00    +0.000 A 
ATOM      4  C   UNL     1      44.616   4.206  11.883  0.00  0.00    +0.000 A 
ATOM      5  C   UNL     1      45.480   3.188  12.293  0.00  0.00    +0.000 A 
ATOM      6  C   UNL     1      46.389   3.394  13.341  0.00  0.00    +0.000 A 
ENDROOT
BRANCH   1   7
ATOM      7  C   UNL     1      47.392   4.869  15.149  0.00  0.00    +0.000 C 
BRANCH   7  10
ATOM      8  C   UNL     1      49.128   6.499  15.778  0.00  0.00    +0.000 C 
ATOM      9  O   UNL     1      49.694   5.659  16.484  0.00  0.00    +0.000 OA
ATOM     10  N   UNL     1      48.000   6.180  15.072  0.00  0.00    +0.000 N 
ATOM     11  H   UNL     1      47.472   6.913  14.620  0.00  0.00    +0.000 HD
BRANCH   8  19
ATOM     12  C   UNL     1      49.996   8.514  13.111  0.00  0.00    +0.000 A 
ATOM     13  N   UNL     1      50.412   9.494  12.282  0.00  0.00    +0.000 NA
ATOM     14  C   UNL     1      50.858  10.632  12.818  0.00  0.00    +0.000 A 
ATOM     15  N   UNL     1      50.937  10.921  14.113  0.00  0.00    +0.000 NA
ATOM     16  C   UNL     1      50.504   9.926  14.905  0.00  0.00    +0.000 A 
ATOM     17  S   UNL     1      50.531  10.135  16.589  0.00  0.00    +0.000 S 
ATOM     18  C   UNL     1      49.896   8.581  16.838  0.00  0.00    +0.000 A 
ATOM     19  C   UNL     1      49.653   7.872  15.665  0.00  0.00    +0.000 A 
ATOM     20  C   UNL     1      50.014   8.685  14.506  0.00  0.00    +0.000 A 
BRANCH  12  22
ATOM     21  C   UNL     1      48.302   7.626  11.772  0.00  0.00    +0.000 C 
ATOM     22  O   UNL     1      49.479   7.368  12.538  0.00  0.00    +0.000 OA
ENDBRANCH  12  22
ENDBRANCH   8  19
ENDBRANCH   7  10
ENDBRANCH   1   7
BRANCH   4  23
ATOM     23  O   UNL     1      43.749   3.874  10.872  0.00  0.00    +0.000 OA
BRANCH  23  24
ATOM     24  C   UNL     1      44.266   3.012   9.845  0.00  0.00    +0.000 C 
BRANCH  24  25
ATOM     25  C   UNL     1      44.926   3.794   8.699  0.00  0.00    +0.000 C 
ATOM     26  F   UNL     1      43.935   4.381   7.953  0.00  0.00    +0.000 F 
ATOM     27  F   UNL     1      45.593   4.854   9.264  0.00  0.00    +0.000 F 
BRANCH  25  28
ATOM     28  C   UNL     1      45.862   2.925   7.872  0.00  0.00    +0.000 A 
ATOM     29  C   UNL     1      46.487   3.452   6.739  0.00  0.00    +0.000 A 
ATOM     30  C   UNL     1      47.348   2.640   6.004  0.00  0.00    +0.000 A 
ATOM     31  C   UNL     1      47.574   1.333   6.416  0.00  0.00    +0.000 A 
ATOM     32  C   UNL     1      46.933   0.888   7.558  0.00  0.00    +0.000 A 
ATOM     33  N   UNL     1      46.090   1.648   8.291  0.00  0.00    +0.000 NA
ENDBRANCH  25  28
ENDBRANCH  24  25
ENDBRANCH  23  24
ENDBRANCH   4  23
TORSDOF 8
ENDMDL
MODEL 6
REMARK VINA RESULT:    -7.146      2.781      3.530
REMARK INTER + INTRA:         -11.970
REMARK INTER:                 -10.805
REMARK INTRA:                  -1.165
REMARK UNBOUND:                -1.482
REMARK  Name = 
REMARK  9 active torsions:
REMARK  status: ('A' for Active; 'I' for Inactive)
REMARK    1  A    between atoms: C_1  and  O_2
REMARK    2  A    between atoms: O_2  and  C_3
REMARK    3  A    between atoms: C_10  and  C_11
REMARK    4  A    between atoms: N_13  and  C_14
REMARK    5  A    between atoms: C_14  and  C_15
REMARK    6  A    between atoms: C_18  and  O_19
REMARK    7  A    between atoms: O_19  and  C_20
REMARK    8  A    between atoms: C_20  and  C_21
REMARK    9  A    between atoms: C_21  and  C_24
REMARK                            x       y       z     vdW  Elec       q    Type
REMARK                         _______ _______ _______ _____ _____    ______ ____
ROOT
ATOM      1  C   UNL     1      46.892   4.501  14.176  0.00  0.00    +0.000 A 
ATOM      2  C   UNL     1      46.238   5.653  13.723  0.00  0.00    +0.000 A 
ATOM      3  C   UNL     1      45.297   5.587  12.688  0.00  0.00    +0.000 A 
ATOM      4  C   UNL     1      44.988   4.366  12.089  0.00  0.00    +0.000 A 
ATOM      5  C   UNL     1      45.654   3.217  12.522  0.00  0.00    +0.000 A 
ATOM      6  C   UNL     1      46.593   3.278  13.562  0.00  0.00    +0.000 A 
ENDROOT
BRANCH   1   7
ATOM      7  C   UNL     1      47.863   4.588  15.328  0.00  0.00    +0.000 C 
BRANCH   7  10
ATOM      8  C   UNL     1      48.901   6.655  16.174  0.00  0.00    +0.000 C 
ATOM      9  O   UNL     1      50.010   6.292  15.771  0.00  0.00    +0.000 OA
ATOM     10  N   UNL     1      47.791   5.880  15.975  0.00  0.00    +0.000 N 
ATOM     11  H   UNL     1      46.925   6.123  16.436  0.00  0.00    +0.000 HD
BRANCH   8  19
ATOM     12  C   UNL     1      47.790   7.531  19.325  0.00  0.00    +0.000 A 
ATOM     13  N   UNL     1      47.401   8.151  20.459  0.00  0.00    +0.000 NA
ATOM     14  C   UNL     1      47.448   9.483  20.501  0.00  0.00    +0.000 A 
ATOM     15  N   UNL     1      47.851  10.295  19.529  0.00  0.00    +0.000 NA
ATOM     16  C   UNL     1      48.241   9.641  18.421  0.00  0.00    +0.000 A 
ATOM     17  S   UNL     1      48.792  10.530  17.085  0.00  0.00    +0.000 S 
ATOM     18  C   UNL     1      49.056   9.110  16.193  0.00  0.00    +0.000 A 
ATOM     19  C   UNL     1      48.734   7.941  16.876  0.00  0.00    +0.000 A 
ATOM     20  C   UNL     1      48.251   8.264  18.217  0.00  0.00    +0.000 A 
BRANCH  12  22
ATOM     21  C   UNL     1      48.275   5.602  20.548  0.00  0.00    +0.000 C 
ATOM     22  O   UNL     1      47.795   6.150  19.320  0.00  0.00    +0.000 OA
ENDBRANCH  12  22
ENDBRANCH   8  19
ENDBRANCH   7  10
ENDBRANCH   1   7
BRANCH   4  23
ATOM     23  O   UNL     1      44.067   4.173  11.089  0.00  0.00    +0.000 OA
BRANCH  23  24
ATOM     24  C   UNL     1      44.426   3.233  10.063  0.00  0.00    +0.000 C 
BRANCH  24  25
ATOM     25  C   UNL     1      44.941   3.921   8.790  0.00  0.00    +0.000 C 
ATOM     26  F   UNL     1      43.861   4.397   8.091  0.00  0.00    +0.000 F 
ATOM     27  F   UNL     1      45.609   5.055   9.186  0.00  0.00    +0.000 F 
BRANCH  25  28
ATOM     28  C   UNL     1      45.837   3.010   7.963  0.00  0.00    +0.000 A 
ATOM     29  C   UNL     1      46.469   3.501   6.820  0.00  0.00    +0.000 A 
ATOM     30  C   UNL     1      47.292   2.651   6.085  0.00  0.00    +0.000 A 
ATOM     31  C   UNL     1      47.473   1.341   6.508  0.00  0.00    +0.000 A 
ATOM     32  C   UNL     1      46.827   0.931   7.661  0.00  0.00    +0.000 A 
ATOM     33  N   UNL     1      46.020   1.729   8.394  0.00  0.00    +0.000 NA
ENDBRANCH  25  28
ENDBRANCH  24  25
ENDBRANCH  23  24
ENDBRANCH   4  23
TORSDOF 8
ENDMDL
MODEL 7
REMARK VINA RESULT:    -7.146      1.997      2.692
REMARK INTER + INTRA:         -11.970
REMARK INTER:                 -10.669
REMARK INTRA:                  -1.301
REMARK UNBOUND:                -1.482
REMARK  Name = 
REMARK  9 active torsions:
REMARK  status: ('A' for Active; 'I' for Inactive)
REMARK    1  A    between atoms: C_1  and  O_2
REMARK    2  A    between atoms: O_2  and  C_3
REMARK    3  A    between atoms: C_10  and  C_11
REMARK    4  A    between atoms: N_13  and  C_14
REMARK    5  A    between atoms: C_14  and  C_15
REMARK    6  A    between atoms: C_18  and  O_19
REMARK    7  A    between atoms: O_19  and  C_20
REMARK    8  A    between atoms: C_20  and  C_21
REMARK    9  A    between atoms: C_21  and  C_24
REMARK                            x       y       z     vdW  Elec       q    Type
REMARK                         _______ _______ _______ _____ _____    ______ ____
ROOT
ATOM      1  C   UNL     1      47.319   6.939  12.664  0.00  0.00    +0.000 A 
ATOM      2  C   UNL     1      47.226   5.752  13.402  0.00  0.00    +0.000 A 
ATOM      3  C   UNL     1      46.001   5.092  13.554  0.00  0.00    +0.000 A 
ATOM      4  C   UNL     1      44.843   5.604  12.966  0.00  0.00    +0.000 A 
ATOM      5  C   UNL     1      44.927   6.799  12.247  0.00  0.00    +0.000 A 
ATOM      6  C   UNL     1      46.154   7.460  12.089  0.00  0.00    +0.000 A 
ENDROOT
BRANCH   1   7
ATOM      7  C   UNL     1      48.660   7.604  12.471  0.00  0.00    +0.000 C 
BRANCH   7  10
ATOM      8  C   UNL     1      49.941   7.796  14.565  0.00  0.00    +0.000 C 
ATOM      9  O   UNL     1      49.372   8.854  14.845  0.00  0.00    +0.000 OA
ATOM     10  N   UNL     1      49.630   7.110  13.423  0.00  0.00    +0.000 N 
ATOM     11  H   UNL     1      50.206   6.328  13.139  0.00  0.00    +0.000 HD
BRANCH   8  19
ATOM     12  C   UNL     1      49.878   5.466  17.114  0.00  0.00    +0.000 A 
ATOM     13  N   UNL     1      50.143   4.619  18.132  0.00  0.00    +0.000 NA
ATOM     14  C   UNL     1      51.394   4.548  18.587  0.00  0.00    +0.000 A 
ATOM     15  N   UNL     1      52.443   5.230  18.138  0.00  0.00    +0.000 NA
ATOM     16  C   UNL     1      52.142   6.053  17.119  0.00  0.00    +0.000 A 
ATOM     17  S   UNL     1      53.371   6.994  16.422  0.00  0.00    +0.000 S 
ATOM     18  C   UNL     1      52.278   7.687  15.323  0.00  0.00    +0.000 A 
ATOM     19  C   UNL     1      50.971   7.230  15.457  0.00  0.00    +0.000 A 
ATOM     20  C   UNL     1      50.893   6.244  16.533  0.00  0.00    +0.000 A 
BRANCH  12  22
ATOM     21  C   UNL     1      47.970   4.195  16.666  0.00  0.00    +0.000 C 
ATOM     22  O   UNL     1      48.591   5.480  16.613  0.00  0.00    +0.000 OA
ENDBRANCH  12  22
ENDBRANCH   8  19
ENDBRANCH   7  10
ENDBRANCH   1   7
BRANCH   4  23
ATOM     23  O   UNL     1      43.596   5.034  13.022  0.00  0.00    +0.000 OA
BRANCH  23  24
ATOM     24  C   UNL     1      43.089   4.486  11.794  0.00  0.00    +0.000 C 
BRANCH  24  25
ATOM     25  C   UNL     1      43.727   3.132  11.447  0.00  0.00    +0.000 C 
ATOM     26  F   UNL     1      44.478   2.723  12.519  0.00  0.00    +0.000 F 
ATOM     27  F   UNL     1      42.709   2.211  11.380  0.00  0.00    +0.000 F 
BRANCH  25  28
ATOM     28  C   UNL     1      44.516   3.182  10.147  0.00  0.00    +0.000 A 
ATOM     29  C   UNL     1      44.904   4.412   9.611  0.00  0.00    +0.000 A 
ATOM     30  C   UNL     1      45.635   4.432   8.425  0.00  0.00    +0.000 A 
ATOM     31  C   UNL     1      45.969   3.233   7.808  0.00  0.00    +0.000 A 
ATOM     32  C   UNL     1      45.565   2.054   8.408  0.00  0.00    +0.000 A 
ATOM     33  N   UNL     1      44.853   2.001   9.555  0.00  0.00    +0.000 NA
ENDBRANCH  25  28
ENDBRANCH  24  25
ENDBRANCH  23  24
ENDBRANCH   4  23
TORSDOF 8
ENDMDL
MODEL 8
REMARK VINA RESULT:    -7.123      2.549      3.703
REMARK INTER + INTRA:         -11.936
REMARK INTER:                 -10.726
REMARK INTRA:                  -1.210
REMARK UNBOUND:                -1.482
REMARK  Name = 
REMARK  9 active torsions:
REMARK  status: ('A' for Active; 'I' for Inactive)
REMARK    1  A    between atoms: C_1  and  O_2
REMARK    2  A    between atoms: O_2  and  C_3
REMARK    3  A    between atoms: C_10  and  C_11
REMARK    4  A    between atoms: N_13  and  C_14
REMARK    5  A    between atoms: C_14  and  C_15
REMARK    6  A    between atoms: C_18  and  O_19
REMARK    7  A    between atoms: O_19  and  C_20
REMARK    8  A    between atoms: C_20  and  C_21
REMARK    9  A    between atoms: C_21  and  C_24
REMARK                            x       y       z     vdW  Elec       q    Type
REMARK                         _______ _______ _______ _____ _____    ______ ____
ROOT
ATOM      1  C   UNL     1      46.908   4.565  14.298  0.00  0.00    +0.000 A 
ATOM      2  C   UNL     1      47.160   5.789  13.667  0.00  0.00    +0.000 A 
ATOM      3  C   UNL     1      46.543   6.114  12.452  0.00  0.00    +0.000 A 
ATOM      4  C   UNL     1      45.656   5.222  11.848  0.00  0.00    +0.000 A 
ATOM      5  C   UNL     1      45.418   3.990  12.463  0.00  0.00    +0.000 A 
ATOM      6  C   UNL     1      46.031   3.664  13.681  0.00  0.00    +0.000 A 
ENDROOT
BRANCH   1   7
ATOM      7  C   UNL     1      47.545   4.259  15.632  0.00  0.00    +0.000 C 
BRANCH   7  10
ATOM      8  C   UNL     1      48.032   5.384  17.768  0.00  0.00    +0.000 C 
ATOM      9  O   UNL     1      48.503   4.344  18.236  0.00  0.00    +0.000 OA
ATOM     10  N   UNL     1      47.559   5.427  16.484  0.00  0.00    +0.000 N 
ATOM     11  H   UNL     1      47.048   6.241  16.169  0.00  0.00    +0.000 HD
BRANCH   8  19
ATOM     12  C   UNL     1      48.489   8.731  17.049  0.00  0.00    +0.000 A 
ATOM     13  N   UNL     1      48.620  10.075  17.060  0.00  0.00    +0.000 NA
ATOM     14  C   UNL     1      48.464  10.718  18.219  0.00  0.00    +0.000 A 
ATOM     15  N   UNL     1      48.181  10.172  19.398  0.00  0.00    +0.000 NA
ATOM     16  C   UNL     1      48.048   8.836  19.344  0.00  0.00    +0.000 A 
ATOM     17  S   UNL     1      47.679   7.982  20.764  0.00  0.00    +0.000 S 
ATOM     18  C   UNL     1      47.689   6.503  19.930  0.00  0.00    +0.000 A 
ATOM     19  C   UNL     1      47.972   6.618  18.573  0.00  0.00    +0.000 A 
ATOM     20  C   UNL     1      48.180   8.022  18.222  0.00  0.00    +0.000 A 
BRANCH  12  22
ATOM     21  C   UNL     1      49.939   8.014  15.365  0.00  0.00    +0.000 C 
ATOM     22  O   UNL     1      48.591   8.089  15.831  0.00  0.00    +0.000 OA
ENDBRANCH  12  22
ENDBRANCH   8  19
ENDBRANCH   7  10
ENDBRANCH   1   7
BRANCH   4  23
ATOM     23  O   UNL     1      44.973   5.440  10.678  0.00  0.00    +0.000 OA
BRANCH  23  24
ATOM     24  C   UNL     1      45.615   4.997   9.471  0.00  0.00    +0.000 C 
BRANCH  24  25
ATOM     25  C   UNL     1      44.882   3.818   8.813  0.00  0.00    +0.000 C 
ATOM     26  F   UNL     1      44.213   3.129   9.792  0.00  0.00    +0.000 F 
ATOM     27  F   UNL     1      43.882   4.348   8.034  0.00  0.00    +0.000 F 
BRANCH  25  28
ATOM     28  C   UNL     1      45.817   2.941   7.995  0.00  0.00    +0.000 A 
ATOM     29  C   UNL     1      46.491   3.473   6.894  0.00  0.00    +0.000 A 
ATOM     30  C   UNL     1      47.349   2.653   6.166  0.00  0.00    +0.000 A 
ATOM     31  C   UNL     1      47.524   1.331   6.554  0.00  0.00    +0.000 A 
ATOM     32  C   UNL     1      46.836   0.880   7.666  0.00  0.00    +0.000 A 
ATOM     33  N   UNL     1      45.994   1.648   8.391  0.00  0.00    +0.000 NA
ENDBRANCH  25  28
ENDBRANCH  24  25
ENDBRANCH  23  24
ENDBRANCH   4  23
TORSDOF 8
ENDMDL
MODEL 9
REMARK VINA RESULT:    -6.861      3.540      5.508
REMARK INTER + INTRA:         -11.551
REMARK INTER:                 -10.312
REMARK INTRA:                  -1.239
REMARK UNBOUND:                -1.482
REMARK  Name = 
REMARK  9 active torsions:
REMARK  status: ('A' for Active; 'I' for Inactive)
REMARK    1  A    between atoms: C_1  and  O_2
REMARK    2  A    between atoms: O_2  and  C_3
REMARK    3  A    between atoms: C_10  and  C_11
REMARK    4  A    between atoms: N_13  and  C_14
REMARK    5  A    between atoms: C_14  and  C_15
REMARK    6  A    between atoms: C_18  and  O_19
REMARK    7  A    between atoms: O_19  and  C_20
REMARK    8  A    between atoms: C_20  and  C_21
REMARK    9  A    between atoms: C_21  and  C_24
REMARK                            x       y       z     vdW  Elec       q    Type
REMARK                         _______ _______ _______ _____ _____    ______ ____
ROOT
ATOM      1  C   UNL     1      48.027   4.159  16.681  0.00  0.00    +0.000 A 
ATOM      2  C   UNL     1      48.611   5.424  16.538  0.00  0.00    +0.000 A 
ATOM      3  C   UNL     1      48.340   6.221  15.420  0.00  0.00    +0.000 A 
ATOM      4  C   UNL     1      47.473   5.771  14.423  0.00  0.00    +0.000 A 
ATOM      5  C   UNL     1      46.905   4.501  14.549  0.00  0.00    +0.000 A 
ATOM      6  C   UNL     1      47.171   3.702  15.671  0.00  0.00    +0.000 A 
ENDROOT
BRANCH   1   7
ATOM      7  C   UNL     1      48.294   3.339  17.919  0.00  0.00    +0.000 C 
BRANCH   7  10
ATOM      8  C   UNL     1      50.402   2.238  17.279  0.00  0.00    +0.000 C 
ATOM      9  O   UNL     1      49.845   1.662  16.341  0.00  0.00    +0.000 OA
ATOM     10  N   UNL     1      49.710   3.097  18.090  0.00  0.00    +0.000 N 
ATOM     11  H   UNL     1      50.144   3.443  18.934  0.00  0.00    +0.000 HD
BRANCH   8  19
ATOM     12  C   UNL     1      53.086   4.363  17.739  0.00  0.00    +0.000 A 
ATOM     13  N   UNL     1      54.289   4.940  17.942  0.00  0.00    +0.000 NA
ATOM     14  C   UNL     1      55.349   4.150  18.125  0.00  0.00    +0.000 A 
ATOM     15  N   UNL     1      55.355   2.820  18.136  0.00  0.00    +0.000 NA
ATOM     16  C   UNL     1      54.139   2.283  17.942  0.00  0.00    +0.000 A 
ATOM     17  S   UNL     1      53.969   0.595  17.934  0.00  0.00    +0.000 S 
ATOM     18  C   UNL     1      52.300   0.719  17.651  0.00  0.00    +0.000 A 
ATOM     19  C   UNL     1      51.836   2.027  17.554  0.00  0.00    +0.000 A 
ATOM     20  C   UNL     1      52.942   2.965  17.735  0.00  0.00    +0.000 A 
BRANCH  12  22
ATOM     21  C   UNL     1      52.206   6.242  16.669  0.00  0.00    +0.000 C 
ATOM     22  O   UNL     1      51.991   5.195  17.615  0.00  0.00    +0.000 OA
ENDBRANCH  12  22
ENDBRANCH   8  19
ENDBRANCH   7  10
ENDBRANCH   1   7
BRANCH   4  23
ATOM     23  O   UNL     1      47.110   6.471  13.299  0.00  0.00    +0.000 OA
BRANCH  23  24
ATOM     24  C   UNL     1      45.821   6.163  12.744  0.00  0.00    +0.000 C 
BRANCH  24  25
ATOM     25  C   UNL     1      45.777   6.359  11.220  0.00  0.00    +0.000 C 
ATOM     26  F   UNL     1      45.016   7.469  10.952  0.00  0.00    +0.000 F 
ATOM     27  F   UNL     1      47.042   6.717  10.822  0.00  0.00    +0.000 F 
BRANCH  25  28
ATOM     28  C   UNL     1      45.296   5.113  10.492  0.00  0.00    +0.000 A 
ATOM     29  C   UNL     1      45.628   4.915   9.150  0.00  0.00    +0.000 A 
ATOM     30  C   UNL     1      45.184   3.762   8.507  0.00  0.00    +0.000 A 
ATOM     31  C   UNL     1      44.433   2.832   9.214  0.00  0.00    +0.000 A 
ATOM     32  C   UNL     1      44.160   3.088  10.545  0.00  0.00    +0.000 A 
ATOM     33  N   UNL     1      44.571   4.198  11.197  0.00  0.00    +0.000 NA
ENDBRANCH  25  28
ENDBRANCH  24  25
ENDBRANCH  23  24
ENDBRANCH   4  23
TORSDOF 8
ENDMDL
