MODEL 1
REMARK VINA RESULT:    -7.433      0.000      0.000
REMARK INTER + INTRA:         -10.143
REMARK INTER:                  -9.389
REMARK INTRA:                  -0.754
REMARK UNBOUND:                -0.754
REMARK  Name = 
REMARK  5 active torsions:
REMARK  status: ('A' for Active; 'I' for Inactive)
REMARK    1  A    between atoms: N_1  and  C_2
REMARK    2  A    between atoms: C_2  and  C_3
REMARK    3  A    between atoms: C_6  and  O_7
REMARK    4  A    between atoms: O_7  and  C_8
REMARK    5  A    between atoms: C_8  and  C_9
REMARK                            x       y       z     vdW  Elec       q    Type
REMARK                         _______ _______ _______ _____ _____    ______ ____
ROOT
ATOM      1  C   UNL     1      46.530   2.322   7.641  0.00  0.00    +0.000 A 
ATOM      2  C   UNL     1      46.403   3.714   7.517  0.00  0.00    +0.000 A 
ATOM      3  C   UNL     1      45.418   4.406   8.228  0.00  0.00    +0.000 A 
ATOM      4  C   UNL     1      44.540   3.714   9.061  0.00  0.00    +0.000 A 
ATOM      5  C   UNL     1      44.699   2.337   9.234  0.00  0.00    +0.000 A 
ATOM      6  C   UNL     1      45.678   1.646   8.519  0.00  0.00    +0.000 A 
ENDROOT
BRANCH   1   7
ATOM      7  C   UNL     1      47.543   1.561   6.827  0.00  0.00    +0.000 C 
BRANCH   7   8
ATOM      8  N   UNL     1      48.611   2.427   6.348  0.00  0.00    +0.000 NA
ATOM      9  H   UNL     1      49.114   1.950   5.603  0.00  0.00    +0.000 HD
ATOM     10  H   UNL     1      49.279   2.568   7.104  0.00  0.00    +0.000 HD
ENDBRANCH   7   8
ENDBRANCH   1   7
BRANCH   4  11
ATOM     11  O   UNL     1      43.559   4.465   9.656  0.00  0.00    +0.000 OA
BRANCH  11  12
ATOM     12  C   UNL     1      43.516   4.366  11.088  0.00  0.00    +0.000 C 
BRANCH  12  13
ATOM     13  C   UNL     1      44.494   5.325  11.732  0.00  0.00    +0.000 A 
ATOM     14  C   UNL     1      44.355   6.711  11.541  0.00  0.00    +0.000 A 
ATOM     15  C   UNL     1      45.249   7.606  12.132  0.00  0.00    +0.000 A 
ATOM     16  C   UNL     1      46.298   7.127  12.910  0.00  0.00    +0.000 A 
ATOM     17 CL   UNL     1      47.384   8.232  13.656  0.00  0.00    +0.000 Cl
ATOM     18  C   UNL     1      46.478   5.759  13.084  0.00  0.00    +0.000 A 
ATOM     19  C   UNL     1      45.589   4.862  12.486  0.00  0.00    +0.000 A 
ATOM     20 CL   UNL     1      45.908   3.176  12.707  0.00  0.00    +0.000 Cl
ENDBRANCH  12  13
ENDBRANCH  11  12
ENDBRANCH   4  11
TORSDOF 5
ENDMDL
MODEL 2
REMARK VINA RESULT:    -7.332      1.239      1.726
REMARK INTER + INTRA:         -10.015
REMARK INTER:                  -9.635
REMARK INTRA:                  -0.380
REMARK UNBOUND:                -0.754
REMARK  Name = 
REMARK  5 active torsions:
REMARK  status: ('A' for Active; 'I' for Inactive)
REMARK    1  A    between atoms: N_1  and  C_2
REMARK    2  A    between atoms: C_2  and  C_3
REMARK    3  A    between atoms: C_6  and  O_7
REMARK    4  A    between atoms: O_7  and  C_8
REMARK    5  A    between atoms: C_8  and  C_9
REMARK                            x       y       z     vdW  Elec       q    Type
REMARK                         _______ _______ _______ _____ _____    ______ ____
ROOT
ATOM      1  C   UNL     1      47.044   2.355   7.249  0.00  0.00    +0.000 A 
ATOM      2  C   UNL     1      46.391   1.404   8.048  0.00  0.00    +0.000 A 
ATOM      3  C   UNL     1      45.297   1.769   8.840  0.00  0.00    +0.000 A 
ATOM      4  C   UNL     1      44.852   3.091   8.852  0.00  0.00    +0.000 A 
ATOM      5  C   UNL     1      45.461   4.028   8.014  0.00  0.00    +0.000 A 
ATOM      6  C   UNL     1      46.557   3.665   7.229  0.00  0.00    +0.000 A 
ENDROOT
BRANCH   1   7
ATOM      7  C   UNL     1      48.264   1.985   6.447  0.00  0.00    +0.000 C 
BRANCH   7   8
ATOM      8  N   UNL     1      48.212   2.539   5.101  0.00  0.00    +0.000 NA
ATOM      9  H   UNL     1      47.609   3.358   5.103  0.00  0.00    +0.000 HD
ATOM     10  H   UNL     1      47.771   1.857   4.485  0.00  0.00    +0.000 HD
ENDBRANCH   7   8
ENDBRANCH   1   7
BRANCH   4  11
ATOM     11  O   UNL     1      43.825   3.371   9.716  0.00  0.00    +0.000 OA
BRANCH  11  12
ATOM     12  C   UNL     1      43.755   4.741  10.137  0.00  0.00    +0.000 C 
BRANCH  12  13
ATOM     13  C   UNL     1      44.771   5.033  11.220  0.00  0.00    +0.000 A 
ATOM     14  C   UNL     1      45.748   6.024  11.025  0.00  0.00    +0.000 A 
ATOM     15  C   UNL     1      46.690   6.305  12.017  0.00  0.00    +0.000 A 
ATOM     16  C   UNL     1      46.672   5.591  13.212  0.00  0.00    +0.000 A 
ATOM     17 CL   UNL     1      47.817   5.954  14.442  0.00  0.00    +0.000 Cl
ATOM     18  C   UNL     1      45.738   4.581  13.415  0.00  0.00    +0.000 A 
ATOM     19  C   UNL     1      44.801   4.294  12.418  0.00  0.00    +0.000 A 
ATOM     20 CL   UNL     1      43.705   2.991  12.724  0.00  0.00    +0.000 Cl
ENDBRANCH  12  13
ENDBRANCH  11  12
ENDBRANCH   4  11
TORSDOF 5
ENDMDL
MODEL 3
REMARK VINA RESULT:    -7.101      1.494      2.089
REMARK INTER + INTRA:          -9.722
REMARK INTER:                  -9.314
REMARK INTRA:                  -0.409
REMARK UNBOUND:                -0.754
REMARK  Name = 
REMARK  5 active torsions:
REMARK  status: ('A' for Active; 'I' for Inactive)
REMARK    1  A    between atoms: N_1  and  C_2
REMARK    2  A    between atoms: C_2  and  C_3
REMARK    3  A    between atoms: C_6  and  O_7
REMARK    4  A    between atoms: O_7  and  C_8
REMARK    5  A    between atoms: C_8  and  C_9
REMARK                            x       y       z     vdW  Elec       q    Type
REMARK                         _______ _______ _______ _____ _____    ______ ____
ROOT
ATOM      1  C   UNL     1      46.633   2.777   6.862  0.00  0.00    +0.000 A 
ATOM      2  C   UNL     1      46.027   3.981   7.253  0.00  0.00    +0.000 A 
ATOM      3  C   UNL     1      45.204   4.030   8.383  0.00  0.00    +0.000 A 
ATOM      4  C   UNL     1      44.967   2.875   9.128  0.00  0.00    +0.000 A 
ATOM      5  C   UNL     1      45.614   1.688   8.777  0.00  0.00    +0.000 A 
ATOM      6  C   UNL     1      46.430   1.638   7.646  0.00  0.00    +0.000 A 
ENDROOT
BRANCH   1   7
ATOM      7  C   UNL     1      47.464   2.700   5.609  0.00  0.00    +0.000 C 
BRANCH   7   8
ATOM      8  N   UNL     1      48.529   1.714   5.728  0.00  0.00    +0.000 NA
ATOM      9  H   UNL     1      49.039   1.670   4.849  0.00  0.00    +0.000 HD
ATOM     10  H   UNL     1      48.108   0.795   5.864  0.00  0.00    +0.000 HD
ENDBRANCH   7   8
ENDBRANCH   1   7
BRANCH   4  11
ATOM     11  O   UNL     1      44.087   3.003  10.171  0.00  0.00    +0.000 OA
BRANCH  11  12
ATOM     12  C   UNL     1      43.922   4.345  10.653  0.00  0.00    +0.000 C 
BRANCH  12  13
ATOM     13  C   UNL     1      44.915   4.656  11.753  0.00  0.00    +0.000 A 
ATOM     14  C   UNL     1      45.497   3.613  12.495  0.00  0.00    +0.000 A 
ATOM     15  C   UNL     1      46.417   3.887  13.510  0.00  0.00    +0.000 A 
ATOM     16  C   UNL     1      46.756   5.204  13.803  0.00  0.00    +0.000 A 
ATOM     17 CL   UNL     1      47.905   5.538  15.037  0.00  0.00    +0.000 Cl
ATOM     18  C   UNL     1      46.166   6.254  13.106  0.00  0.00    +0.000 A 
ATOM     19  C   UNL     1      45.240   5.982  12.096  0.00  0.00    +0.000 A 
ATOM     20 CL   UNL     1      44.513   7.341  11.311  0.00  0.00    +0.000 Cl
ENDBRANCH  12  13
ENDBRANCH  11  12
ENDBRANCH   4  11
TORSDOF 5
ENDMDL
MODEL 4
REMARK VINA RESULT:    -6.229      3.084      5.896
REMARK INTER + INTRA:          -8.621
REMARK INTER:                  -7.955
REMARK INTRA:                  -0.666
REMARK UNBOUND:                -0.754
REMARK  Name = 
REMARK  5 active torsions:
REMARK  status: ('A' for Active; 'I' for Inactive)
REMARK    1  A    between atoms: N_1  and  C_2
REMARK    2  A    between atoms: C_2  and  C_3
REMARK    3  A    between atoms: C_6  and  O_7
REMARK    4  A    between atoms: O_7  and  C_8
REMARK    5  A    between atoms: C_8  and  C_9
REMARK                            x       y       z     vdW  Elec       q    Type
REMARK                         _______ _______ _______ _____ _____    ______ ____
ROOT
ATOM      1  C   UNL     1      46.745   4.917  14.309  0.00  0.00    +0.000 A 
ATOM      2  C   UNL     1      47.500   5.690  13.414  0.00  0.00    +0.000 A 
ATOM      3  C   UNL     1      46.938   6.148  12.218  0.00  0.00    +0.000 A 
ATOM      4  C   UNL     1      45.619   5.829  11.897  0.00  0.00    +0.000 A 
ATOM      5  C   UNL     1      44.845   5.111  12.811  0.00  0.00    +0.000 A 
ATOM      6  C   UNL     1      45.408   4.648  14.001  0.00  0.00    +0.000 A 
ENDROOT
BRANCH   1   7
ATOM      7  C   UNL     1      47.362   4.362  15.565  0.00  0.00    +0.000 C 
BRANCH   7   8
ATOM      8  N   UNL     1      47.888   3.019  15.360  0.00  0.00    +0.000 NA
ATOM      9  H   UNL     1      47.648   2.710  14.420  0.00  0.00    +0.000 HD
ATOM     10  H   UNL     1      47.419   2.383  16.003  0.00  0.00    +0.000 HD
ENDBRANCH   7   8
ENDBRANCH   1   7
BRANCH   4  11
ATOM     11  O   UNL     1      45.179   6.256  10.671  0.00  0.00    +0.000 OA
BRANCH  11  12
ATOM     12  C   UNL     1      44.227   5.386  10.041  0.00  0.00    +0.000 C 
BRANCH  12  13
ATOM     13  C   UNL     1      44.919   4.248   9.322  0.00  0.00    +0.000 A 
ATOM     14  C   UNL     1      45.759   4.510   8.226  0.00  0.00    +0.000 A 
ATOM     15  C   UNL     1      46.405   3.469   7.556  0.00  0.00    +0.000 A 
ATOM     16  C   UNL     1      46.212   2.154   7.967  0.00  0.00    +0.000 A 
ATOM     17 CL   UNL     1      47.026   0.875   7.156  0.00  0.00    +0.000 Cl
ATOM     18  C   UNL     1      45.358   1.866   9.026  0.00  0.00    +0.000 A 
ATOM     19  C   UNL     1      44.703   2.907   9.692  0.00  0.00    +0.000 A 
ATOM     20 CL   UNL     1      43.619   2.465  10.965  0.00  0.00    +0.000 Cl
ENDBRANCH  12  13
ENDBRANCH  11  12
ENDBRANCH   4  11
TORSDOF 5
ENDMDL
MODEL 5
REMARK VINA RESULT:    -6.124      3.164      5.838
REMARK INTER + INTRA:          -8.489
REMARK INTER:                  -7.858
REMARK INTRA:                  -0.631
REMARK UNBOUND:                -0.754
REMARK  Name = 
REMARK  5 active torsions:
REMARK  status: ('A' for Active; 'I' for Inactive)
REMARK    1  A    between atoms: N_1  and  C_2
REMARK    2  A    between atoms: C_2  and  C_3
REMARK    3  A    between atoms: C_6  and  O_7
REMARK    4  A    between atoms: O_7  and  C_8
REMARK    5  A    between atoms: C_8  and  C_9
REMARK                            x       y       z     vdW  Elec       q    Type
REMARK                         _______ _______ _______ _____ _____    ______ ____
ROOT
ATOM      1  C   UNL     1      47.993   6.797  12.920  0.00  0.00    +0.000 A 
ATOM      2  C   UNL     1      47.529   5.569  13.416  0.00  0.00    +0.000 A 
ATOM      3  C   UNL     1      46.246   5.111  13.098  0.00  0.00    +0.000 A 
ATOM      4  C   UNL     1      45.408   5.880  12.292  0.00  0.00    +0.000 A 
ATOM      5  C   UNL     1      45.886   7.074  11.747  0.00  0.00    +0.000 A 
ATOM      6  C   UNL     1      47.164   7.534  12.070  0.00  0.00    +0.000 A 
ENDROOT
BRANCH   1   7
ATOM      7  C   UNL     1      49.346   7.330  13.313  0.00  0.00    +0.000 C 
BRANCH   7   8
ATOM      8  N   UNL     1      49.788   6.788  14.591  0.00  0.00    +0.000 NA
ATOM      9  H   UNL     1      50.437   7.444  15.021  0.00  0.00    +0.000 HD
ATOM     10  H   UNL     1      50.314   5.932  14.417  0.00  0.00    +0.000 HD
ENDBRANCH   7   8
ENDBRANCH   1   7
BRANCH   4  11
ATOM     11  O   UNL     1      44.143   5.387  12.098  0.00  0.00    +0.000 OA
BRANCH  11  12
ATOM     12  C   UNL     1      43.708   5.380  10.730  0.00  0.00    +0.000 C 
BRANCH  12  13
ATOM     13  C   UNL     1      44.437   4.320   9.931  0.00  0.00    +0.000 A 
ATOM     14  C   UNL     1      45.249   4.689   8.845  0.00  0.00    +0.000 A 
ATOM     15  C   UNL     1      45.929   3.721   8.101  0.00  0.00    +0.000 A 
ATOM     16  C   UNL     1      45.796   2.375   8.428  0.00  0.00    +0.000 A 
ATOM     17 CL   UNL     1      46.652   1.187   7.527  0.00  0.00    +0.000 Cl
ATOM     18  C   UNL     1      44.970   1.984   9.476  0.00  0.00    +0.000 A 
ATOM     19  C   UNL     1      44.283   2.950  10.216  0.00  0.00    +0.000 A 
ATOM     20 CL   UNL     1      43.236   2.382  11.470  0.00  0.00    +0.000 Cl
ENDBRANCH  12  13
ENDBRANCH  11  12
ENDBRANCH   4  11
TORSDOF 5
ENDMDL
MODEL 6
REMARK VINA RESULT:    -5.778      3.282      6.277
REMARK INTER + INTRA:          -8.052
REMARK INTER:                  -7.324
REMARK INTRA:                  -0.728
REMARK UNBOUND:                -0.754
REMARK  Name = 
REMARK  5 active torsions:
REMARK  status: ('A' for Active; 'I' for Inactive)
REMARK    1  A    between atoms: N_1  and  C_2
REMARK    2  A    between atoms: C_2  and  C_3
REMARK    3  A    between atoms: C_6  and  O_7
REMARK    4  A    between atoms: O_7  and  C_8
REMARK    5  A    between atoms: C_8  and  C_9
REMARK                            x       y       z     vdW  Elec       q    Type
REMARK                         _______ _______ _______ _____ _____    ______ ____
ROOT
ATOM      1  C   UNL     1      46.729   7.104  13.232  0.00  0.00    +0.000 A 
ATOM      2  C   UNL     1      45.458   7.310  12.676  0.00  0.00    +0.000 A 
ATOM      3  C   UNL     1      44.662   6.225  12.295  0.00  0.00    +0.000 A 
ATOM      4  C   UNL     1      45.133   4.922  12.454  0.00  0.00    +0.000 A 
ATOM      5  C   UNL     1      46.372   4.710  13.061  0.00  0.00    +0.000 A 
ATOM      6  C   UNL     1      47.169   5.793  13.434  0.00  0.00    +0.000 A 
ENDROOT
BRANCH   1   7
ATOM      7  C   UNL     1      47.620   8.267  13.580  0.00  0.00    +0.000 C 
BRANCH   7   8
ATOM      8  N   UNL     1      47.218   8.899  14.829  0.00  0.00    +0.000 NA
ATOM      9  H   UNL     1      46.253   9.210  14.747  0.00  0.00    +0.000 HD
ATOM     10  H   UNL     1      47.781   9.738  14.967  0.00  0.00    +0.000 HD
ENDBRANCH   7   8
ENDBRANCH   1   7
BRANCH   4  11
ATOM     11  O   UNL     1      44.316   3.927  11.982  0.00  0.00    +0.000 OA
BRANCH  11  12
ATOM     12  C   UNL     1      43.823   4.140  10.650  0.00  0.00    +0.000 C 
BRANCH  12  13
ATOM     13  C   UNL     1      44.693   3.442   9.627  0.00  0.00    +0.000 A 
ATOM     14  C   UNL     1      44.582   2.053   9.435  0.00  0.00    +0.000 A 
ATOM     15  C   UNL     1      45.376   1.397   8.492  0.00  0.00    +0.000 A 
ATOM     16  C   UNL     1      46.298   2.119   7.739  0.00  0.00    +0.000 A 
ATOM     17 CL   UNL     1      47.259   1.314   6.562  0.00  0.00    +0.000 Cl
ATOM     18  C   UNL     1      46.451   3.487   7.936  0.00  0.00    +0.000 A 
ATOM     19  C   UNL     1      45.662   4.143   8.886  0.00  0.00    +0.000 A 
ATOM     20 CL   UNL     1      45.947   5.834   9.109  0.00  0.00    +0.000 Cl
ENDBRANCH  12  13
ENDBRANCH  11  12
ENDBRANCH   4  11
TORSDOF 5
ENDMDL
MODEL 7
REMARK VINA RESULT:    -5.308      4.966      7.059
REMARK INTER + INTRA:          -7.458
REMARK INTER:                  -6.961
REMARK INTRA:                  -0.496
REMARK UNBOUND:                -0.754
REMARK  Name = 
REMARK  5 active torsions:
REMARK  status: ('A' for Active; 'I' for Inactive)
REMARK    1  A    between atoms: N_1  and  C_2
REMARK    2  A    between atoms: C_2  and  C_3
REMARK    3  A    between atoms: C_6  and  O_7
REMARK    4  A    between atoms: O_7  and  C_8
REMARK    5  A    between atoms: C_8  and  C_9
REMARK                            x       y       z     vdW  Elec       q    Type
REMARK                         _______ _______ _______ _____ _____    ______ ____
ROOT
ATOM      1  C   UNL     1      45.493   6.865  12.448  0.00  0.00    +0.000 A 
ATOM      2  C   UNL     1      44.755   5.727  12.809  0.00  0.00    +0.000 A 
ATOM      3  C   UNL     1      45.343   4.706  13.562  0.00  0.00    +0.000 A 
ATOM      4  C   UNL     1      46.678   4.804  13.954  0.00  0.00    +0.000 A 
ATOM      5  C   UNL     1      47.398   5.961  13.649  0.00  0.00    +0.000 A 
ATOM      6  C   UNL     1      46.814   6.977  12.891  0.00  0.00    +0.000 A 
ENDROOT
BRANCH   1   7
ATOM      7  C   UNL     1      44.889   7.936  11.579  0.00  0.00    +0.000 C 
BRANCH   7   8
ATOM      8  N   UNL     1      43.534   7.597  11.168  0.00  0.00    +0.000 NA
ATOM      9  H   UNL     1      42.993   7.339  11.990  0.00  0.00    +0.000 HD
ATOM     10  H   UNL     1      43.571   6.769  10.575  0.00  0.00    +0.000 HD
ENDBRANCH   7   8
ENDBRANCH   1   7
BRANCH   4  11
ATOM     11  O   UNL     1      47.189   3.722  14.622  0.00  0.00    +0.000 OA
BRANCH  11  12
ATOM     12  C   UNL     1      47.167   3.838  16.053  0.00  0.00    +0.000 C 
BRANCH  12  13
ATOM     13  C   UNL     1      48.546   3.619  16.639  0.00  0.00    +0.000 A 
ATOM     14  C   UNL     1      49.076   2.320  16.732  0.00  0.00    +0.000 A 
ATOM     15  C   UNL     1      50.348   2.105  17.268  0.00  0.00    +0.000 A 
ATOM     16  C   UNL     1      51.098   3.182  17.728  0.00  0.00    +0.000 A 
ATOM     17 CL   UNL     1      52.673   2.918  18.367  0.00  0.00    +0.000 Cl
ATOM     18  C   UNL     1      50.581   4.473  17.680  0.00  0.00    +0.000 A 
ATOM     19  C   UNL     1      49.305   4.688  17.151  0.00  0.00    +0.000 A 
ATOM     20 CL   UNL     1      48.711   6.312  17.172  0.00  0.00    +0.000 Cl
ENDBRANCH  12  13
ENDBRANCH  11  12
ENDBRANCH   4  11
TORSDOF 5
ENDMDL
MODEL 8
REMARK VINA RESULT:    -5.284      3.890      5.356
REMARK INTER + INTRA:          -7.428
REMARK INTER:                  -7.053
REMARK INTRA:                  -0.376
REMARK UNBOUND:                -0.754
REMARK  Name = 
REMARK  5 active torsions:
REMARK  status: ('A' for Active; 'I' for Inactive)
REMARK    1  A    between atoms: N_1  and  C_2
REMARK    2  A    between atoms: C_2  and  C_3
REMARK    3  A    between atoms: C_6  and  O_7
REMARK    4  A    between atoms: O_7  and  C_8
REMARK    5  A    between atoms: C_8  and  C_9
REMARK                            x       y       z     vdW  Elec       q    Type
REMARK                         _______ _______ _______ _____ _____    ______ ____
ROOT
ATOM      1  C   UNL     1      44.961   4.346  10.258  0.00  0.00    +0.000 A 
ATOM      2  C   UNL     1      44.847   3.224  11.094  0.00  0.00    +0.000 A 
ATOM      3  C   UNL     1      45.171   3.311  12.451  0.00  0.00    +0.000 A 
ATOM      4  C   UNL     1      45.625   4.516  12.987  0.00  0.00    +0.000 A 
ATOM      5  C   UNL     1      45.684   5.650  12.174  0.00  0.00    +0.000 A 
ATOM      6  C   UNL     1      45.367   5.561  10.817  0.00  0.00    +0.000 A 
ENDROOT
BRANCH   1   7
ATOM      7  C   UNL     1      44.680   4.244   8.782  0.00  0.00    +0.000 C 
BRANCH   7   8
ATOM      8  N   UNL     1      45.896   4.376   7.992  0.00  0.00    +0.000 NA
ATOM      9  H   UNL     1      45.935   5.314   7.599  0.00  0.00    +0.000 HD
ATOM     10  H   UNL     1      45.842   3.734   7.202  0.00  0.00    +0.000 HD
ENDBRANCH   7   8
ENDBRANCH   1   7
BRANCH   4  11
ATOM     11  O   UNL     1      45.993   4.486  14.308  0.00  0.00    +0.000 OA
BRANCH  11  12
ATOM     12  C   UNL     1      47.227   3.802  14.569  0.00  0.00    +0.000 C 
BRANCH  12  13
ATOM     13  C   UNL     1      47.701   4.050  15.985  0.00  0.00    +0.000 A 
ATOM     14  C   UNL     1      47.509   3.072  16.976  0.00  0.00    +0.000 A 
ATOM     15  C   UNL     1      47.944   3.287  18.286  0.00  0.00    +0.000 A 
ATOM     16  C   UNL     1      48.565   4.486  18.622  0.00  0.00    +0.000 A 
ATOM     17 CL   UNL     1      49.120   4.741  20.229  0.00  0.00    +0.000 Cl
ATOM     18  C   UNL     1      48.734   5.484  17.667  0.00  0.00    +0.000 A 
ATOM     19  C   UNL     1      48.291   5.272  16.358  0.00  0.00    +0.000 A 
ATOM     20 CL   UNL     1      48.490   6.578  15.242  0.00  0.00    +0.000 Cl
ENDBRANCH  12  13
ENDBRANCH  11  12
ENDBRANCH   4  11
TORSDOF 5
ENDMDL
MODEL 9
REMARK VINA RESULT:    -4.951      5.097      7.629
REMARK INTER + INTRA:          -7.007
REMARK INTER:                  -6.563
REMARK INTRA:                  -0.444
REMARK UNBOUND:                -0.754
REMARK  Name = 
REMARK  5 active torsions:
REMARK  status: ('A' for Active; 'I' for Inactive)
REMARK    1  A    between atoms: N_1  and  C_2
REMARK    2  A    between atoms: C_2  and  C_3
REMARK    3  A    between atoms: C_6  and  O_7
REMARK    4  A    between atoms: O_7  and  C_8
REMARK    5  A    between atoms: C_8  and  C_9
REMARK                            x       y       z     vdW  Elec       q    Type
REMARK                         _______ _______ _______ _____ _____    ______ ____
ROOT
ATOM      1  C   UNL     1      48.653   4.522  18.441  0.00  0.00    +0.000 A 
ATOM      2  C   UNL     1      47.881   3.375  18.198  0.00  0.00    +0.000 A 
ATOM      3  C   UNL     1      47.204   3.216  16.985  0.00  0.00    +0.000 A 
ATOM      4  C   UNL     1      47.280   4.206  16.005  0.00  0.00    +0.000 A 
ATOM      5  C   UNL     1      48.094   5.320  16.218  0.00  0.00    +0.000 A 
ATOM      6  C   UNL     1      48.764   5.483  17.432  0.00  0.00    +0.000 A 
ENDROOT
BRANCH   1   7
ATOM      7  C   UNL     1      49.328   4.733  19.770  0.00  0.00    +0.000 C 
BRANCH   7   8
ATOM      8  N   UNL     1      48.652   4.012  20.840  0.00  0.00    +0.000 NA
ATOM      9  H   UNL     1      49.317   3.833  21.589  0.00  0.00    +0.000 HD
ATOM     10  H   UNL     1      48.363   3.101  20.486  0.00  0.00    +0.000 HD
ENDBRANCH   7   8
ENDBRANCH   1   7
BRANCH   4  11
ATOM     11  O   UNL     1      46.522   3.998  14.882  0.00  0.00    +0.000 OA
BRANCH  11  12
ATOM     12  C   UNL     1      47.150   4.398  13.655  0.00  0.00    +0.000 C 
BRANCH  12  13
ATOM     13  C   UNL     1      46.387   5.525  12.992  0.00  0.00    +0.000 A 
ATOM     14  C   UNL     1      46.893   6.836  13.022  0.00  0.00    +0.000 A 
ATOM     15  C   UNL     1      46.200   7.883  12.411  0.00  0.00    +0.000 A 
ATOM     16  C   UNL     1      44.989   7.635  11.773  0.00  0.00    +0.000 A 
ATOM     17 CL   UNL     1      44.148   8.921  11.002  0.00  0.00    +0.000 Cl
ATOM     18  C   UNL     1      44.450   6.352  11.761  0.00  0.00    +0.000 A 
ATOM     19  C   UNL     1      45.139   5.305  12.379  0.00  0.00    +0.000 A 
ATOM     20 CL   UNL     1      44.380   3.751  12.365  0.00  0.00    +0.000 Cl
ENDBRANCH  12  13
ENDBRANCH  11  12
ENDBRANCH   4  11
TORSDOF 5
ENDMDL
