MODEL 1
REMARK VINA RESULT:    -7.745      0.000      0.000
REMARK INTER + INTRA:         -10.187
REMARK INTER:                  -9.782
REMARK INTRA:                  -0.405
REMARK UNBOUND:                -0.405
REMARK  Name = 
REMARK  6 active torsions:
REMARK  status: ('A' for Active; 'I' for Inactive)
REMARK    1  A    between atoms: C_1  and  O_2
REMARK    2  A    between atoms: O_2  and  C_3
REMARK    3  A    between atoms: N_9  and  C_10
REMARK    4  A    between atoms: C_10  and  C_11
REMARK    5  A    between atoms: C_15  and  C_16
REMARK    6  A    between atoms: C_16  and  N_17
REMARK                            x       y       z     vdW  Elec       q    Type
REMARK                         _______ _______ _______ _____ _____    ______ ____
ROOT
ATOM      1  C   UNL     1      46.823   6.395  12.139  0.00  0.00    +0.000 A 
ATOM      2  C   UNL     1      46.662   5.893  13.426  0.00  0.00    +0.000 A 
ATOM      3  C   UNL     1      45.683   4.927  13.699  0.00  0.00    +0.000 A 
ATOM      4  C   UNL     1      44.864   4.449  12.658  0.00  0.00    +0.000 A 
ATOM      5  C   UNL     1      43.806   3.505  12.615  0.00  0.00    +0.000 A 
ATOM      6  C   UNL     1      43.389   3.408  11.310  0.00  0.00    +0.000 A 
ATOM      7  N   UNL     1      44.162   4.256  10.548  0.00  0.00    +0.000 N 
ATOM      8  C   UNL     1      45.053   4.935  11.362  0.00  0.00    +0.000 A 
ATOM      9  C   UNL     1      46.016   5.925  11.088  0.00  0.00    +0.000 A 
ENDROOT
BRANCH   1  11
ATOM     10  C   UNL     1      49.059   7.204  12.292  0.00  0.00    +0.000 C 
ATOM     11  O   UNL     1      47.742   7.346  11.769  0.00  0.00    +0.000 OA
ENDBRANCH   1  11
BRANCH   7  12
ATOM     12  C   UNL     1      44.089   4.309   9.088  0.00  0.00    +0.000 C 
BRANCH  12  13
ATOM     13  C   UNL     1      44.953   3.252   8.450  0.00  0.00    +0.000 A 
ATOM     14  C   UNL     1      44.972   1.950   8.969  0.00  0.00    +0.000 A 
ATOM     15  C   UNL     1      45.856   1.004   8.456  0.00  0.00    +0.000 A 
ATOM     16  C   UNL     1      46.723   1.342   7.420  0.00  0.00    +0.000 A 
ATOM     17  C   UNL     1      46.697   2.623   6.849  0.00  0.00    +0.000 A 
ATOM     18  C   UNL     1      45.800   3.567   7.376  0.00  0.00    +0.000 A 
BRANCH  17  19
ATOM     19  C   UNL     1      47.705   2.988   5.787  0.00  0.00    +0.000 C 
BRANCH  19  20
ATOM     20  N   UNL     1      48.523   1.863   5.349  0.00  0.00    +0.000 NA
ATOM     21  H   UNL     1      49.447   1.947   5.775  0.00  0.00    +0.000 HD
ATOM     22  H   UNL     1      48.667   1.933   4.343  0.00  0.00    +0.000 HD
ENDBRANCH  19  20
ENDBRANCH  17  19
ENDBRANCH  12  13
ENDBRANCH   7  12
TORSDOF 5
ENDMDL
MODEL 2
REMARK VINA RESULT:    -7.025      2.549      5.854
REMARK INTER + INTRA:          -9.278
REMARK INTER:                  -8.744
REMARK INTRA:                  -0.534
REMARK UNBOUND:                -0.405
REMARK  Name = 
REMARK  6 active torsions:
REMARK  status: ('A' for Active; 'I' for Inactive)
REMARK    1  A    between atoms: C_1  and  O_2
REMARK    2  A    between atoms: O_2  and  C_3
REMARK    3  A    between atoms: N_9  and  C_10
REMARK    4  A    between atoms: C_10  and  C_11
REMARK    5  A    between atoms: C_15  and  C_16
REMARK    6  A    between atoms: C_16  and  N_17
REMARK                            x       y       z     vdW  Elec       q    Type
REMARK                         _______ _______ _______ _____ _____    ______ ____
ROOT
ATOM      1  C   UNL     1      45.672   3.713   8.121  0.00  0.00    +0.000 A 
ATOM      2  C   UNL     1      45.423   2.366   8.358  0.00  0.00    +0.000 A 
ATOM      3  C   UNL     1      44.677   1.962   9.475  0.00  0.00    +0.000 A 
ATOM      4  C   UNL     1      44.161   2.930  10.357  0.00  0.00    +0.000 A 
ATOM      5  C   UNL     1      43.396   2.844  11.549  0.00  0.00    +0.000 A 
ATOM      6  C   UNL     1      43.147   4.126  11.975  0.00  0.00    +0.000 A 
ATOM      7  N   UNL     1      43.728   4.997  11.080  0.00  0.00    +0.000 N 
ATOM      8  C   UNL     1      44.389   4.284  10.095  0.00  0.00    +0.000 A 
ATOM      9  C   UNL     1      45.161   4.692   8.990  0.00  0.00    +0.000 A 
ENDROOT
BRANCH   1  11
ATOM     10  C   UNL     1      46.861   3.269   6.105  0.00  0.00    +0.000 C 
ATOM     11  O   UNL     1      46.396   4.211   7.066  0.00  0.00    +0.000 OA
ENDBRANCH   1  11
BRANCH   7  12
ATOM     12  C   UNL     1      43.545   6.447  11.143  0.00  0.00    +0.000 C 
BRANCH  12  13
ATOM     13  C   UNL     1      44.738   7.131  11.761  0.00  0.00    +0.000 A 
ATOM     14  C   UNL     1      44.877   8.522  11.670  0.00  0.00    +0.000 A 
ATOM     15  C   UNL     1      46.033   9.143  12.136  0.00  0.00    +0.000 A 
ATOM     16  C   UNL     1      47.057   8.388  12.702  0.00  0.00    +0.000 A 
ATOM     17  C   UNL     1      46.928   6.998  12.849  0.00  0.00    +0.000 A 
ATOM     18  C   UNL     1      45.757   6.385  12.375  0.00  0.00    +0.000 A 
BRANCH  17  19
ATOM     19  C   UNL     1      48.086   6.194  13.387  0.00  0.00    +0.000 C 
BRANCH  19  20
ATOM     20  N   UNL     1      49.385   6.646  12.900  0.00  0.00    +0.000 NA
ATOM     21  H   UNL     1      49.927   5.830  12.614  0.00  0.00    +0.000 HD
ATOM     22  H   UNL     1      49.896   7.070  13.673  0.00  0.00    +0.000 HD
ENDBRANCH  19  20
ENDBRANCH  17  19
ENDBRANCH  12  13
ENDBRANCH   7  12
TORSDOF 5
ENDMDL
MODEL 3
REMARK VINA RESULT:    -6.656      1.751      2.487
REMARK INTER + INTRA:          -8.812
REMARK INTER:                  -8.153
REMARK INTRA:                  -0.659
REMARK UNBOUND:                -0.405
REMARK  Name = 
REMARK  6 active torsions:
REMARK  status: ('A' for Active; 'I' for Inactive)
REMARK    1  A    between atoms: C_1  and  O_2
REMARK    2  A    between atoms: O_2  and  C_3
REMARK    3  A    between atoms: N_9  and  C_10
REMARK    4  A    between atoms: C_10  and  C_11
REMARK    5  A    between atoms: C_15  and  C_16
REMARK    6  A    between atoms: C_16  and  N_17
REMARK                            x       y       z     vdW  Elec       q    Type
REMARK                         _______ _______ _______ _____ _____    ______ ____
ROOT
ATOM      1  C   UNL     1      45.524   7.804  11.919  0.00  0.00    +0.000 A 
ATOM      2  C   UNL     1      46.310   7.671  13.058  0.00  0.00    +0.000 A 
ATOM      3  C   UNL     1      46.587   6.405  13.592  0.00  0.00    +0.000 A 
ATOM      4  C   UNL     1      46.077   5.254  12.959  0.00  0.00    +0.000 A 
ATOM      5  C   UNL     1      46.170   3.868  13.250  0.00  0.00    +0.000 A 
ATOM      6  C   UNL     1      45.498   3.191  12.263  0.00  0.00    +0.000 A 
ATOM      7  N   UNL     1      45.001   4.115  11.369  0.00  0.00    +0.000 N 
ATOM      8  C   UNL     1      45.314   5.394  11.797  0.00  0.00    +0.000 A 
ATOM      9  C   UNL     1      45.010   6.666  11.274  0.00  0.00    +0.000 A 
ENDROOT
BRANCH   1  11
ATOM     10  C   UNL     1      43.840   9.133  10.881  0.00  0.00    +0.000 C 
ATOM     11  O   UNL     1      45.186   8.995  11.325  0.00  0.00    +0.000 OA
ENDBRANCH   1  11
BRANCH   7  12
ATOM     12  C   UNL     1      44.349   3.743  10.115  0.00  0.00    +0.000 C 
BRANCH  12  13
ATOM     13  C   UNL     1      45.353   3.488   9.020  0.00  0.00    +0.000 A 
ATOM     14  C   UNL     1      45.953   4.562   8.351  0.00  0.00    +0.000 A 
ATOM     15  C   UNL     1      46.790   4.331   7.263  0.00  0.00    +0.000 A 
ATOM     16  C   UNL     1      47.041   3.030   6.834  0.00  0.00    +0.000 A 
ATOM     17  C   UNL     1      46.491   1.930   7.511  0.00  0.00    +0.000 A 
ATOM     18  C   UNL     1      45.649   2.179   8.607  0.00  0.00    +0.000 A 
BRANCH  17  19
ATOM     19  C   UNL     1      46.709   0.537   6.974  0.00  0.00    +0.000 C 
BRANCH  19  20
ATOM     20  N   UNL     1      47.086  -0.430   7.999  0.00  0.00    +0.000 NA
ATOM     21  H   UNL     1      47.962  -0.874   7.719  0.00  0.00    +0.000 HD
ATOM     22  H   UNL     1      46.387  -1.170   8.026  0.00  0.00    +0.000 HD
ENDBRANCH  19  20
ENDBRANCH  17  19
ENDBRANCH  12  13
ENDBRANCH   7  12
TORSDOF 5
ENDMDL
MODEL 4
REMARK VINA RESULT:    -6.471      1.453      2.408
REMARK INTER + INTRA:          -8.578
REMARK INTER:                  -8.141
REMARK INTRA:                  -0.437
REMARK UNBOUND:                -0.405
REMARK  Name = 
REMARK  6 active torsions:
REMARK  status: ('A' for Active; 'I' for Inactive)
REMARK    1  A    between atoms: C_1  and  O_2
REMARK    2  A    between atoms: O_2  and  C_3
REMARK    3  A    between atoms: N_9  and  C_10
REMARK    4  A    between atoms: C_10  and  C_11
REMARK    5  A    between atoms: C_15  and  C_16
REMARK    6  A    between atoms: C_16  and  N_17
REMARK                            x       y       z     vdW  Elec       q    Type
REMARK                         _______ _______ _______ _____ _____    ______ ____
ROOT
ATOM      1  C   UNL     1      48.464   7.899  12.242  0.00  0.00    +0.000 A 
ATOM      2  C   UNL     1      49.077   7.324  13.350  0.00  0.00    +0.000 A 
ATOM      3  C   UNL     1      48.473   6.257  14.029  0.00  0.00    +0.000 A 
ATOM      4  C   UNL     1      47.239   5.751  13.576  0.00  0.00    +0.000 A 
ATOM      5  C   UNL     1      46.390   4.712  14.039  0.00  0.00    +0.000 A 
ATOM      6  C   UNL     1      45.320   4.637  13.181  0.00  0.00    +0.000 A 
ATOM      7  N   UNL     1      45.487   5.590  12.201  0.00  0.00    +0.000 N 
ATOM      8  C   UNL     1      46.644   6.313  12.444  0.00  0.00    +0.000 A 
ATOM      9  C   UNL     1      47.234   7.403  11.776  0.00  0.00    +0.000 A 
ENDROOT
BRANCH   1  11
ATOM     10  C   UNL     1      48.255  10.182  11.593  0.00  0.00    +0.000 C 
ATOM     11  O   UNL     1      48.966   8.950  11.516  0.00  0.00    +0.000 OA
ENDBRANCH   1  11
BRANCH   7  12
ATOM     12  C   UNL     1      44.608   5.704  11.038  0.00  0.00    +0.000 C 
BRANCH  12  13
ATOM     13  C   UNL     1      44.805   4.559  10.078  0.00  0.00    +0.000 A 
ATOM     14  C   UNL     1      44.308   3.286  10.390  0.00  0.00    +0.000 A 
ATOM     15  C   UNL     1      44.589   2.202   9.563  0.00  0.00    +0.000 A 
ATOM     16  C   UNL     1      45.361   2.375   8.416  0.00  0.00    +0.000 A 
ATOM     17  C   UNL     1      45.835   3.645   8.053  0.00  0.00    +0.000 A 
ATOM     18  C   UNL     1      45.543   4.729   8.897  0.00  0.00    +0.000 A 
BRANCH  17  19
ATOM     19  C   UNL     1      46.739   3.790   6.854  0.00  0.00    +0.000 C 
BRANCH  19  20
ATOM     20  N   UNL     1      47.867   2.864   6.859  0.00  0.00    +0.000 NA
ATOM     21  H   UNL     1      47.638   2.070   6.260  0.00  0.00    +0.000 HD
ATOM     22  H   UNL     1      47.979   2.489   7.800  0.00  0.00    +0.000 HD
ENDBRANCH  19  20
ENDBRANCH  17  19
ENDBRANCH  12  13
ENDBRANCH   7  12
TORSDOF 5
ENDMDL
MODEL 5
REMARK VINA RESULT:    -6.295      2.906      6.685
REMARK INTER + INTRA:          -8.356
REMARK INTER:                  -7.780
REMARK INTRA:                  -0.576
REMARK UNBOUND:                -0.405
REMARK  Name = 
REMARK  6 active torsions:
REMARK  status: ('A' for Active; 'I' for Inactive)
REMARK    1  A    between atoms: C_1  and  O_2
REMARK    2  A    between atoms: O_2  and  C_3
REMARK    3  A    between atoms: N_9  and  C_10
REMARK    4  A    between atoms: C_10  and  C_11
REMARK    5  A    between atoms: C_15  and  C_16
REMARK    6  A    between atoms: C_16  and  N_17
REMARK                            x       y       z     vdW  Elec       q    Type
REMARK                         _______ _______ _______ _____ _____    ______ ____
ROOT
ATOM      1  C   UNL     1      45.535   4.153   8.584  0.00  0.00    +0.000 A 
ATOM      2  C   UNL     1      44.866   2.999   8.976  0.00  0.00    +0.000 A 
ATOM      3  C   UNL     1      44.293   2.903  10.252  0.00  0.00    +0.000 A 
ATOM      4  C   UNL     1      44.381   3.993  11.140  0.00  0.00    +0.000 A 
ATOM      5  C   UNL     1      43.924   4.199  12.467  0.00  0.00    +0.000 A 
ATOM      6  C   UNL     1      44.266   5.478  12.831  0.00  0.00    +0.000 A 
ATOM      7  N   UNL     1      44.913   6.068  11.767  0.00  0.00    +0.000 N 
ATOM      8  C   UNL     1      45.028   5.161  10.727  0.00  0.00    +0.000 A 
ATOM      9  C   UNL     1      45.629   5.250   9.457  0.00  0.00    +0.000 A 
ENDROOT
BRANCH   1  11
ATOM     10  C   UNL     1      46.404   3.178   6.591  0.00  0.00    +0.000 C 
ATOM     11  O   UNL     1      46.138   4.343   7.365  0.00  0.00    +0.000 OA
ENDBRANCH   1  11
BRANCH   7  12
ATOM     12  C   UNL     1      45.297   7.479  11.748  0.00  0.00    +0.000 C 
BRANCH  12  13
ATOM     13  C   UNL     1      46.652   7.695  12.373  0.00  0.00    +0.000 A 
ATOM     14  C   UNL     1      47.787   7.087  11.822  0.00  0.00    +0.000 A 
ATOM     15  C   UNL     1      49.018   7.188  12.463  0.00  0.00    +0.000 A 
ATOM     16  C   UNL     1      49.133   7.899  13.656  0.00  0.00    +0.000 A 
ATOM     17  C   UNL     1      48.024   8.558  14.209  0.00  0.00    +0.000 A 
ATOM     18  C   UNL     1      46.788   8.447  13.551  0.00  0.00    +0.000 A 
BRANCH  17  19
ATOM     19  C   UNL     1      48.156   9.249  15.544  0.00  0.00    +0.000 C 
BRANCH  19  20
ATOM     20  N   UNL     1      48.529  10.655  15.438  0.00  0.00    +0.000 NA
ATOM     21  H   UNL     1      49.364  10.726  14.857  0.00  0.00    +0.000 HD
ATOM     22  H   UNL     1      48.794  10.995  16.361  0.00  0.00    +0.000 HD
ENDBRANCH  19  20
ENDBRANCH  17  19
ENDBRANCH  12  13
ENDBRANCH   7  12
TORSDOF 5
ENDMDL
MODEL 6
REMARK VINA RESULT:    -5.966      2.728      5.131
REMARK INTER + INTRA:          -7.941
REMARK INTER:                  -7.368
REMARK INTRA:                  -0.573
REMARK UNBOUND:                -0.405
REMARK  Name = 
REMARK  6 active torsions:
REMARK  status: ('A' for Active; 'I' for Inactive)
REMARK    1  A    between atoms: C_1  and  O_2
REMARK    2  A    between atoms: O_2  and  C_3
REMARK    3  A    between atoms: N_9  and  C_10
REMARK    4  A    between atoms: C_10  and  C_11
REMARK    5  A    between atoms: C_15  and  C_16
REMARK    6  A    between atoms: C_16  and  N_17
REMARK                            x       y       z     vdW  Elec       q    Type
REMARK                         _______ _______ _______ _____ _____    ______ ____
ROOT
ATOM      1  C   UNL     1      45.535  10.004  12.139  0.00  0.00    +0.000 A 
ATOM      2  C   UNL     1      46.668  10.640  11.643  0.00  0.00    +0.000 A 
ATOM      3  C   UNL     1      47.916  10.002  11.671  0.00  0.00    +0.000 A 
ATOM      4  C   UNL     1      48.022   8.697  12.191  0.00  0.00    +0.000 A 
ATOM      5  C   UNL     1      49.115   7.809  12.361  0.00  0.00    +0.000 A 
ATOM      6  C   UNL     1      48.623   6.643  12.895  0.00  0.00    +0.000 A 
ATOM      7  N   UNL     1      47.261   6.783  13.052  0.00  0.00    +0.000 N 
ATOM      8  C   UNL     1      46.873   8.053  12.659  0.00  0.00    +0.000 A 
ATOM      9  C   UNL     1      45.623   8.701  12.659  0.00  0.00    +0.000 A 
ENDROOT
BRANCH   1  11
ATOM     10  C   UNL     1      43.467  10.354  11.009  0.00  0.00    +0.000 C 
ATOM     11  O   UNL     1      44.273  10.543  12.168  0.00  0.00    +0.000 OA
ENDBRANCH   1  11
BRANCH   7  12
ATOM     12  C   UNL     1      46.387   5.686  13.466  0.00  0.00    +0.000 C 
BRANCH  12  13
ATOM     13  C   UNL     1      45.310   5.418  12.446  0.00  0.00    +0.000 A 
ATOM     14  C   UNL     1      43.960   5.494  12.812  0.00  0.00    +0.000 A 
ATOM     15  C   UNL     1      42.967   5.133  11.906  0.00  0.00    +0.000 A 
ATOM     16  C   UNL     1      43.307   4.699  10.626  0.00  0.00    +0.000 A 
ATOM     17  C   UNL     1      44.648   4.655  10.215  0.00  0.00    +0.000 A 
ATOM     18  C   UNL     1      45.639   5.023  11.139  0.00  0.00    +0.000 A 
BRANCH  17  19
ATOM     19  C   UNL     1      44.994   4.101   8.855  0.00  0.00    +0.000 C 
BRANCH  19  20
ATOM     20  N   UNL     1      45.998   4.885   8.144  0.00  0.00    +0.000 NA
ATOM     21  H   UNL     1      45.552   5.332   7.342  0.00  0.00    +0.000 HD
ATOM     22  H   UNL     1      46.700   4.252   7.763  0.00  0.00    +0.000 HD
ENDBRANCH  19  20
ENDBRANCH  17  19
ENDBRANCH  12  13
ENDBRANCH   7  12
TORSDOF 5
ENDMDL
MODEL 7
REMARK VINA RESULT:    -5.813      2.419      4.830
REMARK INTER + INTRA:          -7.747
REMARK INTER:                  -7.148
REMARK INTRA:                  -0.599
REMARK UNBOUND:                -0.405
REMARK  Name = 
REMARK  6 active torsions:
REMARK  status: ('A' for Active; 'I' for Inactive)
REMARK    1  A    between atoms: C_1  and  O_2
REMARK    2  A    between atoms: O_2  and  C_3
REMARK    3  A    between atoms: N_9  and  C_10
REMARK    4  A    between atoms: C_10  and  C_11
REMARK    5  A    between atoms: C_15  and  C_16
REMARK    6  A    between atoms: C_16  and  N_17
REMARK                            x       y       z     vdW  Elec       q    Type
REMARK                         _______ _______ _______ _____ _____    ______ ____
ROOT
ATOM      1  C   UNL     1      50.047   8.302  11.633  0.00  0.00    +0.000 A 
ATOM      2  C   UNL     1      49.766   9.654  11.477  0.00  0.00    +0.000 A 
ATOM      3  C   UNL     1      48.474  10.148  11.706  0.00  0.00    +0.000 A 
ATOM      4  C   UNL     1      47.453   9.267  12.114  0.00  0.00    +0.000 A 
ATOM      5  C   UNL     1      46.077   9.451  12.409  0.00  0.00    +0.000 A 
ATOM      6  C   UNL     1      45.569   8.234  12.792  0.00  0.00    +0.000 A 
ATOM      7  N   UNL     1      46.589   7.309  12.749  0.00  0.00    +0.000 N 
ATOM      8  C   UNL     1      47.751   7.915  12.299  0.00  0.00    +0.000 A 
ATOM      9  C   UNL     1      49.040   7.411  12.042  0.00  0.00    +0.000 A 
ENDROOT
BRANCH   1  11
ATOM     10  C   UNL     1      51.995   8.137  10.271  0.00  0.00    +0.000 C 
ATOM     11  O   UNL     1      51.272   7.718  11.425  0.00  0.00    +0.000 OA
ENDBRANCH   1  11
BRANCH   7  12
ATOM     12  C   UNL     1      46.443   5.935  13.226  0.00  0.00    +0.000 C 
BRANCH  12  13
ATOM     13  C   UNL     1      45.379   5.190  12.461  0.00  0.00    +0.000 A 
ATOM     14  C   UNL     1      44.354   4.525  13.147  0.00  0.00    +0.000 A 
ATOM     15  C   UNL     1      43.439   3.740  12.451  0.00  0.00    +0.000 A 
ATOM     16  C   UNL     1      43.531   3.614  11.067  0.00  0.00    +0.000 A 
ATOM     17  C   UNL     1      44.519   4.304  10.346  0.00  0.00    +0.000 A 
ATOM     18  C   UNL     1      45.435   5.092  11.062  0.00  0.00    +0.000 A 
BRANCH  17  19
ATOM     19  C   UNL     1      44.650   4.082   8.859  0.00  0.00    +0.000 C 
BRANCH  19  20
ATOM     20  N   UNL     1      45.691   4.894   8.239  0.00  0.00    +0.000 NA
ATOM     21  H   UNL     1      45.529   5.871   8.483  0.00  0.00    +0.000 HD
ATOM     22  H   UNL     1      45.595   4.833   7.226  0.00  0.00    +0.000 HD
ENDBRANCH  19  20
ENDBRANCH  17  19
ENDBRANCH  12  13
ENDBRANCH   7  12
TORSDOF 5
ENDMDL
MODEL 8
REMARK VINA RESULT:    -5.751      4.369      7.958
REMARK INTER + INTRA:          -7.669
REMARK INTER:                  -6.992
REMARK INTRA:                  -0.677
REMARK UNBOUND:                -0.405
REMARK  Name = 
REMARK  6 active torsions:
REMARK  status: ('A' for Active; 'I' for Inactive)
REMARK    1  A    between atoms: C_1  and  O_2
REMARK    2  A    between atoms: O_2  and  C_3
REMARK    3  A    between atoms: N_9  and  C_10
REMARK    4  A    between atoms: C_10  and  C_11
REMARK    5  A    between atoms: C_15  and  C_16
REMARK    6  A    between atoms: C_16  and  N_17
REMARK                            x       y       z     vdW  Elec       q    Type
REMARK                         _______ _______ _______ _____ _____    ______ ____
ROOT
ATOM      1  C   UNL     1      45.006   4.631  12.574  0.00  0.00    +0.000 A 
ATOM      2  C   UNL     1      44.192   5.522  11.884  0.00  0.00    +0.000 A 
ATOM      3  C   UNL     1      44.499   6.889  11.846  0.00  0.00    +0.000 A 
ATOM      4  C   UNL     1      45.653   7.364  12.500  0.00  0.00    +0.000 A 
ATOM      5  C   UNL     1      46.218   8.656  12.650  0.00  0.00    +0.000 A 
ATOM      6  C   UNL     1      47.381   8.521  13.368  0.00  0.00    +0.000 A 
ATOM      7  N   UNL     1      47.553   7.185  13.658  0.00  0.00    +0.000 N 
ATOM      8  C   UNL     1      46.483   6.457  13.165  0.00  0.00    +0.000 A 
ATOM      9  C   UNL     1      46.162   5.087  13.229  0.00  0.00    +0.000 A 
ENDROOT
BRANCH   1  11
ATOM     10  C   UNL     1      43.574   2.779  12.131  0.00  0.00    +0.000 C 
ATOM     11  O   UNL     1      44.789   3.279  12.680  0.00  0.00    +0.000 OA
ENDBRANCH   1  11
BRANCH   7  12
ATOM     12  C   UNL     1      48.759   6.653  14.292  0.00  0.00    +0.000 C 
BRANCH  12  13
ATOM     13  C   UNL     1      48.546   6.393  15.761  0.00  0.00    +0.000 A 
ATOM     14  C   UNL     1      48.748   7.419  16.694  0.00  0.00    +0.000 A 
ATOM     15  C   UNL     1      48.667   7.151  18.059  0.00  0.00    +0.000 A 
ATOM     16  C   UNL     1      48.379   5.864  18.506  0.00  0.00    +0.000 A 
ATOM     17  C   UNL     1      48.127   4.826  17.596  0.00  0.00    +0.000 A 
ATOM     18  C   UNL     1      48.212   5.110  16.223  0.00  0.00    +0.000 A 
BRANCH  17  19
ATOM     19  C   UNL     1      47.903   3.423  18.107  0.00  0.00    +0.000 C 
BRANCH  19  20
ATOM     20  N   UNL     1      46.623   2.853  17.701  0.00  0.00    +0.000 NA
ATOM     21  H   UNL     1      46.677   2.605  16.712  0.00  0.00    +0.000 HD
ATOM     22  H   UNL     1      45.905   3.572  17.776  0.00  0.00    +0.000 HD
ENDBRANCH  19  20
ENDBRANCH  17  19
ENDBRANCH  12  13
ENDBRANCH   7  12
TORSDOF 5
ENDMDL
MODEL 9
REMARK VINA RESULT:    -5.564      4.067      6.668
REMARK INTER + INTRA:          -7.432
REMARK INTER:                  -6.731
REMARK INTRA:                  -0.701
REMARK UNBOUND:                -0.405
REMARK  Name = 
REMARK  6 active torsions:
REMARK  status: ('A' for Active; 'I' for Inactive)
REMARK    1  A    between atoms: C_1  and  O_2
REMARK    2  A    between atoms: O_2  and  C_3
REMARK    3  A    between atoms: N_9  and  C_10
REMARK    4  A    between atoms: C_10  and  C_11
REMARK    5  A    between atoms: C_15  and  C_16
REMARK    6  A    between atoms: C_16  and  N_17
REMARK                            x       y       z     vdW  Elec       q    Type
REMARK                         _______ _______ _______ _____ _____    ______ ____
ROOT
ATOM      1  C   UNL     1      46.711   3.885  13.737  0.00  0.00    +0.000 A 
ATOM      2  C   UNL     1      45.955   3.260  12.752  0.00  0.00    +0.000 A 
ATOM      3  C   UNL     1      45.166   4.012  11.870  0.00  0.00    +0.000 A 
ATOM      4  C   UNL     1      45.150   5.417  11.973  0.00  0.00    +0.000 A 
ATOM      5  C   UNL     1      44.467   6.432  11.255  0.00  0.00    +0.000 A 
ATOM      6  C   UNL     1      44.861   7.643  11.772  0.00  0.00    +0.000 A 
ATOM      7  N   UNL     1      45.770   7.405  12.779  0.00  0.00    +0.000 N 
ATOM      8  C   UNL     1      45.937   6.040  12.946  0.00  0.00    +0.000 A 
ATOM      9  C   UNL     1      46.708   5.286  13.851  0.00  0.00    +0.000 A 
ENDROOT
BRANCH   1  11
ATOM     10  C   UNL     1      47.505   3.759  15.980  0.00  0.00    +0.000 C 
ATOM     11  O   UNL     1      47.506   3.242  14.653  0.00  0.00    +0.000 OA
ENDBRANCH   1  11
BRANCH   7  12
ATOM     12  C   UNL     1      46.505   8.469  13.460  0.00  0.00    +0.000 C 
BRANCH  12  13
ATOM     13  C   UNL     1      47.980   8.413  13.150  0.00  0.00    +0.000 A 
ATOM     14  C   UNL     1      48.421   8.454  11.821  0.00  0.00    +0.000 A 
ATOM     15  C   UNL     1      49.771   8.284  11.526  0.00  0.00    +0.000 A 
ATOM     16  C   UNL     1      50.694   8.078  12.549  0.00  0.00    +0.000 A 
ATOM     17  C   UNL     1      50.289   8.077  13.893  0.00  0.00    +0.000 A 
ATOM     18  C   UNL     1      48.924   8.250  14.176  0.00  0.00    +0.000 A 
BRANCH  17  19
ATOM     19  C   UNL     1      51.294   7.767  14.975  0.00  0.00    +0.000 C 
BRANCH  19  20
ATOM     20  N   UNL     1      52.660   7.635  14.482  0.00  0.00    +0.000 NA
ATOM     21  H   UNL     1      53.100   6.844  14.951  0.00  0.00    +0.000 HD
ATOM     22  H   UNL     1      53.190   8.461  14.757  0.00  0.00    +0.000 HD
ENDBRANCH  19  20
ENDBRANCH  17  19
ENDBRANCH  12  13
ENDBRANCH   7  12
TORSDOF 5
ENDMDL
