MODEL 1
REMARK VINA RESULT:    -7.959      0.000      0.000
REMARK INTER + INTRA:         -11.928
REMARK INTER:                 -10.750
REMARK INTRA:                  -1.178
REMARK UNBOUND:                -1.178
REMARK  Name = 
REMARK  7 active torsions:
REMARK  status: ('A' for Active; 'I' for Inactive)
REMARK    1  A    between atoms: C_1  and  O_2
REMARK    2  A    between atoms: O_2  and  C_3
REMARK    3  A    between atoms: C_5  and  C_6
REMARK    4  A    between atoms: C_11  and  N_12
REMARK    5  A    between atoms: N_12  and  C_13
REMARK    6  A    between atoms: C_13  and  C_14
REMARK    7  A    between atoms: C_19  and  C_20
REMARK                            x       y       z     vdW  Elec       q    Type
REMARK                         _______ _______ _______ _____ _____    ______ ____
ROOT
ATOM      1  N   UNL     1      44.362   6.731  12.436  0.00  0.00    +0.000 N 
ATOM      2  H   UNL     1      43.791   7.438  12.890  0.00  0.00    +0.000 HD
ENDROOT
BRANCH   1   8
ATOM      3  C   UNL     1      46.577   6.100  13.214  0.00  0.00    +0.000 A 
ATOM      4  C   UNL     1      47.949   6.365  13.242  0.00  0.00    +0.000 A 
ATOM      5  C   UNL     1      48.444   7.555  12.707  0.00  0.00    +0.000 A 
ATOM      6  C   UNL     1      47.528   8.431  12.155  0.00  0.00    +0.000 A 
ATOM      7  N   UNL     1      46.195   8.198  12.090  0.00  0.00    +0.000 NA
ATOM      8  C   UNL     1      45.721   7.041  12.606  0.00  0.00    +0.000 A 
BRANCH   5   9
ATOM      9  C   UNL     1      49.902   7.815  12.769  0.00  0.00    +0.000 C 
ATOM     10  N   UNL     1      50.702   7.381  11.752  0.00  0.00    +0.000 N 
ATOM     11  O   UNL     1      50.395   8.419  13.717  0.00  0.00    +0.000 OA
ATOM     12  H   UNL     1      50.411   6.861  10.941  0.00  0.00    +0.000 HD
ATOM     13  H   UNL     1      51.694   7.575  11.846  0.00  0.00    +0.000 HD
ENDBRANCH   5   9
BRANCH   3  15
ATOM     14  C   UNL     1      46.615   3.732  13.388  0.00  0.00    +0.000 C 
ATOM     15  O   UNL     1      46.001   4.969  13.741  0.00  0.00    +0.000 OA
ENDBRANCH   3  15
ENDBRANCH   1   8
BRANCH   1  16
ATOM     16  C   UNL     1      43.947   6.424  11.075  0.00  0.00    +0.000 C 
BRANCH  16  17
ATOM     17  C   UNL     1      44.156   4.956  10.758  0.00  0.00    +0.000 A 
ATOM     18  C   UNL     1      43.451   3.981  11.472  0.00  0.00    +0.000 A 
ATOM     19  C   UNL     1      43.559   2.647  11.104  0.00  0.00    +0.000 A 
ATOM     20  F   UNL     1      42.871   1.719  11.786  0.00  0.00    +0.000 F 
ATOM     21  C   UNL     1      44.350   2.254  10.028  0.00  0.00    +0.000 A 
ATOM     22  C   UNL     1      45.073   3.198   9.282  0.00  0.00    +0.000 A 
ATOM     23  C   UNL     1      44.952   4.548   9.669  0.00  0.00    +0.000 A 
BRANCH  22  24
ATOM     24  C   UNL     1      45.909   2.797   8.131  0.00  0.00    +0.000 A 
ATOM     25  C   UNL     1      46.231   3.687   7.093  0.00  0.00    +0.000 A 
ATOM     26  C   UNL     1      47.038   3.284   6.029  0.00  0.00    +0.000 A 
ATOM     27  C   UNL     1      47.504   1.982   6.015  0.00  0.00    +0.000 A 
ATOM     28  N   UNL     1      47.221   1.081   6.974  0.00  0.00    +0.000 NA
ATOM     29  C   UNL     1      46.440   1.509   7.999  0.00  0.00    +0.000 A 
ENDBRANCH  22  24
ENDBRANCH  16  17
ENDBRANCH   1  16
TORSDOF 6
ENDMDL
MODEL 2
REMARK VINA RESULT:    -7.313      2.705      6.485
REMARK INTER + INTRA:         -11.055
REMARK INTER:                 -10.449
REMARK INTRA:                  -0.606
REMARK UNBOUND:                -1.178
REMARK  Name = 
REMARK  7 active torsions:
REMARK  status: ('A' for Active; 'I' for Inactive)
REMARK    1  A    between atoms: C_1  and  O_2
REMARK    2  A    between atoms: O_2  and  C_3
REMARK    3  A    between atoms: C_5  and  C_6
REMARK    4  A    between atoms: C_11  and  N_12
REMARK    5  A    between atoms: N_12  and  C_13
REMARK    6  A    between atoms: C_13  and  C_14
REMARK    7  A    between atoms: C_19  and  C_20
REMARK                            x       y       z     vdW  Elec       q    Type
REMARK                         _______ _______ _______ _____ _____    ______ ____
ROOT
ATOM      1  N   UNL     1      43.742   5.504  10.443  0.00  0.00    +0.000 N 
ATOM      2  H   UNL     1      43.232   5.103  11.225  0.00  0.00    +0.000 HD
ENDROOT
BRANCH   1   8
ATOM      3  C   UNL     1      44.192   3.150  10.041  0.00  0.00    +0.000 A 
ATOM      4  C   UNL     1      44.863   2.176   9.295  0.00  0.00    +0.000 A 
ATOM      5  C   UNL     1      45.840   2.551   8.371  0.00  0.00    +0.000 A 
ATOM      6  C   UNL     1      46.095   3.902   8.232  0.00  0.00    +0.000 A 
ATOM      7  N   UNL     1      45.451   4.874   8.921  0.00  0.00    +0.000 NA
ATOM      8  C   UNL     1      44.502   4.506   9.812  0.00  0.00    +0.000 A 
BRANCH   5   9
ATOM      9  C   UNL     1      46.545   1.494   7.609  0.00  0.00    +0.000 C 
ATOM     10  N   UNL     1      47.257   1.834   6.495  0.00  0.00    +0.000 N 
ATOM     11  O   UNL     1      46.502   0.322   7.969  0.00  0.00    +0.000 OA
ATOM     12  H   UNL     1      47.344   2.755   6.098  0.00  0.00    +0.000 HD
ATOM     13  H   UNL     1      47.714   1.074   6.002  0.00  0.00    +0.000 HD
ENDBRANCH   5   9
BRANCH   3  15
ATOM     14  C   UNL     1      43.727   2.548  12.290  0.00  0.00    +0.000 C 
ATOM     15  O   UNL     1      43.239   2.870  10.991  0.00  0.00    +0.000 OA
ENDBRANCH   3  15
ENDBRANCH   1   8
BRANCH   1  16
ATOM     16  C   UNL     1      44.454   6.730  10.773  0.00  0.00    +0.000 C 
BRANCH  16  17
ATOM     17  C   UNL     1      45.520   6.477  11.821  0.00  0.00    +0.000 A 
ATOM     18  C   UNL     1      45.290   5.545  12.840  0.00  0.00    +0.000 A 
ATOM     19  C   UNL     1      46.309   5.234  13.731  0.00  0.00    +0.000 A 
ATOM     20  F   UNL     1      46.084   4.332  14.696  0.00  0.00    +0.000 F 
ATOM     21  C   UNL     1      47.566   5.823  13.628  0.00  0.00    +0.000 A 
ATOM     22  C   UNL     1      47.842   6.761  12.620  0.00  0.00    +0.000 A 
ATOM     23  C   UNL     1      46.798   7.065  11.725  0.00  0.00    +0.000 A 
BRANCH  22  24
ATOM     24  C   UNL     1      49.176   7.387  12.492  0.00  0.00    +0.000 A 
ATOM     25  C   UNL     1      49.858   7.452  11.267  0.00  0.00    +0.000 A 
ATOM     26  C   UNL     1      51.107   8.065  11.175  0.00  0.00    +0.000 A 
ATOM     27  C   UNL     1      51.663   8.600  12.323  0.00  0.00    +0.000 A 
ATOM     28  N   UNL     1      51.063   8.559  13.527  0.00  0.00    +0.000 NA
ATOM     29  C   UNL     1      49.844   7.962  13.579  0.00  0.00    +0.000 A 
ENDBRANCH  22  24
ENDBRANCH  16  17
ENDBRANCH   1  16
TORSDOF 6
ENDMDL
MODEL 3
REMARK VINA RESULT:    -7.104      1.909      2.653
REMARK INTER + INTRA:         -10.774
REMARK INTER:                 -10.383
REMARK INTRA:                  -0.391
REMARK UNBOUND:                -1.178
REMARK  Name = 
REMARK  7 active torsions:
REMARK  status: ('A' for Active; 'I' for Inactive)
REMARK    1  A    between atoms: C_1  and  O_2
REMARK    2  A    between atoms: O_2  and  C_3
REMARK    3  A    between atoms: C_5  and  C_6
REMARK    4  A    between atoms: C_11  and  N_12
REMARK    5  A    between atoms: N_12  and  C_13
REMARK    6  A    between atoms: C_13  and  C_14
REMARK    7  A    between atoms: C_19  and  C_20
REMARK                            x       y       z     vdW  Elec       q    Type
REMARK                         _______ _______ _______ _____ _____    ______ ____
ROOT
ATOM      1  N   UNL     1      46.319   6.875  11.376  0.00  0.00    +0.000 N 
ATOM      2  H   UNL     1      46.900   6.598  10.590  0.00  0.00    +0.000 HD
ENDROOT
BRANCH   1   8
ATOM      3  C   UNL     1      47.977   7.309  13.100  0.00  0.00    +0.000 A 
ATOM      4  C   UNL     1      48.486   7.005  14.366  0.00  0.00    +0.000 A 
ATOM      5  C   UNL     1      47.996   5.906  15.074  0.00  0.00    +0.000 A 
ATOM      6  C   UNL     1      47.000   5.159  14.472  0.00  0.00    +0.000 A 
ATOM      7  N   UNL     1      46.468   5.436  13.258  0.00  0.00    +0.000 NA
ATOM      8  C   UNL     1      46.943   6.504  12.578  0.00  0.00    +0.000 A 
BRANCH   5   9
ATOM      9  C   UNL     1      48.568   5.600  16.406  0.00  0.00    +0.000 C 
ATOM     10  N   UNL     1      47.738   5.512  17.486  0.00  0.00    +0.000 N 
ATOM     11  O   UNL     1      49.773   5.421  16.547  0.00  0.00    +0.000 OA
ATOM     12  H   UNL     1      46.743   5.660  17.490  0.00  0.00    +0.000 HD
ATOM     13  H   UNL     1      48.179   5.309  18.377  0.00  0.00    +0.000 HD
ENDBRANCH   5   9
BRANCH   3  15
ATOM     14  C   UNL     1      49.739   8.225  11.799  0.00  0.00    +0.000 C 
ATOM     15  O   UNL     1      48.420   8.353  12.323  0.00  0.00    +0.000 OA
ENDBRANCH   3  15
ENDBRANCH   1   8
BRANCH   1  16
ATOM     16  C   UNL     1      44.923   6.486  11.242  0.00  0.00    +0.000 C 
BRANCH  16  17
ATOM     17  C   UNL     1      44.798   5.039  10.806  0.00  0.00    +0.000 A 
ATOM     18  C   UNL     1      43.888   4.193  11.449  0.00  0.00    +0.000 A 
ATOM     19  C   UNL     1      43.696   2.902  10.974  0.00  0.00    +0.000 A 
ATOM     20  F   UNL     1      42.814   2.101  11.588  0.00  0.00    +0.000 F 
ATOM     21  C   UNL     1      44.384   2.430   9.860  0.00  0.00    +0.000 A 
ATOM     22  C   UNL     1      45.305   3.245   9.183  0.00  0.00    +0.000 A 
ATOM     23  C   UNL     1      45.488   4.552   9.677  0.00  0.00    +0.000 A 
BRANCH  22  24
ATOM     24  C   UNL     1      46.036   2.761   7.992  0.00  0.00    +0.000 A 
ATOM     25  C   UNL     1      46.268   3.576   6.873  0.00  0.00    +0.000 A 
ATOM     26  C   UNL     1      46.976   3.096   5.772  0.00  0.00    +0.000 A 
ATOM     27  C   UNL     1      47.437   1.792   5.804  0.00  0.00    +0.000 A 
ATOM     28  N   UNL     1      47.237   0.960   6.843  0.00  0.00    +0.000 NA
ATOM     29  C   UNL     1      46.550   1.463   7.902  0.00  0.00    +0.000 A 
ENDBRANCH  22  24
ENDBRANCH  16  17
ENDBRANCH   1  16
TORSDOF 6
ENDMDL
MODEL 4
REMARK VINA RESULT:    -7.062      2.518      3.708
REMARK INTER + INTRA:         -10.716
REMARK INTER:                 -10.290
REMARK INTRA:                  -0.426
REMARK UNBOUND:                -1.178
REMARK  Name = 
REMARK  7 active torsions:
REMARK  status: ('A' for Active; 'I' for Inactive)
REMARK    1  A    between atoms: C_1  and  O_2
REMARK    2  A    between atoms: O_2  and  C_3
REMARK    3  A    between atoms: C_5  and  C_6
REMARK    4  A    between atoms: C_11  and  N_12
REMARK    5  A    between atoms: N_12  and  C_13
REMARK    6  A    between atoms: C_13  and  C_14
REMARK    7  A    between atoms: C_19  and  C_20
REMARK                            x       y       z     vdW  Elec       q    Type
REMARK                         _______ _______ _______ _____ _____    ______ ____
ROOT
ATOM      1  N   UNL     1      47.625   6.862  12.482  0.00  0.00    +0.000 N 
ATOM      2  H   UNL     1      48.071   6.356  11.722  0.00  0.00    +0.000 HD
ENDROOT
BRANCH   1   8
ATOM      3  C   UNL     1      48.380   6.555  14.772  0.00  0.00    +0.000 A 
ATOM      4  C   UNL     1      48.287   5.843  15.971  0.00  0.00    +0.000 A 
ATOM      5  C   UNL     1      47.525   4.676  16.036  0.00  0.00    +0.000 A 
ATOM      6  C   UNL     1      46.877   4.278  14.881  0.00  0.00    +0.000 A 
ATOM      7  N   UNL     1      46.926   4.954  13.709  0.00  0.00    +0.000 NA
ATOM      8  C   UNL     1      47.663   6.087  13.652  0.00  0.00    +0.000 A 
BRANCH   5   9
ATOM      9  C   UNL     1      47.460   3.934  17.317  0.00  0.00    +0.000 C 
ATOM     10  N   UNL     1      48.262   4.316  18.353  0.00  0.00    +0.000 N 
ATOM     11  O   UNL     1      46.694   2.986  17.458  0.00  0.00    +0.000 OA
ATOM     12  H   UNL     1      48.939   5.061  18.343  0.00  0.00    +0.000 HD
ATOM     13  H   UNL     1      48.188   3.771  19.205  0.00  0.00    +0.000 HD
ENDBRANCH   5   9
BRANCH   3  15
ATOM     14  C   UNL     1      50.523   7.571  14.880  0.00  0.00    +0.000 C 
ATOM     15  O   UNL     1      49.130   7.697  14.611  0.00  0.00    +0.000 OA
ENDBRANCH   3  15
ENDBRANCH   1   8
BRANCH   1  16
ATOM     16  C   UNL     1      46.327   7.420  12.134  0.00  0.00    +0.000 C 
BRANCH  16  17
ATOM     17  C   UNL     1      45.431   6.370  11.505  0.00  0.00    +0.000 A 
ATOM     18  C   UNL     1      44.064   6.351  11.800  0.00  0.00    +0.000 A 
ATOM     19  C   UNL     1      43.229   5.462  11.137  0.00  0.00    +0.000 A 
ATOM     20  F   UNL     1      41.918   5.458  11.417  0.00  0.00    +0.000 F 
ATOM     21  C   UNL     1      43.722   4.589  10.171  0.00  0.00    +0.000 A 
ATOM     22  C   UNL     1      45.086   4.575   9.841  0.00  0.00    +0.000 A 
ATOM     23  C   UNL     1      45.919   5.484  10.523  0.00  0.00    +0.000 A 
BRANCH  22  24
ATOM     24  C   UNL     1      45.623   3.660   8.810  0.00  0.00    +0.000 A 
ATOM     25  C   UNL     1      46.181   4.129   7.610  0.00  0.00    +0.000 A 
ATOM     26  C   UNL     1      46.695   3.242   6.665  0.00  0.00    +0.000 A 
ATOM     27  C   UNL     1      46.632   1.887   6.933  0.00  0.00    +0.000 A 
ATOM     28  N   UNL     1      46.099   1.377   8.059  0.00  0.00    +0.000 NA
ATOM     29  C   UNL     1      45.616   2.269   8.961  0.00  0.00    +0.000 A 
ENDBRANCH  22  24
ENDBRANCH  16  17
ENDBRANCH   1  16
TORSDOF 6
ENDMDL
MODEL 5
REMARK VINA RESULT:    -7.057      1.677      2.259
REMARK INTER + INTRA:         -10.710
REMARK INTER:                  -9.885
REMARK INTRA:                  -0.824
REMARK UNBOUND:                -1.178
REMARK  Name = 
REMARK  7 active torsions:
REMARK  status: ('A' for Active; 'I' for Inactive)
REMARK    1  A    between atoms: C_1  and  O_2
REMARK    2  A    between atoms: O_2  and  C_3
REMARK    3  A    between atoms: C_5  and  C_6
REMARK    4  A    between atoms: C_11  and  N_12
REMARK    5  A    between atoms: N_12  and  C_13
REMARK    6  A    between atoms: C_13  and  C_14
REMARK    7  A    between atoms: C_19  and  C_20
REMARK                            x       y       z     vdW  Elec       q    Type
REMARK                         _______ _______ _______ _____ _____    ______ ____
ROOT
ATOM      1  N   UNL     1      45.200   6.904  12.316  0.00  0.00    +0.000 N 
ATOM      2  H   UNL     1      44.654   7.374  13.034  0.00  0.00    +0.000 HD
ENDROOT
BRANCH   1   8
ATOM      3  C   UNL     1      46.458   8.984  12.307  0.00  0.00    +0.000 A 
ATOM      4  C   UNL     1      47.700   9.624  12.252  0.00  0.00    +0.000 A 
ATOM      5  C   UNL     1      48.856   8.890  11.985  0.00  0.00    +0.000 A 
ATOM      6  C   UNL     1      48.711   7.528  11.792  0.00  0.00    +0.000 A 
ATOM      7  N   UNL     1      47.529   6.871  11.859  0.00  0.00    +0.000 NA
ATOM      8  C   UNL     1      46.411   7.587  12.122  0.00  0.00    +0.000 A 
BRANCH   5   9
ATOM      9  C   UNL     1      50.154   9.600  11.916  0.00  0.00    +0.000 C 
ATOM     10  N   UNL     1      50.605  10.279  13.011  0.00  0.00    +0.000 N 
ATOM     11  O   UNL     1      50.829   9.581  10.891  0.00  0.00    +0.000 OA
ATOM     12  H   UNL     1      50.128  10.379  13.892  0.00  0.00    +0.000 HD
ATOM     13  H   UNL     1      51.495  10.757  12.910  0.00  0.00    +0.000 HD
ENDBRANCH   5   9
BRANCH   3  15
ATOM     14  C   UNL     1      44.888  10.602  11.563  0.00  0.00    +0.000 C 
ATOM     15  O   UNL     1      45.267   9.632  12.536  0.00  0.00    +0.000 OA
ENDBRANCH   3  15
ENDBRANCH   1   8
BRANCH   1  16
ATOM     16  C   UNL     1      44.445   6.598  11.110  0.00  0.00    +0.000 C 
BRANCH  16  17
ATOM     17  C   UNL     1      44.496   5.115  10.796  0.00  0.00    +0.000 A 
ATOM     18  C   UNL     1      43.708   4.219  11.527  0.00  0.00    +0.000 A 
ATOM     19  C   UNL     1      43.673   2.880  11.163  0.00  0.00    +0.000 A 
ATOM     20  F   UNL     1      42.906   2.030  11.861  0.00  0.00    +0.000 F 
ATOM     21  C   UNL     1      44.399   2.405  10.074  0.00  0.00    +0.000 A 
ATOM     22  C   UNL     1      45.200   3.269   9.311  0.00  0.00    +0.000 A 
ATOM     23  C   UNL     1      45.226   4.625   9.693  0.00  0.00    +0.000 A 
BRANCH  22  24
ATOM     24  C   UNL     1      45.970   2.781   8.146  0.00  0.00    +0.000 A 
ATOM     25  C   UNL     1      46.255   3.600   7.041  0.00  0.00    +0.000 A 
ATOM     26  C   UNL     1      46.999   3.116   5.965  0.00  0.00    +0.000 A 
ATOM     27  C   UNL     1      47.440   1.807   6.007  0.00  0.00    +0.000 A 
ATOM     28  N   UNL     1      47.189   0.971   7.032  0.00  0.00    +0.000 NA
ATOM     29  C   UNL     1      46.470   1.477   8.067  0.00  0.00    +0.000 A 
ENDBRANCH  22  24
ENDBRANCH  16  17
ENDBRANCH   1  16
TORSDOF 6
ENDMDL
MODEL 6
REMARK VINA RESULT:    -6.601      3.227      7.154
REMARK INTER + INTRA:         -10.095
REMARK INTER:                  -9.135
REMARK INTRA:                  -0.960
REMARK UNBOUND:                -1.178
REMARK  Name = 
REMARK  7 active torsions:
REMARK  status: ('A' for Active; 'I' for Inactive)
REMARK    1  A    between atoms: C_1  and  O_2
REMARK    2  A    between atoms: O_2  and  C_3
REMARK    3  A    between atoms: C_5  and  C_6
REMARK    4  A    between atoms: C_11  and  N_12
REMARK    5  A    between atoms: N_12  and  C_13
REMARK    6  A    between atoms: C_13  and  C_14
REMARK    7  A    between atoms: C_19  and  C_20
REMARK                            x       y       z     vdW  Elec       q    Type
REMARK                         _______ _______ _______ _____ _____    ______ ____
ROOT
ATOM      1  N   UNL     1      44.365   5.883  11.090  0.00  0.00    +0.000 N 
ATOM      2  H   UNL     1      44.079   5.476  11.976  0.00  0.00    +0.000 HD
ENDROOT
BRANCH   1   8
ATOM      3  C   UNL     1      44.943   3.552  10.713  0.00  0.00    +0.000 A 
ATOM      4  C   UNL     1      45.411   2.569   9.837  0.00  0.00    +0.000 A 
ATOM      5  C   UNL     1      45.914   2.926   8.585  0.00  0.00    +0.000 A 
ATOM      6  C   UNL     1      45.916   4.271   8.264  0.00  0.00    +0.000 A 
ATOM      7  N   UNL     1      45.451   5.249   9.078  0.00  0.00    +0.000 NA
ATOM      8  C   UNL     1      44.961   4.897  10.288  0.00  0.00    +0.000 A 
BRANCH   5   9
ATOM      9  C   UNL     1      46.419   1.862   7.686  0.00  0.00    +0.000 C 
ATOM     10  N   UNL     1      46.903   2.199   6.456  0.00  0.00    +0.000 N 
ATOM     11  O   UNL     1      46.411   0.686   8.036  0.00  0.00    +0.000 OA
ATOM     12  H   UNL     1      46.938   3.124   6.058  0.00  0.00    +0.000 HD
ATOM     13  H   UNL     1      47.228   1.434   5.874  0.00  0.00    +0.000 HD
ENDBRANCH   5   9
BRANCH   3  15
ATOM     14  C   UNL     1      43.302   2.463  12.039  0.00  0.00    +0.000 C 
ATOM     15  O   UNL     1      44.459   3.293  11.973  0.00  0.00    +0.000 OA
ENDBRANCH   3  15
ENDBRANCH   1   8
BRANCH   1  16
ATOM     16  C   UNL     1      45.111   7.125  11.228  0.00  0.00    +0.000 C 
BRANCH  16  17
ATOM     17  C   UNL     1      46.450   6.886  11.900  0.00  0.00    +0.000 A 
ATOM     18  C   UNL     1      47.620   7.390  11.322  0.00  0.00    +0.000 A 
ATOM     19  C   UNL     1      48.828   7.267  11.995  0.00  0.00    +0.000 A 
ATOM     20  F   UNL     1      49.943   7.763  11.440  0.00  0.00    +0.000 F 
ATOM     21  C   UNL     1      48.902   6.659  13.245  0.00  0.00    +0.000 A 
ATOM     22  C   UNL     1      47.752   6.142  13.864  0.00  0.00    +0.000 A 
ATOM     23  C   UNL     1      46.535   6.275  13.167  0.00  0.00    +0.000 A 
BRANCH  22  24
ATOM     24  C   UNL     1      47.814   5.502  15.196  0.00  0.00    +0.000 A 
ATOM     25  C   UNL     1      47.112   4.323  15.493  0.00  0.00    +0.000 A 
ATOM     26  C   UNL     1      47.204   3.734  16.754  0.00  0.00    +0.000 A 
ATOM     27  C   UNL     1      47.995   4.345  17.708  0.00  0.00    +0.000 A 
ATOM     28  N   UNL     1      48.683   5.481  17.486  0.00  0.00    +0.000 NA
ATOM     29  C   UNL     1      48.577   6.023  16.246  0.00  0.00    +0.000 A 
ENDBRANCH  22  24
ENDBRANCH  16  17
ENDBRANCH   1  16
TORSDOF 6
ENDMDL
MODEL 7
REMARK VINA RESULT:    -6.488      1.756      2.506
REMARK INTER + INTRA:          -9.942
REMARK INTER:                  -8.876
REMARK INTRA:                  -1.066
REMARK UNBOUND:                -1.178
REMARK  Name = 
REMARK  7 active torsions:
REMARK  status: ('A' for Active; 'I' for Inactive)
REMARK    1  A    between atoms: C_1  and  O_2
REMARK    2  A    between atoms: O_2  and  C_3
REMARK    3  A    between atoms: C_5  and  C_6
REMARK    4  A    between atoms: C_11  and  N_12
REMARK    5  A    between atoms: N_12  and  C_13
REMARK    6  A    between atoms: C_13  and  C_14
REMARK    7  A    between atoms: C_19  and  C_20
REMARK                            x       y       z     vdW  Elec       q    Type
REMARK                         _______ _______ _______ _____ _____    ______ ____
ROOT
ATOM      1  N   UNL     1      46.204   8.291  13.399  0.00  0.00    +0.000 N 
ATOM      2  H   UNL     1      46.044   9.079  14.019  0.00  0.00    +0.000 HD
ENDROOT
BRANCH   1   8
ATOM      3  C   UNL     1      48.439   7.347  13.237  0.00  0.00    +0.000 A 
ATOM      4  C   UNL     1      49.686   7.342  12.606  0.00  0.00    +0.000 A 
ATOM      5  C   UNL     1      50.005   8.332  11.676  0.00  0.00    +0.000 A 
ATOM      6  C   UNL     1      49.042   9.289  11.414  0.00  0.00    +0.000 A 
ATOM      7  N   UNL     1      47.817   9.314  11.990  0.00  0.00    +0.000 NA
ATOM      8  C   UNL     1      47.510   8.350  12.887  0.00  0.00    +0.000 A 
BRANCH   5   9
ATOM      9  C   UNL     1      51.342   8.309  11.037  0.00  0.00    +0.000 C 
ATOM     10  N   UNL     1      51.981   7.115  10.866  0.00  0.00    +0.000 N 
ATOM     11  O   UNL     1      51.876   9.345  10.656  0.00  0.00    +0.000 OA
ATOM     12  H   UNL     1      51.648   6.210  11.157  0.00  0.00    +0.000 HD
ATOM     13  H   UNL     1      52.898   7.153  10.432  0.00  0.00    +0.000 HD
ENDBRANCH   5   9
BRANCH   3  15
ATOM     14  C   UNL     1      48.735   6.494  15.433  0.00  0.00    +0.000 C 
ATOM     15  O   UNL     1      48.051   6.429  14.184  0.00  0.00    +0.000 OA
ENDBRANCH   3  15
ENDBRANCH   1   8
BRANCH   1  16
ATOM     16  C   UNL     1      45.148   8.092  12.417  0.00  0.00    +0.000 C 
BRANCH  16  17
ATOM     17  C   UNL     1      44.902   6.616  12.171  0.00  0.00    +0.000 A 
ATOM     18  C   UNL     1      44.137   5.875  13.078  0.00  0.00    +0.000 A 
ATOM     19  C   UNL     1      43.820   4.554  12.793  0.00  0.00    +0.000 A 
ATOM     20  F   UNL     1      43.076   3.854  13.661  0.00  0.00    +0.000 F 
ATOM     21  C   UNL     1      44.239   3.947  11.612  0.00  0.00    +0.000 A 
ATOM     22  C   UNL     1      45.007   4.653  10.672  0.00  0.00    +0.000 A 
ATOM     23  C   UNL     1      45.319   5.993  10.977  0.00  0.00    +0.000 A 
BRANCH  22  24
ATOM     24  C   UNL     1      45.451   4.025   9.409  0.00  0.00    +0.000 A 
ATOM     25  C   UNL     1      45.347   2.643   9.183  0.00  0.00    +0.000 A 
ATOM     26  C   UNL     1      45.758   2.083   7.975  0.00  0.00    +0.000 A 
ATOM     27  C   UNL     1      46.282   2.919   7.007  0.00  0.00    +0.000 A 
ATOM     28  N   UNL     1      46.418   4.249   7.169  0.00  0.00    +0.000 NA
ATOM     29  C   UNL     1      46.000   4.762   8.354  0.00  0.00    +0.000 A 
ENDBRANCH  22  24
ENDBRANCH  16  17
ENDBRANCH   1  16
TORSDOF 6
ENDMDL
MODEL 8
REMARK VINA RESULT:    -6.405      4.675      6.577
REMARK INTER + INTRA:          -9.829
REMARK INTER:                  -8.992
REMARK INTRA:                  -0.838
REMARK UNBOUND:                -1.178
REMARK  Name = 
REMARK  7 active torsions:
REMARK  status: ('A' for Active; 'I' for Inactive)
REMARK    1  A    between atoms: C_1  and  O_2
REMARK    2  A    between atoms: O_2  and  C_3
REMARK    3  A    between atoms: C_5  and  C_6
REMARK    4  A    between atoms: C_11  and  N_12
REMARK    5  A    between atoms: N_12  and  C_13
REMARK    6  A    between atoms: C_13  and  C_14
REMARK    7  A    between atoms: C_19  and  C_20
REMARK                            x       y       z     vdW  Elec       q    Type
REMARK                         _______ _______ _______ _____ _____    ______ ____
ROOT
ATOM      1  N   UNL     1      48.458   5.570  16.426  0.00  0.00    +0.000 N 
ATOM      2  H   UNL     1      47.890   5.869  17.213  0.00  0.00    +0.000 HD
ENDROOT
BRANCH   1   8
ATOM      3  C   UNL     1      48.918   3.218  16.838  0.00  0.00    +0.000 A 
ATOM      4  C   UNL     1      49.857   2.219  17.113  0.00  0.00    +0.000 A 
ATOM      5  C   UNL     1      51.176   2.560  17.414  0.00  0.00    +0.000 A 
ATOM      6  C   UNL     1      51.498   3.905  17.417  0.00  0.00    +0.000 A 
ATOM      7  N   UNL     1      50.622   4.898  17.134  0.00  0.00    +0.000 NA
ATOM      8  C   UNL     1      49.345   4.563  16.839  0.00  0.00    +0.000 A 
BRANCH   5   9
ATOM      9  C   UNL     1      52.142   1.479  17.718  0.00  0.00    +0.000 C 
ATOM     10  N   UNL     1      51.678   0.258  18.114  0.00  0.00    +0.000 N 
ATOM     11  O   UNL     1      53.350   1.665  17.613  0.00  0.00    +0.000 OA
ATOM     12  H   UNL     1      50.715   0.000  18.254  0.00  0.00    +0.000 HD
ATOM     13  H   UNL     1      52.379  -0.446  18.320  0.00  0.00    +0.000 HD
ENDBRANCH   5   9
BRANCH   3  15
ATOM     14  C   UNL     1      46.748   2.767  17.688  0.00  0.00    +0.000 C 
ATOM     15  O   UNL     1      47.594   2.976  16.561  0.00  0.00    +0.000 OA
ENDBRANCH   3  15
ENDBRANCH   1   8
BRANCH   1  16
ATOM     16  C   UNL     1      49.052   6.668  15.678  0.00  0.00    +0.000 C 
BRANCH  16  17
ATOM     17  C   UNL     1      48.436   6.784  14.297  0.00  0.00    +0.000 A 
ATOM     18  C   UNL     1      49.039   7.597  13.330  0.00  0.00    +0.000 A 
ATOM     19  C   UNL     1      48.538   7.613  12.036  0.00  0.00    +0.000 A 
ATOM     20  F   UNL     1      49.129   8.385  11.112  0.00  0.00    +0.000 F 
ATOM     21  C   UNL     1      47.449   6.827  11.670  0.00  0.00    +0.000 A 
ATOM     22  C   UNL     1      46.815   5.995  12.607  0.00  0.00    +0.000 A 
ATOM     23  C   UNL     1      47.335   5.990  13.916  0.00  0.00    +0.000 A 
BRANCH  22  24
ATOM     24  C   UNL     1      45.663   5.147  12.231  0.00  0.00    +0.000 A 
ATOM     25  C   UNL     1      45.026   5.259  10.985  0.00  0.00    +0.000 A 
ATOM     26  C   UNL     1      43.953   4.432  10.653  0.00  0.00    +0.000 A 
ATOM     27  C   UNL     1      43.523   3.506  11.585  0.00  0.00    +0.000 A 
ATOM     28  N   UNL     1      44.086   3.360  12.799  0.00  0.00    +0.000 NA
ATOM     29  C   UNL     1      45.133   4.175  13.087  0.00  0.00    +0.000 A 
ENDBRANCH  22  24
ENDBRANCH  16  17
ENDBRANCH   1  16
TORSDOF 6
ENDMDL
MODEL 9
REMARK VINA RESULT:    -6.364      4.113      5.271
REMARK INTER + INTRA:          -9.774
REMARK INTER:                  -9.121
REMARK INTRA:                  -0.653
REMARK UNBOUND:                -1.178
REMARK  Name = 
REMARK  7 active torsions:
REMARK  status: ('A' for Active; 'I' for Inactive)
REMARK    1  A    between atoms: C_1  and  O_2
REMARK    2  A    between atoms: O_2  and  C_3
REMARK    3  A    between atoms: C_5  and  C_6
REMARK    4  A    between atoms: C_11  and  N_12
REMARK    5  A    between atoms: N_12  and  C_13
REMARK    6  A    between atoms: C_13  and  C_14
REMARK    7  A    between atoms: C_19  and  C_20
REMARK                            x       y       z     vdW  Elec       q    Type
REMARK                         _______ _______ _______ _____ _____    ______ ____
ROOT
ATOM      1  N   UNL     1      47.902   6.364  15.394  0.00  0.00    +0.000 N 
ATOM      2  H   UNL     1      47.253   6.897  15.965  0.00  0.00    +0.000 HD
ENDROOT
BRANCH   1   8
ATOM      3  C   UNL     1      48.818   4.868  17.077  0.00  0.00    +0.000 A 
ATOM      4  C   UNL     1      49.942   4.371  17.743  0.00  0.00    +0.000 A 
ATOM      5  C   UNL     1      51.192   4.956  17.541  0.00  0.00    +0.000 A 
ATOM      6  C   UNL     1      51.258   6.022  16.663  0.00  0.00    +0.000 A 
ATOM      7  N   UNL     1      50.196   6.517  15.985  0.00  0.00    +0.000 NA
ATOM      8  C   UNL     1      48.987   5.943  16.180  0.00  0.00    +0.000 A 
BRANCH   5   9
ATOM      9  C   UNL     1      52.361   4.417  18.276  0.00  0.00    +0.000 C 
ATOM     10  N   UNL     1      52.237   3.244  18.962  0.00  0.00    +0.000 N 
ATOM     11  O   UNL     1      53.436   5.008  18.269  0.00  0.00    +0.000 OA
ATOM     12  H   UNL     1      51.402   2.689  19.053  0.00  0.00    +0.000 HD
ATOM     13  H   UNL     1      53.063   2.921  19.456  0.00  0.00    +0.000 HD
ENDBRANCH   5   9
BRANCH   3  15
ATOM     14  C   UNL     1      47.449   2.975  17.502  0.00  0.00    +0.000 C 
ATOM     15  O   UNL     1      47.546   4.372  17.238  0.00  0.00    +0.000 OA
ENDBRANCH   3  15
ENDBRANCH   1   8
BRANCH   1  16
ATOM     16  C   UNL     1      48.245   7.009  14.135  0.00  0.00    +0.000 C 
BRANCH  16  17
ATOM     17  C   UNL     1      47.035   7.116  13.228  0.00  0.00    +0.000 A 
ATOM     18  C   UNL     1      46.328   8.320  13.147  0.00  0.00    +0.000 A 
ATOM     19  C   UNL     1      45.290   8.448  12.233  0.00  0.00    +0.000 A 
ATOM     20  F   UNL     1      44.625   9.610  12.152  0.00  0.00    +0.000 F 
ATOM     21  C   UNL     1      44.940   7.403  11.383  0.00  0.00    +0.000 A 
ATOM     22  C   UNL     1      45.624   6.178  11.428  0.00  0.00    +0.000 A 
ATOM     23  C   UNL     1      46.674   6.064  12.361  0.00  0.00    +0.000 A 
BRANCH  22  24
ATOM     24  C   UNL     1      45.270   5.061  10.525  0.00  0.00    +0.000 A 
ATOM     25  C   UNL     1      45.653   5.041   9.174  0.00  0.00    +0.000 A 
ATOM     26  C   UNL     1      45.319   3.966   8.351  0.00  0.00    +0.000 A 
ATOM     27  C   UNL     1      44.592   2.923   8.895  0.00  0.00    +0.000 A 
ATOM     28  N   UNL     1      44.188   2.891  10.179  0.00  0.00    +0.000 NA
ATOM     29  C   UNL     1      44.537   3.950  10.954  0.00  0.00    +0.000 A 
ENDBRANCH  22  24
ENDBRANCH  16  17
ENDBRANCH   1  16
TORSDOF 6
ENDMDL
