MODEL 1
REMARK VINA RESULT:    -8.014      0.000      0.000
REMARK INTER + INTRA:         -11.850
REMARK INTER:                 -10.825
REMARK INTRA:                  -1.025
REMARK UNBOUND:                -1.025
REMARK  Name = 
REMARK  7 active torsions:
REMARK  status: ('A' for Active; 'I' for Inactive)
REMARK    1  A    between atoms: C_1  and  O_2
REMARK    2  A    between atoms: O_2  and  C_3
REMARK    3  A    between atoms: C_6  and  C_7
REMARK    4  A    between atoms: C_7  and  C_8
REMARK    5  A    between atoms: C_11  and  C_12
REMARK    6  A    between atoms: C_12  and  N_13
REMARK    7  A    between atoms: C_14  and  C_16
REMARK                            x       y       z     vdW  Elec       q    Type
REMARK                         _______ _______ _______ _____ _____    ______ ____
ROOT
ATOM      1  C   UNL     1      47.229   8.146  13.529  0.00  0.00    +0.000 C 
ENDROOT
BRANCH   1   5
ATOM      2  C   UNL     1      44.717   5.614  11.188  0.00  0.00    +0.000 A 
ATOM      3  C   UNL     1      44.468   6.987  11.213  0.00  0.00    +0.000 A 
ATOM      4  C   UNL     1      45.275   7.822  11.979  0.00  0.00    +0.000 A 
ATOM      5  C   UNL     1      46.310   7.263  12.722  0.00  0.00    +0.000 A 
ATOM      6  N   UNL     1      46.567   5.931  12.721  0.00  0.00    +0.000 NA
ATOM      7  C   UNL     1      45.778   5.145  11.957  0.00  0.00    +0.000 A 
BRANCH   2   8
ATOM      8  C   UNL     1      43.904   4.686  10.330  0.00  0.00    +0.000 C 
BRANCH   8  12
ATOM      9  C   UNL     1      46.217   2.164   7.815  0.00  0.00    +0.000 A 
ATOM     10  C   UNL     1      46.298   3.530   7.603  0.00  0.00    +0.000 A 
ATOM     11  C   UNL     1      45.550   4.373   8.422  0.00  0.00    +0.000 A 
ATOM     12  C   UNL     1      44.741   3.825   9.421  0.00  0.00    +0.000 A 
ATOM     13  C   UNL     1      44.751   2.440   9.562  0.00  0.00    +0.000 A 
ATOM     14  N   UNL     1      45.465   1.600   8.782  0.00  0.00    +0.000 NA
BRANCH   9  16
ATOM     15  C   UNL     1      47.924   2.096   6.224  0.00  0.00    +0.000 C 
ATOM     16  O   UNL     1      46.952   1.362   6.964  0.00  0.00    +0.000 OA
ENDBRANCH   9  16
ENDBRANCH   8  12
ENDBRANCH   2   8
ENDBRANCH   1   5
BRANCH   1  17
ATOM     17  N   UNL     1      47.671   7.505  14.748  0.00  0.00    +0.000 N 
ATOM     18  C   UNL     1      48.934   6.997  14.895  0.00  0.00    +0.000 C 
ATOM     19  O   UNL     1      49.765   7.053  13.991  0.00  0.00    +0.000 OA
ATOM     20  H   UNL     1      46.938   7.239  15.399  0.00  0.00    +0.000 HD
BRANCH  18  21
ATOM     21  C   UNL     1      49.277   6.446  16.214  0.00  0.00    +0.000 A 
ATOM     22  C   UNL     1      50.223   7.094  16.998  0.00  0.00    +0.000 A 
ATOM     23  S   UNL     1      50.475   6.361  18.516  0.00  0.00    +0.000 S 
ATOM     24  C   UNL     1      49.362   5.124  18.164  0.00  0.00    +0.000 A 
ATOM     25  N   UNL     1      49.123   4.127  19.057  0.00  0.00    +0.000 NA
ATOM     26  C   UNL     1      48.284   3.234  18.647  0.00  0.00    +0.000 A 
ATOM     27  N   UNL     1      47.652   3.257  17.431  0.00  0.00    +0.000 N 
ATOM     28  C   UNL     1      47.821   4.274  16.523  0.00  0.00    +0.000 A 
ATOM     29  O   UNL     1      47.169   4.316  15.485  0.00  0.00    +0.000 OA
ATOM     30  C   UNL     1      48.785   5.282  16.915  0.00  0.00    +0.000 A 
ATOM     31  H   UNL     1      46.989   2.540  17.178  0.00  0.00    +0.000 HD
ENDBRANCH  18  21
ENDBRANCH   1  17
TORSDOF 6
ENDMDL
MODEL 2
REMARK VINA RESULT:    -7.673      2.220      3.869
REMARK INTER + INTRA:         -11.389
REMARK INTER:                 -10.341
REMARK INTRA:                  -1.048
REMARK UNBOUND:                -1.025
REMARK  Name = 
REMARK  7 active torsions:
REMARK  status: ('A' for Active; 'I' for Inactive)
REMARK    1  A    between atoms: C_1  and  O_2
REMARK    2  A    between atoms: O_2  and  C_3
REMARK    3  A    between atoms: C_6  and  C_7
REMARK    4  A    between atoms: C_7  and  C_8
REMARK    5  A    between atoms: C_11  and  C_12
REMARK    6  A    between atoms: C_12  and  N_13
REMARK    7  A    between atoms: C_14  and  C_16
REMARK                            x       y       z     vdW  Elec       q    Type
REMARK                         _______ _______ _______ _____ _____    ______ ____
ROOT
ATOM      1  C   UNL     1      46.998   4.955  14.902  0.00  0.00    +0.000 C 
ENDROOT
BRANCH   1   5
ATOM      2  C   UNL     1      44.963   4.096  11.252  0.00  0.00    +0.000 A 
ATOM      3  C   UNL     1      45.241   5.423  11.582  0.00  0.00    +0.000 A 
ATOM      4  C   UNL     1      45.897   5.717  12.773  0.00  0.00    +0.000 A 
ATOM      5  C   UNL     1      46.248   4.674  13.624  0.00  0.00    +0.000 A 
ATOM      6  N   UNL     1      45.982   3.376  13.331  0.00  0.00    +0.000 NA
ATOM      7  C   UNL     1      45.357   3.118  12.160  0.00  0.00    +0.000 A 
BRANCH   2   8
ATOM      8  C   UNL     1      44.306   3.733   9.950  0.00  0.00    +0.000 C 
BRANCH   8  12
ATOM      9  C   UNL     1      46.972   1.997   7.137  0.00  0.00    +0.000 A 
ATOM     10  C   UNL     1      46.796   3.370   7.091  0.00  0.00    +0.000 A 
ATOM     11  C   UNL     1      45.929   3.957   8.010  0.00  0.00    +0.000 A 
ATOM     12  C   UNL     1      45.261   3.155   8.940  0.00  0.00    +0.000 A 
ATOM     13  C   UNL     1      45.528   1.789   8.912  0.00  0.00    +0.000 A 
ATOM     14  N   UNL     1      46.362   1.194   8.032  0.00  0.00    +0.000 NA
BRANCH   9  16
ATOM     15  C   UNL     1      47.971   2.285   5.047  0.00  0.00    +0.000 C 
ATOM     16  O   UNL     1      47.818   1.451   6.192  0.00  0.00    +0.000 OA
ENDBRANCH   9  16
ENDBRANCH   8  12
ENDBRANCH   2   8
ENDBRANCH   1   5
BRANCH   1  17
ATOM     17  N   UNL     1      47.729   6.203  14.843  0.00  0.00    +0.000 N 
ATOM     18  C   UNL     1      48.875   6.416  15.561  0.00  0.00    +0.000 C 
ATOM     19  O   UNL     1      49.346   5.558  16.303  0.00  0.00    +0.000 OA
ATOM     20  H   UNL     1      47.232   6.988  14.434  0.00  0.00    +0.000 HD
BRANCH  18  21
ATOM     21  C   UNL     1      49.561   7.698  15.344  0.00  0.00    +0.000 A 
ATOM     22  C   UNL     1      49.950   8.457  16.441  0.00  0.00    +0.000 A 
ATOM     23  S   UNL     1      50.776   9.890  16.028  0.00  0.00    +0.000 S 
ATOM     24  C   UNL     1      50.604   9.572  14.366  0.00  0.00    +0.000 A 
ATOM     25  N   UNL     1      51.080  10.445  13.437  0.00  0.00    +0.000 NA
ATOM     26  C   UNL     1      50.850  10.099  12.214  0.00  0.00    +0.000 A 
ATOM     27  N   UNL     1      50.201   8.953  11.836  0.00  0.00    +0.000 N 
ATOM     28  C   UNL     1      49.755   8.017  12.738  0.00  0.00    +0.000 A 
ATOM     29  O   UNL     1      49.263   6.957  12.365  0.00  0.00    +0.000 OA
ATOM     30  C   UNL     1      49.950   8.376  14.129  0.00  0.00    +0.000 A 
ATOM     31  H   UNL     1      50.071   8.728  10.861  0.00  0.00    +0.000 HD
ENDBRANCH  18  21
ENDBRANCH   1  17
TORSDOF 6
ENDMDL
MODEL 3
REMARK VINA RESULT:    -7.455      1.867      2.237
REMARK INTER + INTRA:         -11.096
REMARK INTER:                 -10.039
REMARK INTRA:                  -1.057
REMARK UNBOUND:                -1.025
REMARK  Name = 
REMARK  7 active torsions:
REMARK  status: ('A' for Active; 'I' for Inactive)
REMARK    1  A    between atoms: C_1  and  O_2
REMARK    2  A    between atoms: O_2  and  C_3
REMARK    3  A    between atoms: C_6  and  C_7
REMARK    4  A    between atoms: C_7  and  C_8
REMARK    5  A    between atoms: C_11  and  C_12
REMARK    6  A    between atoms: C_12  and  N_13
REMARK    7  A    between atoms: C_14  and  C_16
REMARK                            x       y       z     vdW  Elec       q    Type
REMARK                         _______ _______ _______ _____ _____    ______ ____
ROOT
ATOM      1  C   UNL     1      47.820   7.764  13.833  0.00  0.00    +0.000 C 
ENDROOT
BRANCH   1   5
ATOM      2  C   UNL     1      45.069   5.603  11.391  0.00  0.00    +0.000 A 
ATOM      3  C   UNL     1      45.096   6.996  11.318  0.00  0.00    +0.000 A 
ATOM      4  C   UNL     1      45.983   7.713  12.115  0.00  0.00    +0.000 A 
ATOM      5  C   UNL     1      46.817   7.020  12.987  0.00  0.00    +0.000 A 
ATOM      6  N   UNL     1      46.804   5.666  13.082  0.00  0.00    +0.000 NA
ATOM      7  C   UNL     1      45.944   4.994  12.285  0.00  0.00    +0.000 A 
BRANCH   2   8
ATOM      8  C   UNL     1      44.165   4.789  10.507  0.00  0.00    +0.000 C 
BRANCH   8  12
ATOM      9  C   UNL     1      46.218   2.276   7.768  0.00  0.00    +0.000 A 
ATOM     10  C   UNL     1      46.347   3.644   7.603  0.00  0.00    +0.000 A 
ATOM     11  C   UNL     1      45.684   4.484   8.495  0.00  0.00    +0.000 A 
ATOM     12  C   UNL     1      44.910   3.931   9.519  0.00  0.00    +0.000 A 
ATOM     13  C   UNL     1      44.867   2.543   9.607  0.00  0.00    +0.000 A 
ATOM     14  N   UNL     1      45.498   1.706   8.756  0.00  0.00    +0.000 NA
BRANCH   9  16
ATOM     15  C   UNL     1      47.962   2.143   6.223  0.00  0.00    +0.000 C 
ATOM     16  O   UNL     1      46.867   1.478   6.846  0.00  0.00    +0.000 OA
ENDBRANCH   9  16
ENDBRANCH   8  12
ENDBRANCH   2   8
ENDBRANCH   1   5
BRANCH   1  17
ATOM     17  N   UNL     1      47.867   7.264  15.190  0.00  0.00    +0.000 N 
ATOM     18  C   UNL     1      49.006   6.740  15.740  0.00  0.00    +0.000 C 
ATOM     19  O   UNL     1      50.055   6.659  15.105  0.00  0.00    +0.000 OA
ATOM     20  H   UNL     1      46.968   7.104  15.634  0.00  0.00    +0.000 HD
BRANCH  18  21
ATOM     21  C   UNL     1      48.937   6.345  17.154  0.00  0.00    +0.000 A 
ATOM     22  C   UNL     1      49.390   5.088  17.534  0.00  0.00    +0.000 A 
ATOM     23  S   UNL     1      49.289   4.799  19.210  0.00  0.00    +0.000 S 
ATOM     24  C   UNL     1      48.592   6.326  19.486  0.00  0.00    +0.000 A 
ATOM     25  N   UNL     1      48.228   6.710  20.739  0.00  0.00    +0.000 NA
ATOM     26  C   UNL     1      47.679   7.877  20.800  0.00  0.00    +0.000 A 
ATOM     27  N   UNL     1      47.475   8.701  19.723  0.00  0.00    +0.000 N 
ATOM     28  C   UNL     1      47.879   8.378  18.451  0.00  0.00    +0.000 A 
ATOM     29  O   UNL     1      47.768   9.175  17.526  0.00  0.00    +0.000 OA
ATOM     30  C   UNL     1      48.464   7.058  18.318  0.00  0.00    +0.000 A 
ATOM     31  H   UNL     1      47.059   9.613  19.840  0.00  0.00    +0.000 HD
ENDBRANCH  18  21
ENDBRANCH   1  17
TORSDOF 6
ENDMDL
MODEL 4
REMARK VINA RESULT:    -7.282      2.434      3.603
REMARK INTER + INTRA:         -10.861
REMARK INTER:                  -9.939
REMARK INTRA:                  -0.923
REMARK UNBOUND:                -1.025
REMARK  Name = 
REMARK  7 active torsions:
REMARK  status: ('A' for Active; 'I' for Inactive)
REMARK    1  A    between atoms: C_1  and  O_2
REMARK    2  A    between atoms: O_2  and  C_3
REMARK    3  A    between atoms: C_6  and  C_7
REMARK    4  A    between atoms: C_7  and  C_8
REMARK    5  A    between atoms: C_11  and  C_12
REMARK    6  A    between atoms: C_12  and  N_13
REMARK    7  A    between atoms: C_14  and  C_16
REMARK                            x       y       z     vdW  Elec       q    Type
REMARK                         _______ _______ _______ _____ _____    ______ ____
ROOT
ATOM      1  C   UNL     1      47.537   4.302  15.598  0.00  0.00    +0.000 C 
ENDROOT
BRANCH   1   5
ATOM      2  C   UNL     1      45.460   5.334  12.017  0.00  0.00    +0.000 A 
ATOM      3  C   UNL     1      46.586   6.070  12.388  0.00  0.00    +0.000 A 
ATOM      4  C   UNL     1      47.267   5.749  13.558  0.00  0.00    +0.000 A 
ATOM      5  C   UNL     1      46.796   4.704  14.347  0.00  0.00    +0.000 A 
ATOM      6  N   UNL     1      45.699   3.978  14.012  0.00  0.00    +0.000 NA
ATOM      7  C   UNL     1      45.066   4.302  12.863  0.00  0.00    +0.000 A 
BRANCH   2   8
ATOM      8  C   UNL     1      44.729   5.614  10.734  0.00  0.00    +0.000 C 
BRANCH   8  12
ATOM      9  C   UNL     1      46.097   3.269   7.468  0.00  0.00    +0.000 A 
ATOM     10  C   UNL     1      45.156   2.705   8.313  0.00  0.00    +0.000 A 
ATOM     11  C   UNL     1      44.692   3.461   9.387  0.00  0.00    +0.000 A 
ATOM     12  C   UNL     1      45.187   4.754   9.586  0.00  0.00    +0.000 A 
ATOM     13  C   UNL     1      46.114   5.231   8.664  0.00  0.00    +0.000 A 
ATOM     14  N   UNL     1      46.582   4.519   7.616  0.00  0.00    +0.000 NA
BRANCH   9  16
ATOM     15  C   UNL     1      47.825   1.899   6.704  0.00  0.00    +0.000 C 
ATOM     16  O   UNL     1      46.552   2.477   6.432  0.00  0.00    +0.000 OA
ENDBRANCH   9  16
ENDBRANCH   8  12
ENDBRANCH   2   8
ENDBRANCH   1   5
BRANCH   1  17
ATOM     17  N   UNL     1      47.532   5.350  16.595  0.00  0.00    +0.000 N 
ATOM     18  C   UNL     1      48.649   6.084  16.894  0.00  0.00    +0.000 C 
ATOM     19  O   UNL     1      49.725   5.887  16.332  0.00  0.00    +0.000 OA
ATOM     20  H   UNL     1      46.735   5.360  17.224  0.00  0.00    +0.000 HD
BRANCH  18  21
ATOM     21  C   UNL     1      48.485   7.173  17.867  0.00  0.00    +0.000 A 
ATOM     22  C   UNL     1      48.490   6.880  19.225  0.00  0.00    +0.000 A 
ATOM     23  S   UNL     1      48.337   8.253  20.224  0.00  0.00    +0.000 S 
ATOM     24  C   UNL     1      48.213   9.285  18.878  0.00  0.00    +0.000 A 
ATOM     25  N   UNL     1      48.034  10.624  19.041  0.00  0.00    +0.000 NA
ATOM     26  C   UNL     1      47.920  11.284  17.937  0.00  0.00    +0.000 A 
ATOM     27  N   UNL     1      47.983  10.729  16.685  0.00  0.00    +0.000 N 
ATOM     28  C   UNL     1      48.219   9.392  16.474  0.00  0.00    +0.000 A 
ATOM     29  O   UNL     1      48.365   8.942  15.343  0.00  0.00    +0.000 OA
ATOM     30  C   UNL     1      48.314   8.596  17.682  0.00  0.00    +0.000 A 
ATOM     31  H   UNL     1      47.908  11.303  15.858  0.00  0.00    +0.000 HD
ENDBRANCH  18  21
ENDBRANCH   1  17
TORSDOF 6
ENDMDL
MODEL 5
REMARK VINA RESULT:    -7.110      2.538      3.009
REMARK INTER + INTRA:         -10.630
REMARK INTER:                  -9.818
REMARK INTRA:                  -0.812
REMARK UNBOUND:                -1.025
REMARK  Name = 
REMARK  7 active torsions:
REMARK  status: ('A' for Active; 'I' for Inactive)
REMARK    1  A    between atoms: C_1  and  O_2
REMARK    2  A    between atoms: O_2  and  C_3
REMARK    3  A    between atoms: C_6  and  C_7
REMARK    4  A    between atoms: C_7  and  C_8
REMARK    5  A    between atoms: C_11  and  C_12
REMARK    6  A    between atoms: C_12  and  N_13
REMARK    7  A    between atoms: C_14  and  C_16
REMARK                            x       y       z     vdW  Elec       q    Type
REMARK                         _______ _______ _______ _____ _____    ______ ____
ROOT
ATOM      1  C   UNL     1      47.703   4.390  15.419  0.00  0.00    +0.000 C 
ENDROOT
BRANCH   1   5
ATOM      2  C   UNL     1      45.189   4.532  11.975  0.00  0.00    +0.000 A 
ATOM      3  C   UNL     1      45.602   5.725  12.566  0.00  0.00    +0.000 A 
ATOM      4  C   UNL     1      46.416   5.693  13.695  0.00  0.00    +0.000 A 
ATOM      5  C   UNL     1      46.787   4.460  14.223  0.00  0.00    +0.000 A 
ATOM      6  N   UNL     1      46.391   3.285  13.671  0.00  0.00    +0.000 NA
ATOM      7  C   UNL     1      45.615   3.346  12.567  0.00  0.00    +0.000 A 
BRANCH   2   8
ATOM      8  C   UNL     1      44.356   4.524  10.723  0.00  0.00    +0.000 C 
BRANCH   8  12
ATOM      9  C   UNL     1      46.223   2.528   7.473  0.00  0.00    +0.000 A 
ATOM     10  C   UNL     1      46.345   3.906   7.535  0.00  0.00    +0.000 A 
ATOM     11  C   UNL     1      45.743   4.577   8.597  0.00  0.00    +0.000 A 
ATOM     12  C   UNL     1      45.034   3.852   9.559  0.00  0.00    +0.000 A 
ATOM     13  C   UNL     1      44.993   2.468   9.412  0.00  0.00    +0.000 A 
ATOM     14  N   UNL     1      45.565   1.793   8.393  0.00  0.00    +0.000 NA
BRANCH   9  16
ATOM     15  C   UNL     1      48.207   2.163   6.300  0.00  0.00    +0.000 C 
ATOM     16  O   UNL     1      46.810   1.904   6.389  0.00  0.00    +0.000 OA
ENDBRANCH   9  16
ENDBRANCH   8  12
ENDBRANCH   2   8
ENDBRANCH   1   5
BRANCH   1  17
ATOM     17  N   UNL     1      47.649   5.594  16.219  0.00  0.00    +0.000 N 
ATOM     18  C   UNL     1      48.745   6.389  16.423  0.00  0.00    +0.000 C 
ATOM     19  O   UNL     1      49.843   6.118  15.941  0.00  0.00    +0.000 OA
ATOM     20  H   UNL     1      46.830   5.698  16.810  0.00  0.00    +0.000 HD
BRANCH  18  21
ATOM     21  C   UNL     1      48.532   7.626  17.187  0.00  0.00    +0.000 A 
ATOM     22  C   UNL     1      48.760   8.853  16.575  0.00  0.00    +0.000 A 
ATOM     23  S   UNL     1      48.423  10.193  17.574  0.00  0.00    +0.000 S 
ATOM     24  C   UNL     1      48.004   9.183  18.877  0.00  0.00    +0.000 A 
ATOM     25  N   UNL     1      47.636   9.709  20.077  0.00  0.00    +0.000 NA
ATOM     26  C   UNL     1      47.381   8.831  20.988  0.00  0.00    +0.000 A 
ATOM     27  N   UNL     1      47.445   7.474  20.804  0.00  0.00    +0.000 N 
ATOM     28  C   UNL     1      47.756   6.900  19.595  0.00  0.00    +0.000 A 
ATOM     29  O   UNL     1      47.712   5.684  19.438  0.00  0.00    +0.000 OA
ATOM     30  C   UNL     1      48.094   7.842  18.547  0.00  0.00    +0.000 A 
ATOM     31  H   UNL     1      47.211   6.838  21.552  0.00  0.00    +0.000 HD
ENDBRANCH  18  21
ENDBRANCH   1  17
TORSDOF 6
ENDMDL
MODEL 6
REMARK VINA RESULT:    -7.040      4.423      9.564
REMARK INTER + INTRA:         -10.535
REMARK INTER:                  -9.798
REMARK INTRA:                  -0.736
REMARK UNBOUND:                -1.025
REMARK  Name = 
REMARK  7 active torsions:
REMARK  status: ('A' for Active; 'I' for Inactive)
REMARK    1  A    between atoms: C_1  and  O_2
REMARK    2  A    between atoms: O_2  and  C_3
REMARK    3  A    between atoms: C_6  and  C_7
REMARK    4  A    between atoms: C_7  and  C_8
REMARK    5  A    between atoms: C_11  and  C_12
REMARK    6  A    between atoms: C_12  and  N_13
REMARK    7  A    between atoms: C_14  and  C_16
REMARK                            x       y       z     vdW  Elec       q    Type
REMARK                         _______ _______ _______ _____ _____    ______ ____
ROOT
ATOM      1  C   UNL     1      47.273   3.554  16.788  0.00  0.00    +0.000 C 
ENDROOT
BRANCH   1   5
ATOM      2  C   UNL     1      51.428   4.124  17.573  0.00  0.00    +0.000 A 
ATOM      3  C   UNL     1      50.929   2.827  17.452  0.00  0.00    +0.000 A 
ATOM      4  C   UNL     1      49.575   2.627  17.204  0.00  0.00    +0.000 A 
ATOM      5  C   UNL     1      48.738   3.734  17.099  0.00  0.00    +0.000 A 
ATOM      6  N   UNL     1      49.197   5.005  17.221  0.00  0.00    +0.000 NA
ATOM      7  C   UNL     1      50.520   5.171  17.446  0.00  0.00    +0.000 A 
BRANCH   2   8
ATOM      8  C   UNL     1      52.893   4.384  17.786  0.00  0.00    +0.000 C 
BRANCH   8  12
ATOM      9  C   UNL     1      54.988   1.017  19.305  0.00  0.00    +0.000 A 
ATOM     10  C   UNL     1      54.921   1.164  17.930  0.00  0.00    +0.000 A 
ATOM     11  C   UNL     1      54.242   2.265  17.413  0.00  0.00    +0.000 A 
ATOM     12  C   UNL     1      53.647   3.180  18.286  0.00  0.00    +0.000 A 
ATOM     13  C   UNL     1      53.794   2.949  19.651  0.00  0.00    +0.000 A 
ATOM     14  N   UNL     1      54.445   1.890  20.178  0.00  0.00    +0.000 NA
BRANCH   9  16
ATOM     15  C   UNL     1      55.572  -1.201  18.871  0.00  0.00    +0.000 C 
ATOM     16  O   UNL     1      55.646  -0.103  19.775  0.00  0.00    +0.000 OA
ENDBRANCH   9  16
ENDBRANCH   8  12
ENDBRANCH   2   8
ENDBRANCH   1   5
BRANCH   1  17
ATOM     17  N   UNL     1      46.804   4.502  15.801  0.00  0.00    +0.000 N 
ATOM     18  C   UNL     1      46.774   4.215  14.463  0.00  0.00    +0.000 C 
ATOM     19  O   UNL     1      47.152   3.131  14.023  0.00  0.00    +0.000 OA
ATOM     20  H   UNL     1      46.721   5.464  16.116  0.00  0.00    +0.000 HD
BRANCH  18  21
ATOM     21  C   UNL     1      46.197   5.238  13.579  0.00  0.00    +0.000 A 
ATOM     22  C   UNL     1      46.914   6.398  13.320  0.00  0.00    +0.000 A 
ATOM     23  S   UNL     1      46.134   7.463  12.241  0.00  0.00    +0.000 S 
ATOM     24  C   UNL     1      44.786   6.432  12.116  0.00  0.00    +0.000 A 
ATOM     25  N   UNL     1      43.716   6.775  11.349  0.00  0.00    +0.000 NA
ATOM     26  C   UNL     1      42.749   5.920  11.372  0.00  0.00    +0.000 A 
ATOM     27  N   UNL     1      42.760   4.747  12.082  0.00  0.00    +0.000 N 
ATOM     28  C   UNL     1      43.841   4.336  12.824  0.00  0.00    +0.000 A 
ATOM     29  O   UNL     1      43.858   3.238  13.370  0.00  0.00    +0.000 OA
ATOM     30  C   UNL     1      44.941   5.279  12.866  0.00  0.00    +0.000 A 
ATOM     31  H   UNL     1      41.979   4.109  12.042  0.00  0.00    +0.000 HD
ENDBRANCH  18  21
ENDBRANCH   1  17
TORSDOF 6
ENDMDL
MODEL 7
REMARK VINA RESULT:    -6.978      2.428      3.395
REMARK INTER + INTRA:         -10.451
REMARK INTER:                  -9.782
REMARK INTRA:                  -0.669
REMARK UNBOUND:                -1.025
REMARK  Name = 
REMARK  7 active torsions:
REMARK  status: ('A' for Active; 'I' for Inactive)
REMARK    1  A    between atoms: C_1  and  O_2
REMARK    2  A    between atoms: O_2  and  C_3
REMARK    3  A    between atoms: C_6  and  C_7
REMARK    4  A    between atoms: C_7  and  C_8
REMARK    5  A    between atoms: C_11  and  C_12
REMARK    6  A    between atoms: C_12  and  N_13
REMARK    7  A    between atoms: C_14  and  C_16
REMARK                            x       y       z     vdW  Elec       q    Type
REMARK                         _______ _______ _______ _____ _____    ______ ____
ROOT
ATOM      1  C   UNL     1      46.908   4.789  15.019  0.00  0.00    +0.000 C 
ENDROOT
BRANCH   1   5
ATOM      2  C   UNL     1      44.983   4.271  11.247  0.00  0.00    +0.000 A 
ATOM      3  C   UNL     1      45.374   5.550  11.642  0.00  0.00    +0.000 A 
ATOM      4  C   UNL     1      45.996   5.734  12.874  0.00  0.00    +0.000 A 
ATOM      5  C   UNL     1      46.199   4.631  13.697  0.00  0.00    +0.000 A 
ATOM      6  N   UNL     1      45.820   3.378  13.339  0.00  0.00    +0.000 NA
ATOM      7  C   UNL     1      45.233   3.226  12.131  0.00  0.00    +0.000 A 
BRANCH   2   8
ATOM      8  C   UNL     1      44.359   4.023   9.902  0.00  0.00    +0.000 C 
BRANCH   8  12
ATOM      9  C   UNL     1      47.010   2.200   7.129  0.00  0.00    +0.000 A 
ATOM     10  C   UNL     1      46.298   1.369   7.977  0.00  0.00    +0.000 A 
ATOM     11  C   UNL     1      45.420   1.949   8.890  0.00  0.00    +0.000 A 
ATOM     12  C   UNL     1      45.286   3.340   8.931  0.00  0.00    +0.000 A 
ATOM     13  C   UNL     1      46.033   4.079   8.018  0.00  0.00    +0.000 A 
ATOM     14  N   UNL     1      46.891   3.544   7.125  0.00  0.00    +0.000 NA
BRANCH   9  16
ATOM     15  C   UNL     1      48.005   2.281   5.020  0.00  0.00    +0.000 C 
ATOM     16  O   UNL     1      47.890   1.588   6.258  0.00  0.00    +0.000 OA
ENDBRANCH   9  16
ENDBRANCH   8  12
ENDBRANCH   2   8
ENDBRANCH   1   5
BRANCH   1  17
ATOM     17  N   UNL     1      47.917   5.825  14.976  0.00  0.00    +0.000 N 
ATOM     18  C   UNL     1      48.550   6.279  16.102  0.00  0.00    +0.000 C 
ATOM     19  O   UNL     1      48.290   5.834  17.218  0.00  0.00    +0.000 OA
ATOM     20  H   UNL     1      47.966   6.360  14.115  0.00  0.00    +0.000 HD
BRANCH  18  21
ATOM     21  C   UNL     1      49.613   7.275  15.907  0.00  0.00    +0.000 A 
ATOM     22  C   UNL     1      49.283   8.543  15.442  0.00  0.00    +0.000 A 
ATOM     23  S   UNL     1      50.617   9.597  15.314  0.00  0.00    +0.000 S 
ATOM     24  C   UNL     1      51.692   8.384  15.831  0.00  0.00    +0.000 A 
ATOM     25  N   UNL     1      53.028   8.628  15.919  0.00  0.00    +0.000 NA
ATOM     26  C   UNL     1      53.732   7.611  16.289  0.00  0.00    +0.000 A 
ATOM     27  N   UNL     1      53.220   6.377  16.594  0.00  0.00    +0.000 N 
ATOM     28  C   UNL     1      51.874   6.103  16.574  0.00  0.00    +0.000 A 
ATOM     29  O   UNL     1      51.440   5.017  16.943  0.00  0.00    +0.000 OA
ATOM     30  C   UNL     1      51.040   7.199  16.124  0.00  0.00    +0.000 A 
ATOM     31  H   UNL     1      53.823   5.626  16.899  0.00  0.00    +0.000 HD
ENDBRANCH  18  21
ENDBRANCH   1  17
TORSDOF 6
ENDMDL
MODEL 8
REMARK VINA RESULT:    -6.967      1.960      2.459
REMARK INTER + INTRA:         -10.436
REMARK INTER:                  -9.371
REMARK INTRA:                  -1.065
REMARK UNBOUND:                -1.025
REMARK  Name = 
REMARK  7 active torsions:
REMARK  status: ('A' for Active; 'I' for Inactive)
REMARK    1  A    between atoms: C_1  and  O_2
REMARK    2  A    between atoms: O_2  and  C_3
REMARK    3  A    between atoms: C_6  and  C_7
REMARK    4  A    between atoms: C_7  and  C_8
REMARK    5  A    between atoms: C_11  and  C_12
REMARK    6  A    between atoms: C_12  and  N_13
REMARK    7  A    between atoms: C_14  and  C_16
REMARK                            x       y       z     vdW  Elec       q    Type
REMARK                         _______ _______ _______ _____ _____    ______ ____
ROOT
ATOM      1  C   UNL     1      46.974   8.502  13.544  0.00  0.00    +0.000 C 
ENDROOT
BRANCH   1   5
ATOM      2  C   UNL     1      44.811   5.638  11.237  0.00  0.00    +0.000 A 
ATOM      3  C   UNL     1      45.860   5.207  12.050  0.00  0.00    +0.000 A 
ATOM      4  C   UNL     1      46.578   6.132  12.801  0.00  0.00    +0.000 A 
ATOM      5  C   UNL     1      46.243   7.480  12.710  0.00  0.00    +0.000 A 
ATOM      6  N   UNL     1      45.233   7.925  11.921  0.00  0.00    +0.000 NA
ATOM      7  C   UNL     1      44.542   7.003  11.215  0.00  0.00    +0.000 A 
BRANCH   2   8
ATOM      8  C   UNL     1      43.975   4.665  10.453  0.00  0.00    +0.000 C 
BRANCH   8  12
ATOM      9  C   UNL     1      46.197   2.194   7.809  0.00  0.00    +0.000 A 
ATOM     10  C   UNL     1      46.230   3.561   7.590  0.00  0.00    +0.000 A 
ATOM     11  C   UNL     1      45.512   4.388   8.451  0.00  0.00    +0.000 A 
ATOM     12  C   UNL     1      44.778   3.823   9.498  0.00  0.00    +0.000 A 
ATOM     13  C   UNL     1      44.831   2.439   9.640  0.00  0.00    +0.000 A 
ATOM     14  N   UNL     1      45.518   1.615   8.820  0.00  0.00    +0.000 NA
BRANCH   9  16
ATOM     15  C   UNL     1      47.879   2.146   6.192  0.00  0.00    +0.000 C 
ATOM     16  O   UNL     1      46.900   1.408   6.917  0.00  0.00    +0.000 OA
ENDBRANCH   9  16
ENDBRANCH   8  12
ENDBRANCH   2   8
ENDBRANCH   1   5
BRANCH   1  17
ATOM     17  N   UNL     1      48.291   8.049  13.932  0.00  0.00    +0.000 N 
ATOM     18  C   UNL     1      49.250   8.903  14.409  0.00  0.00    +0.000 C 
ATOM     19  O   UNL     1      49.045  10.109  14.528  0.00  0.00    +0.000 OA
ATOM     20  H   UNL     1      48.551   7.119  13.618  0.00  0.00    +0.000 HD
BRANCH  18  21
ATOM     21  C   UNL     1      50.517   8.298  14.845  0.00  0.00    +0.000 A 
ATOM     22  C   UNL     1      51.716   8.795  14.349  0.00  0.00    +0.000 A 
ATOM     23  S   UNL     1      53.096   8.023  14.984  0.00  0.00    +0.000 S 
ATOM     24  C   UNL     1      52.141   6.964  15.912  0.00  0.00    +0.000 A 
ATOM     25  N   UNL     1      52.716   6.005  16.688  0.00  0.00    +0.000 NA
ATOM     26  C   UNL     1      51.875   5.248  17.310  0.00  0.00    +0.000 A 
ATOM     27  N   UNL     1      50.511   5.372  17.238  0.00  0.00    +0.000 N 
ATOM     28  C   UNL     1      49.890   6.360  16.513  0.00  0.00    +0.000 A 
ATOM     29  O   UNL     1      48.673   6.503  16.545  0.00  0.00    +0.000 OA
ATOM     30  C   UNL     1      50.788   7.213  15.760  0.00  0.00    +0.000 A 
ATOM     31  H   UNL     1      49.907   4.761  17.766  0.00  0.00    +0.000 HD
ENDBRANCH  18  21
ENDBRANCH   1  17
TORSDOF 6
ENDMDL
MODEL 9
REMARK VINA RESULT:    -6.266      3.313      5.065
REMARK INTER + INTRA:          -9.489
REMARK INTER:                  -8.542
REMARK INTRA:                  -0.947
REMARK UNBOUND:                -1.025
REMARK  Name = 
REMARK  7 active torsions:
REMARK  status: ('A' for Active; 'I' for Inactive)
REMARK    1  A    between atoms: C_1  and  O_2
REMARK    2  A    between atoms: O_2  and  C_3
REMARK    3  A    between atoms: C_6  and  C_7
REMARK    4  A    between atoms: C_7  and  C_8
REMARK    5  A    between atoms: C_11  and  C_12
REMARK    6  A    between atoms: C_12  and  N_13
REMARK    7  A    between atoms: C_14  and  C_16
REMARK                            x       y       z     vdW  Elec       q    Type
REMARK                         _______ _______ _______ _____ _____    ______ ____
ROOT
ATOM      1  C   UNL     1      48.196   6.901  14.344  0.00  0.00    +0.000 C 
ENDROOT
BRANCH   1   5
ATOM      2  C   UNL     1      45.285   5.436  11.590  0.00  0.00    +0.000 A 
ATOM      3  C   UNL     1      45.765   6.737  11.446  0.00  0.00    +0.000 A 
ATOM      4  C   UNL     1      46.709   7.230  12.342  0.00  0.00    +0.000 A 
ATOM      5  C   UNL     1      47.142   6.412  13.381  0.00  0.00    +0.000 A 
ATOM      6  N   UNL     1      46.685   5.146  13.548  0.00  0.00    +0.000 NA
ATOM      7  C   UNL     1      45.780   4.688  12.654  0.00  0.00    +0.000 A 
BRANCH   2   8
ATOM      8  C   UNL     1      44.307   4.847  10.611  0.00  0.00    +0.000 C 
BRANCH   8  12
ATOM      9  C   UNL     1      46.171   2.404   7.680  0.00  0.00    +0.000 A 
ATOM     10  C   UNL     1      45.509   1.770   8.717  0.00  0.00    +0.000 A 
ATOM     11  C   UNL     1      44.887   2.555   9.685  0.00  0.00    +0.000 A 
ATOM     12  C   UNL     1      44.953   3.948   9.590  0.00  0.00    +0.000 A 
ATOM     13  C   UNL     1      45.626   4.482   8.495  0.00  0.00    +0.000 A 
ATOM     14  N   UNL     1      46.238   3.744   7.544  0.00  0.00    +0.000 NA
BRANCH   9  16
ATOM     15  C   UNL     1      47.897   2.232   6.119  0.00  0.00    +0.000 C 
ATOM     16  O   UNL     1      46.798   1.590   6.757  0.00  0.00    +0.000 OA
ENDBRANCH   9  16
ENDBRANCH   8  12
ENDBRANCH   2   8
ENDBRANCH   1   5
BRANCH   1  17
ATOM     17  N   UNL     1      49.292   7.557  13.666  0.00  0.00    +0.000 N 
ATOM     18  C   UNL     1      50.390   8.031  14.334  0.00  0.00    +0.000 C 
ATOM     19  O   UNL     1      50.501   7.930  15.553  0.00  0.00    +0.000 OA
ATOM     20  H   UNL     1      49.108   7.859  12.714  0.00  0.00    +0.000 HD
BRANCH  18  21
ATOM     21  C   UNL     1      51.468   8.602  13.514  0.00  0.00    +0.000 A 
ATOM     22  C   UNL     1      52.791   8.346  13.853  0.00  0.00    +0.000 A 
ATOM     23  S   UNL     1      53.921   9.036  12.780  0.00  0.00    +0.000 S 
ATOM     24  C   UNL     1      52.685   9.742  11.848  0.00  0.00    +0.000 A 
ATOM     25  N   UNL     1      52.981  10.512  10.766  0.00  0.00    +0.000 NA
ATOM     26  C   UNL     1      51.951  11.015  10.172  0.00  0.00    +0.000 A 
ATOM     27  N   UNL     1      50.651  10.806  10.553  0.00  0.00    +0.000 N 
ATOM     28  C   UNL     1      50.304   9.991  11.603  0.00  0.00    +0.000 A 
ATOM     29  O   UNL     1      49.130   9.748  11.860  0.00  0.00    +0.000 OA
ATOM     30  C   UNL     1      51.426   9.433  12.332  0.00  0.00    +0.000 A 
ATOM     31  H   UNL     1      49.887  11.210  10.033  0.00  0.00    +0.000 HD
ENDBRANCH  18  21
ENDBRANCH   1  17
TORSDOF 6
ENDMDL
