MODEL 1
REMARK VINA RESULT:    -7.304      0.000      0.000
REMARK INTER + INTRA:         -11.459
REMARK INTER:                 -10.293
REMARK INTRA:                  -1.166
REMARK UNBOUND:                -1.166
REMARK  Name = 
REMARK  8 active torsions:
REMARK  status: ('A' for Active; 'I' for Inactive)
REMARK    1  A    between atoms: C_1  and  O_2
REMARK    2  A    between atoms: O_2  and  C_3
REMARK    3  A    between atoms: C_10  and  C_11
REMARK    4  A    between atoms: N_13  and  C_14
REMARK    5  A    between atoms: C_14  and  C_15
REMARK    6  A    between atoms: C_18  and  N_19
REMARK    7  A    between atoms: N_19  and  C_20
REMARK    8  A    between atoms: C_20  and  C_21
REMARK                            x       y       z     vdW  Elec       q    Type
REMARK                         _______ _______ _______ _____ _____    ______ ____
ROOT
ATOM      1  C   UNL     1      48.091   7.791  13.641  0.00  0.00    +0.000 C 
ENDROOT
BRANCH   1   2
ATOM      2  C   UNL     1      47.082   6.853  13.034  0.00  0.00    +0.000 A 
ATOM      3  C   UNL     1      46.358   7.225  11.897  0.00  0.00    +0.000 A 
ATOM      4  C   UNL     1      45.438   6.343  11.314  0.00  0.00    +0.000 A 
ATOM      5  C   UNL     1      45.190   5.079  11.861  0.00  0.00    +0.000 A 
ATOM      6  C   UNL     1      45.897   4.732  13.021  0.00  0.00    +0.000 A 
ATOM      7  C   UNL     1      46.821   5.607  13.606  0.00  0.00    +0.000 A 
BRANCH   5   8
ATOM      8  N   UNL     1      44.404   4.108  11.253  0.00  0.00    +0.000 N 
ATOM      9  H   UNL     1      43.580   4.481  10.787  0.00  0.00    +0.000 HD
BRANCH   8  10
ATOM     10  C   UNL     1      44.940   2.881  10.682  0.00  0.00    +0.000 C 
BRANCH  10  11
ATOM     11  C   UNL     1      44.413   2.705   9.242  0.00  0.00    +0.000 C 
ATOM     12  C   UNL     1      45.025   1.479   8.534  0.00  0.00    +0.000 C 
ATOM     13  C   UNL     1      46.467   1.709   8.085  0.00  0.00    +0.000 C 
ATOM     14  N   UNL     1      46.599   2.902   7.247  0.00  0.00    +0.000 NA
ATOM     15  F   UNL     1      45.933   2.740   6.054  0.00  0.00    +0.000 F 
ATOM     16  C   UNL     1      46.128   4.096   7.948  0.00  0.00    +0.000 C 
ATOM     17  C   UNL     1      44.670   3.965   8.398  0.00  0.00    +0.000 C 
ENDBRANCH  10  11
ENDBRANCH   8  10
ENDBRANCH   5   8
ENDBRANCH   1   2
BRANCH   1  20
ATOM     18  C   UNL     1      49.106   7.115  15.774  0.00  0.00    +0.000 C 
ATOM     19  O   UNL     1      50.077   6.631  15.197  0.00  0.00    +0.000 OA
ATOM     20  N   UNL     1      48.085   7.698  15.078  0.00  0.00    +0.000 N 
ATOM     21  H   UNL     1      47.259   8.022  15.563  0.00  0.00    +0.000 HD
BRANCH  18  29
ATOM     22  C   UNL     1      48.825   4.586  18.094  0.00  0.00    +0.000 A 
ATOM     23  N   UNL     1      48.673   3.815  19.189  0.00  0.00    +0.000 NA
ATOM     24  C   UNL     1      48.567   4.421  20.374  0.00  0.00    +0.000 A 
ATOM     25  N   UNL     1      48.596   5.729  20.610  0.00  0.00    +0.000 NA
ATOM     26  C   UNL     1      48.749   6.461  19.493  0.00  0.00    +0.000 A 
ATOM     27  S   UNL     1      48.814   8.154  19.605  0.00  0.00    +0.000 S 
ATOM     28  C   UNL     1      48.985   8.308  17.922  0.00  0.00    +0.000 A 
ATOM     29  C   UNL     1      48.998   7.094  17.243  0.00  0.00    +0.000 A 
ATOM     30  C   UNL     1      48.870   5.987  18.190  0.00  0.00    +0.000 A 
BRANCH  22  32
ATOM     31  C   UNL     1      47.819   3.313  16.403  0.00  0.00    +0.000 C 
ATOM     32  O   UNL     1      48.999   3.957  16.877  0.00  0.00    +0.000 OA
ENDBRANCH  22  32
ENDBRANCH  18  29
ENDBRANCH   1  20
TORSDOF 7
ENDMDL
MODEL 2
REMARK VINA RESULT:    -7.206      1.700      2.702
REMARK INTER + INTRA:         -11.322
REMARK INTER:                 -10.070
REMARK INTRA:                  -1.252
REMARK UNBOUND:                -1.166
REMARK  Name = 
REMARK  8 active torsions:
REMARK  status: ('A' for Active; 'I' for Inactive)
REMARK    1  A    between atoms: C_1  and  O_2
REMARK    2  A    between atoms: O_2  and  C_3
REMARK    3  A    between atoms: C_10  and  C_11
REMARK    4  A    between atoms: N_13  and  C_14
REMARK    5  A    between atoms: C_14  and  C_15
REMARK    6  A    between atoms: C_18  and  N_19
REMARK    7  A    between atoms: N_19  and  C_20
REMARK    8  A    between atoms: C_20  and  C_21
REMARK                            x       y       z     vdW  Elec       q    Type
REMARK                         _______ _______ _______ _____ _____    ______ ____
ROOT
ATOM      1  C   UNL     1      48.653   7.009  14.139  0.00  0.00    +0.000 C 
ENDROOT
BRANCH   1   2
ATOM      2  C   UNL     1      47.576   6.330  13.336  0.00  0.00    +0.000 A 
ATOM      3  C   UNL     1      47.110   6.898  12.145  0.00  0.00    +0.000 A 
ATOM      4  C   UNL     1      46.127   6.254  11.382  0.00  0.00    +0.000 A 
ATOM      5  C   UNL     1      45.558   5.044  11.794  0.00  0.00    +0.000 A 
ATOM      6  C   UNL     1      46.008   4.502  13.007  0.00  0.00    +0.000 A 
ATOM      7  C   UNL     1      46.994   5.139  13.772  0.00  0.00    +0.000 A 
BRANCH   5   8
ATOM      8  N   UNL     1      44.691   4.287  11.017  0.00  0.00    +0.000 N 
ATOM      9  H   UNL     1      44.123   4.840  10.379  0.00  0.00    +0.000 HD
BRANCH   8  10
ATOM     10  C   UNL     1      44.983   2.931  10.573  0.00  0.00    +0.000 C 
BRANCH  10  11
ATOM     11  C   UNL     1      44.471   2.736   9.130  0.00  0.00    +0.000 C 
ATOM     12  C   UNL     1      45.041   1.465   8.468  0.00  0.00    +0.000 C 
ATOM     13  C   UNL     1      46.499   1.622   8.037  0.00  0.00    +0.000 C 
ATOM     14  N   UNL     1      46.694   2.784   7.168  0.00  0.00    +0.000 NA
ATOM     15  F   UNL     1      46.040   2.615   5.968  0.00  0.00    +0.000 F 
ATOM     16  C   UNL     1      46.263   4.016   7.826  0.00  0.00    +0.000 C 
ATOM     17  C   UNL     1      44.794   3.959   8.256  0.00  0.00    +0.000 C 
ENDBRANCH  10  11
ENDBRANCH   8  10
ENDBRANCH   5   8
ENDBRANCH   1   2
BRANCH   1  20
ATOM     18  C   UNL     1      49.019   6.515  16.518  0.00  0.00    +0.000 C 
ATOM     19  O   UNL     1      50.033   5.868  16.262  0.00  0.00    +0.000 OA
ATOM     20  N   UNL     1      48.283   7.102  15.528  0.00  0.00    +0.000 N 
ATOM     21  H   UNL     1      47.412   7.564  15.748  0.00  0.00    +0.000 HD
BRANCH  18  29
ATOM     22  C   UNL     1      47.804   9.211  18.282  0.00  0.00    +0.000 A 
ATOM     23  N   UNL     1      47.346  10.084  19.201  0.00  0.00    +0.000 NA
ATOM     24  C   UNL     1      47.131   9.638  20.441  0.00  0.00    +0.000 A 
ATOM     25  N   UNL     1      47.318   8.401  20.890  0.00  0.00    +0.000 NA
ATOM     26  C   UNL     1      47.775   7.562  19.944  0.00  0.00    +0.000 A 
ATOM     27  S   UNL     1      48.066   5.937  20.339  0.00  0.00    +0.000 S 
ATOM     28  C   UNL     1      48.588   5.596  18.758  0.00  0.00    +0.000 A 
ATOM     29  C   UNL     1      48.553   6.693  17.904  0.00  0.00    +0.000 A 
ATOM     30  C   UNL     1      48.052   7.868  18.615  0.00  0.00    +0.000 A 
BRANCH  22  32
ATOM     31  C   UNL     1      49.011  10.616  16.847  0.00  0.00    +0.000 C 
ATOM     32  O   UNL     1      47.965   9.657  16.986  0.00  0.00    +0.000 OA
ENDBRANCH  22  32
ENDBRANCH  18  29
ENDBRANCH   1  20
TORSDOF 7
ENDMDL
MODEL 3
REMARK VINA RESULT:    -6.888      3.105      4.337
REMARK INTER + INTRA:         -10.873
REMARK INTER:                  -9.648
REMARK INTRA:                  -1.225
REMARK UNBOUND:                -1.166
REMARK  Name = 
REMARK  8 active torsions:
REMARK  status: ('A' for Active; 'I' for Inactive)
REMARK    1  A    between atoms: C_1  and  O_2
REMARK    2  A    between atoms: O_2  and  C_3
REMARK    3  A    between atoms: C_10  and  C_11
REMARK    4  A    between atoms: N_13  and  C_14
REMARK    5  A    between atoms: C_14  and  C_15
REMARK    6  A    between atoms: C_18  and  N_19
REMARK    7  A    between atoms: N_19  and  C_20
REMARK    8  A    between atoms: C_20  and  C_21
REMARK                            x       y       z     vdW  Elec       q    Type
REMARK                         _______ _______ _______ _____ _____    ______ ____
ROOT
ATOM      1  C   UNL     1      50.194   7.657  15.974  0.00  0.00    +0.000 C 
ENDROOT
BRANCH   1   2
ATOM      2  C   UNL     1      49.310   7.254  14.823  0.00  0.00    +0.000 A 
ATOM      3  C   UNL     1      48.306   6.297  14.997  0.00  0.00    +0.000 A 
ATOM      4  C   UNL     1      47.465   5.942  13.933  0.00  0.00    +0.000 A 
ATOM      5  C   UNL     1      47.617   6.504  12.661  0.00  0.00    +0.000 A 
ATOM      6  C   UNL     1      48.651   7.436  12.491  0.00  0.00    +0.000 A 
ATOM      7  C   UNL     1      49.492   7.799  13.551  0.00  0.00    +0.000 A 
BRANCH   5   8
ATOM      8  N   UNL     1      46.731   6.303  11.610  0.00  0.00    +0.000 N 
ATOM      9  H   UNL     1      46.985   5.527  11.003  0.00  0.00    +0.000 HD
BRANCH   8  10
ATOM     10  C   UNL     1      45.306   6.587  11.694  0.00  0.00    +0.000 C 
BRANCH  10  11
ATOM     11  C   UNL     1      44.513   5.479  10.970  0.00  0.00    +0.000 C 
ATOM     12  C   UNL     1      43.072   5.339  11.504  0.00  0.00    +0.000 C 
ATOM     13  C   UNL     1      43.006   4.639  12.861  0.00  0.00    +0.000 C 
ATOM     14  N   UNL     1      43.674   3.337  12.842  0.00  0.00    +0.000 NA
ATOM     15  F   UNL     1      43.012   2.458  12.016  0.00  0.00    +0.000 F 
ATOM     16  C   UNL     1      45.076   3.467  12.447  0.00  0.00    +0.000 C 
ATOM     17  C   UNL     1      45.232   4.124  11.073  0.00  0.00    +0.000 C 
ENDBRANCH  10  11
ENDBRANCH   8  10
ENDBRANCH   5   8
ENDBRANCH   1   2
BRANCH   1  20
ATOM     18  C   UNL     1      50.909   5.974  17.614  0.00  0.00    +0.000 C 
ATOM     19  O   UNL     1      50.073   6.362  18.427  0.00  0.00    +0.000 OA
ATOM     20  N   UNL     1      51.034   6.564  16.388  0.00  0.00    +0.000 N 
ATOM     21  H   UNL     1      51.777   6.284  15.763  0.00  0.00    +0.000 HD
BRANCH  18  29
ATOM     22  C   UNL     1      50.663   2.561  17.232  0.00  0.00    +0.000 A 
ATOM     23  N   UNL     1      50.816   1.222  17.234  0.00  0.00    +0.000 NA
ATOM     24  C   UNL     1      51.945   0.718  17.740  0.00  0.00    +0.000 A 
ATOM     25  N   UNL     1      52.964   1.399  18.255  0.00  0.00    +0.000 NA
ATOM     26  C   UNL     1      52.771   2.729  18.235  0.00  0.00    +0.000 A 
ATOM     27  S   UNL     1      53.975   3.757  18.848  0.00  0.00    +0.000 S 
ATOM     28  C   UNL     1      53.043   5.135  18.504  0.00  0.00    +0.000 A 
ATOM     29  C   UNL     1      51.813   4.852  17.921  0.00  0.00    +0.000 A 
ATOM     30  C   UNL     1      51.658   3.408  17.749  0.00  0.00    +0.000 A 
BRANCH  22  32
ATOM     31  C   UNL     1      48.409   3.127  17.538  0.00  0.00    +0.000 C 
ATOM     32  O   UNL     1      49.525   3.083  16.651  0.00  0.00    +0.000 OA
ENDBRANCH  22  32
ENDBRANCH  18  29
ENDBRANCH   1  20
TORSDOF 7
ENDMDL
MODEL 4
REMARK VINA RESULT:    -6.713      1.865      2.476
REMARK INTER + INTRA:         -10.627
REMARK INTER:                 -10.095
REMARK INTRA:                  -0.532
REMARK UNBOUND:                -1.166
REMARK  Name = 
REMARK  8 active torsions:
REMARK  status: ('A' for Active; 'I' for Inactive)
REMARK    1  A    between atoms: C_1  and  O_2
REMARK    2  A    between atoms: O_2  and  C_3
REMARK    3  A    between atoms: C_10  and  C_11
REMARK    4  A    between atoms: N_13  and  C_14
REMARK    5  A    between atoms: C_14  and  C_15
REMARK    6  A    between atoms: C_18  and  N_19
REMARK    7  A    between atoms: N_19  and  C_20
REMARK    8  A    between atoms: C_20  and  C_21
REMARK                            x       y       z     vdW  Elec       q    Type
REMARK                         _______ _______ _______ _____ _____    ______ ____
ROOT
ATOM      1  C   UNL     1      47.882   8.757  14.210  0.00  0.00    +0.000 C 
ENDROOT
BRANCH   1   2
ATOM      2  C   UNL     1      46.870   8.234  13.226  0.00  0.00    +0.000 A 
ATOM      3  C   UNL     1      47.128   7.075  12.487  0.00  0.00    +0.000 A 
ATOM      4  C   UNL     1      46.175   6.572  11.590  0.00  0.00    +0.000 A 
ATOM      5  C   UNL     1      44.953   7.220  11.381  0.00  0.00    +0.000 A 
ATOM      6  C   UNL     1      44.721   8.400  12.102  0.00  0.00    +0.000 A 
ATOM      7  C   UNL     1      45.667   8.907  13.002  0.00  0.00    +0.000 A 
BRANCH   5   8
ATOM      8  N   UNL     1      43.915   6.698  10.621  0.00  0.00    +0.000 N 
ATOM      9  H   UNL     1      43.662   7.273   9.821  0.00  0.00    +0.000 HD
BRANCH   8  10
ATOM     10  C   UNL     1      43.675   5.271  10.460  0.00  0.00    +0.000 C 
BRANCH  10  11
ATOM     11  C   UNL     1      45.021   4.534  10.291  0.00  0.00    +0.000 C 
ATOM     12  C   UNL     1      45.439   4.401   8.812  0.00  0.00    +0.000 C 
ATOM     13  C   UNL     1      44.645   3.333   8.062  0.00  0.00    +0.000 C 
ATOM     14  N   UNL     1      44.706   2.032   8.731  0.00  0.00    +0.000 NA
ATOM     15  F   UNL     1      45.986   1.528   8.708  0.00  0.00    +0.000 F 
ATOM     16  C   UNL     1      44.204   2.117  10.101  0.00  0.00    +0.000 C 
ATOM     17  C   UNL     1      44.976   3.140  10.938  0.00  0.00    +0.000 C 
ENDBRANCH  10  11
ENDBRANCH   8  10
ENDBRANCH   5   8
ENDBRANCH   1   2
BRANCH   1  20
ATOM     18  C   UNL     1      49.237   7.009  15.278  0.00  0.00    +0.000 C 
ATOM     19  O   UNL     1      50.080   7.070  14.385  0.00  0.00    +0.000 OA
ATOM     20  N   UNL     1      48.125   7.802  15.260  0.00  0.00    +0.000 N 
ATOM     21  H   UNL     1      47.405   7.685  15.959  0.00  0.00    +0.000 HD
BRANCH  18  29
ATOM     22  C   UNL     1      47.412   4.309  16.390  0.00  0.00    +0.000 A 
ATOM     23  N   UNL     1      46.879   3.264  17.053  0.00  0.00    +0.000 NA
ATOM     24  C   UNL     1      47.488   2.849  18.167  0.00  0.00    +0.000 A 
ATOM     25  N   UNL     1      48.590   3.355  18.713  0.00  0.00    +0.000 NA
ATOM     26  C   UNL     1      49.089   4.394  18.021  0.00  0.00    +0.000 A 
ATOM     27  S   UNL     1      50.500   5.163  18.570  0.00  0.00    +0.000 S 
ATOM     28  C   UNL     1      50.459   6.268  17.280  0.00  0.00    +0.000 A 
ATOM     29  C   UNL     1      49.388   6.081  16.412  0.00  0.00    +0.000 A 
ATOM     30  C   UNL     1      48.576   4.948  16.852  0.00  0.00    +0.000 A 
BRANCH  22  32
ATOM     31  C   UNL     1      47.109   3.821  14.118  0.00  0.00    +0.000 C 
ATOM     32  O   UNL     1      46.819   4.696  15.205  0.00  0.00    +0.000 OA
ENDBRANCH  22  32
ENDBRANCH  18  29
ENDBRANCH   1  20
TORSDOF 7
ENDMDL
MODEL 5
REMARK VINA RESULT:    -6.648      2.290      2.995
REMARK INTER + INTRA:         -10.535
REMARK INTER:                  -9.289
REMARK INTRA:                  -1.246
REMARK UNBOUND:                -1.166
REMARK  Name = 
REMARK  8 active torsions:
REMARK  status: ('A' for Active; 'I' for Inactive)
REMARK    1  A    between atoms: C_1  and  O_2
REMARK    2  A    between atoms: O_2  and  C_3
REMARK    3  A    between atoms: C_10  and  C_11
REMARK    4  A    between atoms: N_13  and  C_14
REMARK    5  A    between atoms: C_14  and  C_15
REMARK    6  A    between atoms: C_18  and  N_19
REMARK    7  A    between atoms: N_19  and  C_20
REMARK    8  A    between atoms: C_20  and  C_21
REMARK                            x       y       z     vdW  Elec       q    Type
REMARK                         _______ _______ _______ _____ _____    ______ ____
ROOT
ATOM      1  C   UNL     1      48.111   8.973  14.601  0.00  0.00    +0.000 C 
ENDROOT
BRANCH   1   2
ATOM      2  C   UNL     1      47.283   8.364  13.500  0.00  0.00    +0.000 A 
ATOM      3  C   UNL     1      47.798   7.332  12.709  0.00  0.00    +0.000 A 
ATOM      4  C   UNL     1      47.019   6.745  11.703  0.00  0.00    +0.000 A 
ATOM      5  C   UNL     1      45.718   7.186  11.434  0.00  0.00    +0.000 A 
ATOM      6  C   UNL     1      45.226   8.244  12.211  0.00  0.00    +0.000 A 
ATOM      7  C   UNL     1      45.998   8.833  13.221  0.00  0.00    +0.000 A 
BRANCH   5   8
ATOM      8  N   UNL     1      44.848   6.555  10.555  0.00  0.00    +0.000 N 
ATOM      9  H   UNL     1      44.204   7.189  10.089  0.00  0.00    +0.000 HD
BRANCH   8  10
ATOM     10  C   UNL     1      45.194   5.357   9.803  0.00  0.00    +0.000 C 
BRANCH  10  11
ATOM     11  C   UNL     1      44.137   4.261  10.060  0.00  0.00    +0.000 C 
ATOM     12  C   UNL     1      43.114   4.668  11.139  0.00  0.00    +0.000 C 
ATOM     13  C   UNL     1      43.682   4.594  12.556  0.00  0.00    +0.000 C 
ATOM     14  N   UNL     1      44.244   3.275  12.855  0.00  0.00    +0.000 NA
ATOM     15  F   UNL     1      43.259   2.315  12.873  0.00  0.00    +0.000 F 
ATOM     16  C   UNL     1      45.299   2.922  11.906  0.00  0.00    +0.000 C 
ATOM     17  C   UNL     1      44.801   2.932  10.458  0.00  0.00    +0.000 C 
ENDBRANCH  10  11
ENDBRANCH   8  10
ENDBRANCH   5   8
ENDBRANCH   1   2
BRANCH   1  20
ATOM     18  C   UNL     1      49.356   8.067  16.515  0.00  0.00    +0.000 C 
ATOM     19  O   UNL     1      50.283   8.850  16.326  0.00  0.00    +0.000 OA
ATOM     20  N   UNL     1      48.255   8.061  15.706  0.00  0.00    +0.000 N 
ATOM     21  H   UNL     1      47.538   7.360  15.828  0.00  0.00    +0.000 HD
BRANCH  18  29
ATOM     22  C   UNL     1      48.379   4.779  16.819  0.00  0.00    +0.000 A 
ATOM     23  N   UNL     1      48.055   3.534  17.220  0.00  0.00    +0.000 NA
ATOM     24  C   UNL     1      48.290   3.202  18.493  0.00  0.00    +0.000 A 
ATOM     25  N   UNL     1      48.821   3.974  19.436  0.00  0.00    +0.000 NA
ATOM     26  C   UNL     1      49.128   5.206  18.995  0.00  0.00    +0.000 A 
ATOM     27  S   UNL     1      49.822   6.328  20.064  0.00  0.00    +0.000 S 
ATOM     28  C   UNL     1      49.882   7.519  18.854  0.00  0.00    +0.000 A 
ATOM     29  C   UNL     1      49.384   7.099  17.625  0.00  0.00    +0.000 A 
ATOM     30  C   UNL     1      48.945   5.707  17.709  0.00  0.00    +0.000 A 
BRANCH  22  32
ATOM     31  C   UNL     1      47.039   4.493  14.918  0.00  0.00    +0.000 C 
ATOM     32  O   UNL     1      48.195   5.100  15.489  0.00  0.00    +0.000 OA
ENDBRANCH  22  32
ENDBRANCH  18  29
ENDBRANCH   1  20
TORSDOF 7
ENDMDL
MODEL 6
REMARK VINA RESULT:    -6.493      5.539      7.994
REMARK INTER + INTRA:         -10.316
REMARK INTER:                  -9.255
REMARK INTRA:                  -1.061
REMARK UNBOUND:                -1.166
REMARK  Name = 
REMARK  8 active torsions:
REMARK  status: ('A' for Active; 'I' for Inactive)
REMARK    1  A    between atoms: C_1  and  O_2
REMARK    2  A    between atoms: O_2  and  C_3
REMARK    3  A    between atoms: C_10  and  C_11
REMARK    4  A    between atoms: N_13  and  C_14
REMARK    5  A    between atoms: C_14  and  C_15
REMARK    6  A    between atoms: C_18  and  N_19
REMARK    7  A    between atoms: N_19  and  C_20
REMARK    8  A    between atoms: C_20  and  C_21
REMARK                            x       y       z     vdW  Elec       q    Type
REMARK                         _______ _______ _______ _____ _____    ______ ____
ROOT
ATOM      1  C   UNL     1      50.599   8.830  11.318  0.00  0.00    +0.000 C 
ENDROOT
BRANCH   1   2
ATOM      2  C   UNL     1      49.368   8.254  11.966  0.00  0.00    +0.000 A 
ATOM      3  C   UNL     1      48.134   8.900  11.851  0.00  0.00    +0.000 A 
ATOM      4  C   UNL     1      46.982   8.351  12.431  0.00  0.00    +0.000 A 
ATOM      5  C   UNL     1      47.029   7.161  13.166  0.00  0.00    +0.000 A 
ATOM      6  C   UNL     1      48.279   6.541  13.303  0.00  0.00    +0.000 A 
ATOM      7  C   UNL     1      49.434   7.083  12.722  0.00  0.00    +0.000 A 
BRANCH   5   8
ATOM      8  N   UNL     1      45.907   6.493  13.639  0.00  0.00    +0.000 N 
ATOM      9  H   UNL     1      45.562   6.849  14.527  0.00  0.00    +0.000 HD
BRANCH   8  10
ATOM     10  C   UNL     1      44.898   5.902  12.771  0.00  0.00    +0.000 C 
BRANCH  10  11
ATOM     11  C   UNL     1      45.550   4.829  11.874  0.00  0.00    +0.000 C 
ATOM     12  C   UNL     1      45.153   4.978  10.391  0.00  0.00    +0.000 C 
ATOM     13  C   UNL     1      43.730   4.499  10.104  0.00  0.00    +0.000 C 
ATOM     14  N   UNL     1      43.512   3.124  10.557  0.00  0.00    +0.000 NA
ATOM     15  F   UNL     1      44.281   2.241   9.833  0.00  0.00    +0.000 F 
ATOM     16  C   UNL     1      43.774   2.990  11.988  0.00  0.00    +0.000 C 
ATOM     17  C   UNL     1      45.199   3.412  12.358  0.00  0.00    +0.000 C 
ENDBRANCH  10  11
ENDBRANCH   8  10
ENDBRANCH   5   8
ENDBRANCH   1   2
BRANCH   1  20
ATOM     18  C   UNL     1      52.537   8.003  10.054  0.00  0.00    +0.000 C 
ATOM     19  O   UNL     1      52.700   9.099   9.521  0.00  0.00    +0.000 OA
ATOM     20  N   UNL     1      51.522   7.790  10.944  0.00  0.00    +0.000 N 
ATOM     21  H   UNL     1      51.356   6.864  11.313  0.00  0.00    +0.000 HD
BRANCH  18  29
ATOM     22  C   UNL     1      53.054   6.052   7.264  0.00  0.00    +0.000 A 
ATOM     23  N   UNL     1      53.424   5.132   6.352  0.00  0.00    +0.000 NA
ATOM     24  C   UNL     1      54.336   4.224   6.709  0.00  0.00    +0.000 A 
ATOM     25  N   UNL     1      54.941   4.118   7.888  0.00  0.00    +0.000 NA
ATOM     26  C   UNL     1      54.543   5.053   8.768  0.00  0.00    +0.000 A 
ATOM     27  S   UNL     1      55.217   5.073  10.327  0.00  0.00    +0.000 S 
ATOM     28  C   UNL     1      54.268   6.411  10.772  0.00  0.00    +0.000 A 
ATOM     29  C   UNL     1      53.430   6.869   9.762  0.00  0.00    +0.000 A 
ATOM     30  C   UNL     1      53.607   6.060   8.556  0.00  0.00    +0.000 A 
BRANCH  22  32
ATOM     31  C   UNL     1      52.782   8.138   6.232  0.00  0.00    +0.000 C 
ATOM     32  O   UNL     1      52.159   7.029   6.875  0.00  0.00    +0.000 OA
ENDBRANCH  22  32
ENDBRANCH  18  29
ENDBRANCH   1  20
TORSDOF 7
ENDMDL
MODEL 7
REMARK VINA RESULT:    -6.379      5.800      8.348
REMARK INTER + INTRA:         -10.156
REMARK INTER:                  -9.019
REMARK INTRA:                  -1.138
REMARK UNBOUND:                -1.166
REMARK  Name = 
REMARK  8 active torsions:
REMARK  status: ('A' for Active; 'I' for Inactive)
REMARK    1  A    between atoms: C_1  and  O_2
REMARK    2  A    between atoms: O_2  and  C_3
REMARK    3  A    between atoms: C_10  and  C_11
REMARK    4  A    between atoms: N_13  and  C_14
REMARK    5  A    between atoms: C_14  and  C_15
REMARK    6  A    between atoms: C_18  and  N_19
REMARK    7  A    between atoms: N_19  and  C_20
REMARK    8  A    between atoms: C_20  and  C_21
REMARK                            x       y       z     vdW  Elec       q    Type
REMARK                         _______ _______ _______ _____ _____    ______ ____
ROOT
ATOM      1  C   UNL     1      51.500   8.678  11.899  0.00  0.00    +0.000 C 
ENDROOT
BRANCH   1   2
ATOM      2  C   UNL     1      50.205   8.064  12.362  0.00  0.00    +0.000 A 
ATOM      3  C   UNL     1      50.013   7.738  13.708  0.00  0.00    +0.000 A 
ATOM      4  C   UNL     1      48.798   7.192  14.146  0.00  0.00    +0.000 A 
ATOM      5  C   UNL     1      47.752   6.927  13.254  0.00  0.00    +0.000 A 
ATOM      6  C   UNL     1      47.971   7.226  11.902  0.00  0.00    +0.000 A 
ATOM      7  C   UNL     1      49.181   7.776  11.459  0.00  0.00    +0.000 A 
BRANCH   5   8
ATOM      8  N   UNL     1      46.481   6.525  13.643  0.00  0.00    +0.000 N 
ATOM      9  H   UNL     1      46.141   6.994  14.480  0.00  0.00    +0.000 HD
BRANCH   8  10
ATOM     10  C   UNL     1      45.451   6.100  12.707  0.00  0.00    +0.000 C 
BRANCH  10  11
ATOM     11  C   UNL     1      44.803   4.791  13.208  0.00  0.00    +0.000 C 
ATOM     12  C   UNL     1      45.368   3.543  12.499  0.00  0.00    +0.000 C 
ATOM     13  C   UNL     1      44.839   3.377  11.075  0.00  0.00    +0.000 C 
ATOM     14  N   UNL     1      43.376   3.375  11.028  0.00  0.00    +0.000 NA
ATOM     15  F   UNL     1      42.866   2.270  11.670  0.00  0.00    +0.000 F 
ATOM     16  C   UNL     1      42.826   4.606  11.594  0.00  0.00    +0.000 C 
ATOM     17  C   UNL     1      43.275   4.829  13.041  0.00  0.00    +0.000 C 
ENDBRANCH  10  11
ENDBRANCH   8  10
ENDBRANCH   5   8
ENDBRANCH   1   2
BRANCH   1  20
ATOM     18  C   UNL     1      52.709   8.971   9.781  0.00  0.00    +0.000 C 
ATOM     19  O   UNL     1      53.312   9.947  10.221  0.00  0.00    +0.000 OA
ATOM     20  N   UNL     1      51.797   8.297  10.542  0.00  0.00    +0.000 N 
ATOM     21  H   UNL     1      51.255   7.545  10.140  0.00  0.00    +0.000 HD
BRANCH  18  29
ATOM     22  C   UNL     1      53.510   5.886   8.477  0.00  0.00    +0.000 A 
ATOM     23  N   UNL     1      53.853   4.827   7.717  0.00  0.00    +0.000 NA
ATOM     24  C   UNL     1      53.982   5.013   6.401  0.00  0.00    +0.000 A 
ATOM     25  N   UNL     1      53.805   6.148   5.732  0.00  0.00    +0.000 NA
ATOM     26  C   UNL     1      53.465   7.178   6.525  0.00  0.00    +0.000 A 
ATOM     27  S   UNL     1      53.193   8.707   5.839  0.00  0.00    +0.000 S 
ATOM     28  C   UNL     1      52.860   9.385   7.361  0.00  0.00    +0.000 A 
ATOM     29  C   UNL     1      52.944   8.479   8.412  0.00  0.00    +0.000 A 
ATOM     30  C   UNL     1      53.294   7.152   7.906  0.00  0.00    +0.000 A 
BRANCH  22  32
ATOM     31  C   UNL     1      54.525   5.705  10.581  0.00  0.00    +0.000 C 
ATOM     32  O   UNL     1      53.315   5.680   9.828  0.00  0.00    +0.000 OA
ENDBRANCH  22  32
ENDBRANCH  18  29
ENDBRANCH   1  20
TORSDOF 7
ENDMDL
MODEL 8
REMARK VINA RESULT:    -6.290      3.841      5.698
REMARK INTER + INTRA:         -10.030
REMARK INTER:                  -8.869
REMARK INTRA:                  -1.161
REMARK UNBOUND:                -1.166
REMARK  Name = 
REMARK  8 active torsions:
REMARK  status: ('A' for Active; 'I' for Inactive)
REMARK    1  A    between atoms: C_1  and  O_2
REMARK    2  A    between atoms: O_2  and  C_3
REMARK    3  A    between atoms: C_10  and  C_11
REMARK    4  A    between atoms: N_13  and  C_14
REMARK    5  A    between atoms: C_14  and  C_15
REMARK    6  A    between atoms: C_18  and  N_19
REMARK    7  A    between atoms: N_19  and  C_20
REMARK    8  A    between atoms: C_20  and  C_21
REMARK                            x       y       z     vdW  Elec       q    Type
REMARK                         _______ _______ _______ _____ _____    ______ ____
ROOT
ATOM      1  C   UNL     1      48.385   3.191  18.048  0.00  0.00    +0.000 C 
ENDROOT
BRANCH   1   2
ATOM      2  C   UNL     1      48.147   4.142  16.905  0.00  0.00    +0.000 A 
ATOM      3  C   UNL     1      48.727   5.415  16.906  0.00  0.00    +0.000 A 
ATOM      4  C   UNL     1      48.529   6.292  15.830  0.00  0.00    +0.000 A 
ATOM      5  C   UNL     1      47.727   5.940  14.739  0.00  0.00    +0.000 A 
ATOM      6  C   UNL     1      47.124   4.675  14.767  0.00  0.00    +0.000 A 
ATOM      7  C   UNL     1      47.321   3.792  15.837  0.00  0.00    +0.000 A 
BRANCH   5   8
ATOM      8  N   UNL     1      47.609   6.701  13.583  0.00  0.00    +0.000 N 
ATOM      9  H   UNL     1      48.130   7.574  13.612  0.00  0.00    +0.000 HD
BRANCH   8  10
ATOM     10  C   UNL     1      47.431   6.127  12.257  0.00  0.00    +0.000 C 
BRANCH  10  11
ATOM     11  C   UNL     1      46.217   6.783  11.566  0.00  0.00    +0.000 C 
ATOM     12  C   UNL     1      45.037   7.008  12.534  0.00  0.00    +0.000 C 
ATOM     13  C   UNL     1      44.282   5.720  12.861  0.00  0.00    +0.000 C 
ATOM     14  N   UNL     1      43.830   5.026  11.653  0.00  0.00    +0.000 NA
ATOM     15  F   UNL     1      42.884   5.769  10.985  0.00  0.00    +0.000 F 
ATOM     16  C   UNL     1      44.954   4.703  10.776  0.00  0.00    +0.000 C 
ATOM     17  C   UNL     1      45.743   5.948  10.365  0.00  0.00    +0.000 C 
ENDBRANCH  10  11
ENDBRANCH   8  10
ENDBRANCH   5   8
ENDBRANCH   1   2
BRANCH   1  20
ATOM     18  C   UNL     1      50.494   2.170  17.308  0.00  0.00    +0.000 C 
ATOM     19  O   UNL     1      49.951   1.687  16.317  0.00  0.00    +0.000 OA
ATOM     20  N   UNL     1      49.789   2.917  18.210  0.00  0.00    +0.000 N 
ATOM     21  H   UNL     1      50.233   3.241  19.058  0.00  0.00    +0.000 HD
BRANCH  18  29
ATOM     22  C   UNL     1      53.144   4.325  17.741  0.00  0.00    +0.000 A 
ATOM     23  N   UNL     1      54.340   4.924  17.905  0.00  0.00    +0.000 NA
ATOM     24  C   UNL     1      55.416   4.148  18.065  0.00  0.00    +0.000 A 
ATOM     25  N   UNL     1      55.448   2.819  18.084  0.00  0.00    +0.000 NA
ATOM     26  C   UNL     1      54.236   2.262  17.917  0.00  0.00    +0.000 A 
ATOM     27  S   UNL     1      54.086   0.570  17.921  0.00  0.00    +0.000 S 
ATOM     28  C   UNL     1      52.410   0.669  17.661  0.00  0.00    +0.000 A 
ATOM     29  C   UNL     1      51.930   1.971  17.569  0.00  0.00    +0.000 A 
ATOM     30  C   UNL     1      53.026   2.924  17.736  0.00  0.00    +0.000 A 
BRANCH  22  32
ATOM     31  C   UNL     1      52.204   6.235  16.762  0.00  0.00    +0.000 C 
ATOM     32  O   UNL     1      52.025   5.127  17.640  0.00  0.00    +0.000 OA
ENDBRANCH  22  32
ENDBRANCH  18  29
ENDBRANCH   1  20
TORSDOF 7
ENDMDL
MODEL 9
REMARK VINA RESULT:    -6.281      1.601      2.242
REMARK INTER + INTRA:         -10.017
REMARK INTER:                  -9.490
REMARK INTRA:                  -0.527
REMARK UNBOUND:                -1.166
REMARK  Name = 
REMARK  8 active torsions:
REMARK  status: ('A' for Active; 'I' for Inactive)
REMARK    1  A    between atoms: C_1  and  O_2
REMARK    2  A    between atoms: O_2  and  C_3
REMARK    3  A    between atoms: C_10  and  C_11
REMARK    4  A    between atoms: N_13  and  C_14
REMARK    5  A    between atoms: C_14  and  C_15
REMARK    6  A    between atoms: C_18  and  N_19
REMARK    7  A    between atoms: N_19  and  C_20
REMARK    8  A    between atoms: C_20  and  C_21
REMARK                            x       y       z     vdW  Elec       q    Type
REMARK                         _______ _______ _______ _____ _____    ______ ____
ROOT
ATOM      1  C   UNL     1      47.758   9.032  13.820  0.00  0.00    +0.000 C 
ENDROOT
BRANCH   1   2
ATOM      2  C   UNL     1      46.670   8.303  13.078  0.00  0.00    +0.000 A 
ATOM      3  C   UNL     1      46.460   6.936  13.282  0.00  0.00    +0.000 A 
ATOM      4  C   UNL     1      45.430   6.262  12.612  0.00  0.00    +0.000 A 
ATOM      5  C   UNL     1      44.598   6.920  11.700  0.00  0.00    +0.000 A 
ATOM      6  C   UNL     1      44.841   8.283  11.478  0.00  0.00    +0.000 A 
ATOM      7  C   UNL     1      45.866   8.963  12.147  0.00  0.00    +0.000 A 
BRANCH   5   8
ATOM      8  N   UNL     1      43.475   6.347  11.117  0.00  0.00    +0.000 N 
ATOM      9  H   UNL     1      42.852   7.021  10.678  0.00  0.00    +0.000 HD
BRANCH   8  10
ATOM     10  C   UNL     1      43.465   5.015  10.528  0.00  0.00    +0.000 C 
BRANCH  10  11
ATOM     11  C   UNL     1      44.914   4.507  10.372  0.00  0.00    +0.000 C 
ATOM     12  C   UNL     1      45.466   4.722   8.948  0.00  0.00    +0.000 C 
ATOM     13  C   UNL     1      44.901   3.729   7.934  0.00  0.00    +0.000 C 
ATOM     14  N   UNL     1      45.099   2.340   8.355  0.00  0.00    +0.000 NA
ATOM     15  F   UNL     1      46.437   2.021   8.378  0.00  0.00    +0.000 F 
ATOM     16  C   UNL     1      44.480   2.089   9.655  0.00  0.00    +0.000 C 
ATOM     17  C   UNL     1      45.023   3.018  10.744  0.00  0.00    +0.000 C 
ENDBRANCH  10  11
ENDBRANCH   8  10
ENDBRANCH   5   8
ENDBRANCH   1   2
BRANCH   1  20
ATOM     18  C   UNL     1      48.541   8.726  16.129  0.00  0.00    +0.000 C 
ATOM     19  O   UNL     1      49.688   8.506  15.746  0.00  0.00    +0.000 OA
ATOM     20  N   UNL     1      47.535   8.987  15.242  0.00  0.00    +0.000 N 
ATOM     21  H   UNL     1      46.584   9.089  15.568  0.00  0.00    +0.000 HD
BRANCH  18  29
ATOM     22  C   UNL     1      48.222   6.235  18.485  0.00  0.00    +0.000 A 
ATOM     23  N   UNL     1      47.997   5.476  19.575  0.00  0.00    +0.000 NA
ATOM     24  C   UNL     1      47.617   6.088  20.700  0.00  0.00    +0.000 A 
ATOM     25  N   UNL     1      47.432   7.392  20.878  0.00  0.00    +0.000 NA
ATOM     26  C   UNL     1      47.667   8.113  19.768  0.00  0.00    +0.000 A 
ATOM     27  S   UNL     1      47.486   9.800  19.813  0.00  0.00    +0.000 S 
ATOM     28  C   UNL     1      47.910   9.939  18.173  0.00  0.00    +0.000 A 
ATOM     29  C   UNL     1      48.197   8.723  17.561  0.00  0.00    +0.000 A 
ATOM     30  C   UNL     1      48.063   7.631  18.524  0.00  0.00    +0.000 A 
BRANCH  22  32
ATOM     31  C   UNL     1      48.434   4.205  17.334  0.00  0.00    +0.000 C 
ATOM     32  O   UNL     1      48.676   5.609  17.341  0.00  0.00    +0.000 OA
ENDBRANCH  22  32
ENDBRANCH  18  29
ENDBRANCH   1  20
TORSDOF 7
ENDMDL
