MODEL 1
REMARK VINA RESULT:    -7.305      0.000      0.000
REMARK INTER + INTRA:          -9.906
REMARK INTER:                  -9.227
REMARK INTRA:                  -0.678
REMARK UNBOUND:                -0.678
REMARK  Name = 
REMARK  5 active torsions:
REMARK  status: ('A' for Active; 'I' for Inactive)
REMARK    1  A    between atoms: N_1  and  C_2
REMARK    2  A    between atoms: C_2  and  C_3
REMARK    3  A    between atoms: C_6  and  O_7
REMARK    4  A    between atoms: O_7  and  C_8
REMARK    5  A    between atoms: C_8  and  C_9
REMARK                            x       y       z     vdW  Elec       q    Type
REMARK                         _______ _______ _______ _____ _____    ______ ____
ROOT
ATOM      1  C   UNL     1      46.582   2.230   7.587  0.00  0.00    +0.000 A 
ATOM      2  C   UNL     1      45.774   1.424   8.402  0.00  0.00    +0.000 A 
ATOM      3  C   UNL     1      44.749   1.991   9.167  0.00  0.00    +0.000 A 
ATOM      4  C   UNL     1      44.529   3.365   9.133  0.00  0.00    +0.000 A 
ATOM      5  C   UNL     1      45.296   4.163   8.281  0.00  0.00    +0.000 A 
ATOM      6  C   UNL     1      46.323   3.601   7.527  0.00  0.00    +0.000 A 
ENDROOT
BRANCH   1   7
ATOM      7  C   UNL     1      47.716   1.644   6.790  0.00  0.00    +0.000 C 
BRANCH   7   8
ATOM      8  N   UNL     1      48.643   2.672   6.341  0.00  0.00    +0.000 NA
ATOM      9  H   UNL     1      48.114   3.452   5.957  0.00  0.00    +0.000 HD
ATOM     10  H   UNL     1      49.200   2.296   5.576  0.00  0.00    +0.000 HD
ENDBRANCH   7   8
ENDBRANCH   1   7
BRANCH   4  11
ATOM     11  O   UNL     1      43.556   3.848   9.970  0.00  0.00    +0.000 OA
BRANCH  11  12
ATOM     12  C   UNL     1      43.632   3.351  11.309  0.00  0.00    +0.000 C 
BRANCH  12  13
ATOM     13  C   UNL     1      44.738   4.052  12.055  0.00  0.00    +0.000 A 
ATOM     14  C   UNL     1      44.740   5.453  12.135  0.00  0.00    +0.000 A 
ATOM     15  C   UNL     1      45.725   6.115  12.869  0.00  0.00    +0.000 A 
ATOM     16  C   UNL     1      46.699   5.372  13.523  0.00  0.00    +0.000 A 
ATOM     17  F   UNL     1      47.642   6.006  14.232  0.00  0.00    +0.000 F 
ATOM     18  C   UNL     1      46.712   3.983  13.461  0.00  0.00    +0.000 A 
ATOM     19  C   UNL     1      45.726   3.318  12.728  0.00  0.00    +0.000 A 
ENDBRANCH  12  13
ENDBRANCH  11  12
ENDBRANCH   4  11
TORSDOF 5
ENDMDL
MODEL 2
REMARK VINA RESULT:    -7.191      3.368      6.131
REMARK INTER + INTRA:          -9.762
REMARK INTER:                  -9.216
REMARK INTRA:                  -0.545
REMARK UNBOUND:                -0.678
REMARK  Name = 
REMARK  5 active torsions:
REMARK  status: ('A' for Active; 'I' for Inactive)
REMARK    1  A    between atoms: N_1  and  C_2
REMARK    2  A    between atoms: C_2  and  C_3
REMARK    3  A    between atoms: C_6  and  O_7
REMARK    4  A    between atoms: O_7  and  C_8
REMARK    5  A    between atoms: C_8  and  C_9
REMARK                            x       y       z     vdW  Elec       q    Type
REMARK                         _______ _______ _______ _____ _____    ______ ____
ROOT
ATOM      1  C   UNL     1      46.597   5.560  12.895  0.00  0.00    +0.000 A 
ATOM      2  C   UNL     1      46.424   6.214  11.666  0.00  0.00    +0.000 A 
ATOM      3  C   UNL     1      45.583   5.673  10.687  0.00  0.00    +0.000 A 
ATOM      4  C   UNL     1      44.919   4.472  10.921  0.00  0.00    +0.000 A 
ATOM      5  C   UNL     1      45.047   3.847  12.164  0.00  0.00    +0.000 A 
ATOM      6  C   UNL     1      45.891   4.379  13.134  0.00  0.00    +0.000 A 
ENDROOT
BRANCH   1   7
ATOM      7  C   UNL     1      47.529   6.104  13.943  0.00  0.00    +0.000 C 
BRANCH   7   8
ATOM      8  N   UNL     1      47.626   5.213  15.088  0.00  0.00    +0.000 NA
ATOM      9  H   UNL     1      48.051   4.336  14.793  0.00  0.00    +0.000 HD
ATOM     10  H   UNL     1      46.685   4.986  15.405  0.00  0.00    +0.000 HD
ENDBRANCH   7   8
ENDBRANCH   1   7
BRANCH   4  11
ATOM     11  O   UNL     1      44.176   3.973   9.881  0.00  0.00    +0.000 OA
BRANCH  11  12
ATOM     12  C   UNL     1      44.429   2.597   9.586  0.00  0.00    +0.000 C 
BRANCH  12  13
ATOM     13  C   UNL     1      45.451   2.488   8.485  0.00  0.00    +0.000 A 
ATOM     14  C   UNL     1      46.167   1.292   8.319  0.00  0.00    +0.000 A 
ATOM     15  C   UNL     1      47.077   1.154   7.270  0.00  0.00    +0.000 A 
ATOM     16  C   UNL     1      47.262   2.212   6.390  0.00  0.00    +0.000 A 
ATOM     17  F   UNL     1      48.131   2.080   5.379  0.00  0.00    +0.000 F 
ATOM     18  C   UNL     1      46.559   3.403   6.533  0.00  0.00    +0.000 A 
ATOM     19  C   UNL     1      45.647   3.542   7.581  0.00  0.00    +0.000 A 
ENDBRANCH  12  13
ENDBRANCH  11  12
ENDBRANCH   4  11
TORSDOF 5
ENDMDL
MODEL 3
REMARK VINA RESULT:    -7.149      3.366      6.010
REMARK INTER + INTRA:          -9.709
REMARK INTER:                  -9.191
REMARK INTRA:                  -0.518
REMARK UNBOUND:                -0.678
REMARK  Name = 
REMARK  5 active torsions:
REMARK  status: ('A' for Active; 'I' for Inactive)
REMARK    1  A    between atoms: N_1  and  C_2
REMARK    2  A    between atoms: C_2  and  C_3
REMARK    3  A    between atoms: C_6  and  O_7
REMARK    4  A    between atoms: O_7  and  C_8
REMARK    5  A    between atoms: C_8  and  C_9
REMARK                            x       y       z     vdW  Elec       q    Type
REMARK                         _______ _______ _______ _____ _____    ______ ____
ROOT
ATOM      1  C   UNL     1      46.716   5.719  12.853  0.00  0.00    +0.000 A 
ATOM      2  C   UNL     1      46.498   6.393  11.642  0.00  0.00    +0.000 A 
ATOM      3  C   UNL     1      45.642   5.854  10.676  0.00  0.00    +0.000 A 
ATOM      4  C   UNL     1      45.008   4.636  10.903  0.00  0.00    +0.000 A 
ATOM      5  C   UNL     1      45.181   3.990  12.129  0.00  0.00    +0.000 A 
ATOM      6  C   UNL     1      46.040   4.520  13.088  0.00  0.00    +0.000 A 
ENDROOT
BRANCH   1   7
ATOM      7  C   UNL     1      47.665   6.261  13.887  0.00  0.00    +0.000 C 
BRANCH   7   8
ATOM      8  N   UNL     1      47.716   5.411  15.066  0.00  0.00    +0.000 NA
ATOM      9  H   UNL     1      47.994   4.472  14.788  0.00  0.00    +0.000 HD
ATOM     10  H   UNL     1      46.776   5.332  15.451  0.00  0.00    +0.000 HD
ENDBRANCH   7   8
ENDBRANCH   1   7
BRANCH   4  11
ATOM     11  O   UNL     1      44.247   4.143   9.874  0.00  0.00    +0.000 OA
BRANCH  11  12
ATOM     12  C   UNL     1      44.416   2.742   9.638  0.00  0.00    +0.000 C 
BRANCH  12  13
ATOM     13  C   UNL     1      45.389   2.525   8.509  0.00  0.00    +0.000 A 
ATOM     14  C   UNL     1      45.687   3.584   7.636  0.00  0.00    +0.000 A 
ATOM     15  C   UNL     1      46.627   3.417   6.619  0.00  0.00    +0.000 A 
ATOM     16  C   UNL     1      47.270   2.193   6.484  0.00  0.00    +0.000 A 
ATOM     17  F   UNL     1      48.177   2.032   5.512  0.00  0.00    +0.000 F 
ATOM     18  C   UNL     1      46.994   1.133   7.341  0.00  0.00    +0.000 A 
ATOM     19  C   UNL     1      46.053   1.299   8.360  0.00  0.00    +0.000 A 
ENDBRANCH  12  13
ENDBRANCH  11  12
ENDBRANCH   4  11
TORSDOF 5
ENDMDL
MODEL 4
REMARK VINA RESULT:    -6.677      3.598      6.313
REMARK INTER + INTRA:          -9.111
REMARK INTER:                  -8.569
REMARK INTRA:                  -0.542
REMARK UNBOUND:                -0.678
REMARK  Name = 
REMARK  5 active torsions:
REMARK  status: ('A' for Active; 'I' for Inactive)
REMARK    1  A    between atoms: N_1  and  C_2
REMARK    2  A    between atoms: C_2  and  C_3
REMARK    3  A    between atoms: C_6  and  O_7
REMARK    4  A    between atoms: O_7  and  C_8
REMARK    5  A    between atoms: C_8  and  C_9
REMARK                            x       y       z     vdW  Elec       q    Type
REMARK                         _______ _______ _______ _____ _____    ______ ____
ROOT
ATOM      1  C   UNL     1      45.446   7.644  12.245  0.00  0.00    +0.000 A 
ATOM      2  C   UNL     1      44.342   7.229  11.487  0.00  0.00    +0.000 A 
ATOM      3  C   UNL     1      44.161   5.877  11.178  0.00  0.00    +0.000 A 
ATOM      4  C   UNL     1      45.084   4.930  11.613  0.00  0.00    +0.000 A 
ATOM      5  C   UNL     1      46.155   5.333  12.414  0.00  0.00    +0.000 A 
ATOM      6  C   UNL     1      46.342   6.680  12.713  0.00  0.00    +0.000 A 
ENDROOT
BRANCH   1   7
ATOM      7  C   UNL     1      45.680   9.098  12.552  0.00  0.00    +0.000 C 
BRANCH   7   8
ATOM      8  N   UNL     1      44.430   9.838  12.627  0.00  0.00    +0.000 NA
ATOM      9  H   UNL     1      44.564  10.660  13.213  0.00  0.00    +0.000 HD
ATOM     10  H   UNL     1      43.737   9.259  13.097  0.00  0.00    +0.000 HD
ENDBRANCH   7   8
ENDBRANCH   1   7
BRANCH   4  11
ATOM     11  O   UNL     1      44.873   3.639  11.202  0.00  0.00    +0.000 OA
BRANCH  11  12
ATOM     12  C   UNL     1      44.246   3.524   9.922  0.00  0.00    +0.000 C 
BRANCH  12  13
ATOM     13  C   UNL     1      45.264   3.130   8.884  0.00  0.00    +0.000 A 
ATOM     14  C   UNL     1      45.664   1.789   8.779  0.00  0.00    +0.000 A 
ATOM     15  C   UNL     1      46.564   1.397   7.788  0.00  0.00    +0.000 A 
ATOM     16  C   UNL     1      47.055   2.348   6.902  0.00  0.00    +0.000 A 
ATOM     17  F   UNL     1      47.914   1.972   5.946  0.00  0.00    +0.000 F 
ATOM     18  C   UNL     1      46.667   3.681   6.985  0.00  0.00    +0.000 A 
ATOM     19  C   UNL     1      45.766   4.075   7.976  0.00  0.00    +0.000 A 
ENDBRANCH  12  13
ENDBRANCH  11  12
ENDBRANCH   4  11
TORSDOF 5
ENDMDL
MODEL 5
REMARK VINA RESULT:    -5.996      3.468      6.163
REMARK INTER + INTRA:          -8.252
REMARK INTER:                  -7.630
REMARK INTRA:                  -0.623
REMARK UNBOUND:                -0.678
REMARK  Name = 
REMARK  5 active torsions:
REMARK  status: ('A' for Active; 'I' for Inactive)
REMARK    1  A    between atoms: N_1  and  C_2
REMARK    2  A    between atoms: C_2  and  C_3
REMARK    3  A    between atoms: C_6  and  O_7
REMARK    4  A    between atoms: O_7  and  C_8
REMARK    5  A    between atoms: C_8  and  C_9
REMARK                            x       y       z     vdW  Elec       q    Type
REMARK                         _______ _______ _______ _____ _____    ______ ____
ROOT
ATOM      1  C   UNL     1      47.032   7.141  13.238  0.00  0.00    +0.000 A 
ATOM      2  C   UNL     1      45.840   7.537  12.612  0.00  0.00    +0.000 A 
ATOM      3  C   UNL     1      44.892   6.584  12.225  0.00  0.00    +0.000 A 
ATOM      4  C   UNL     1      45.130   5.230  12.447  0.00  0.00    +0.000 A 
ATOM      5  C   UNL     1      46.290   4.838  13.119  0.00  0.00    +0.000 A 
ATOM      6  C   UNL     1      47.239   5.784  13.495  0.00  0.00    +0.000 A 
ENDROOT
BRANCH   1   7
ATOM      7  C   UNL     1      48.082   8.148  13.623  0.00  0.00    +0.000 C 
BRANCH   7   8
ATOM      8  N   UNL     1      47.488   9.407  14.044  0.00  0.00    +0.000 NA
ATOM      9  H   UNL     1      46.978   9.262  14.913  0.00  0.00    +0.000 HD
ATOM     10  H   UNL     1      46.798   9.690  13.349  0.00  0.00    +0.000 HD
ENDBRANCH   7   8
ENDBRANCH   1   7
BRANCH   4  11
ATOM     11  O   UNL     1      44.185   4.358  11.969  0.00  0.00    +0.000 OA
BRANCH  11  12
ATOM     12  C   UNL     1      43.770   4.622  10.626  0.00  0.00    +0.000 C 
BRANCH  12  13
ATOM     13  C   UNL     1      44.643   3.864   9.660  0.00  0.00    +0.000 A 
ATOM     14  C   UNL     1      44.610   2.461   9.648  0.00  0.00    +0.000 A 
ATOM     15  C   UNL     1      45.371   1.745   8.723  0.00  0.00    +0.000 A 
ATOM     16  C   UNL     1      46.156   2.437   7.810  0.00  0.00    +0.000 A 
ATOM     17  F   UNL     1      46.882   1.752   6.917  0.00  0.00    +0.000 F 
ATOM     18  C   UNL     1      46.199   3.827   7.801  0.00  0.00    +0.000 A 
ATOM     19  C   UNL     1      45.438   4.545   8.726  0.00  0.00    +0.000 A 
ENDBRANCH  12  13
ENDBRANCH  11  12
ENDBRANCH   4  11
TORSDOF 5
ENDMDL
MODEL 6
REMARK VINA RESULT:    -5.152      4.528      6.397
REMARK INTER + INTRA:          -7.185
REMARK INTER:                  -6.816
REMARK INTRA:                  -0.369
REMARK UNBOUND:                -0.678
REMARK  Name = 
REMARK  5 active torsions:
REMARK  status: ('A' for Active; 'I' for Inactive)
REMARK    1  A    between atoms: N_1  and  C_2
REMARK    2  A    between atoms: C_2  and  C_3
REMARK    3  A    between atoms: C_6  and  O_7
REMARK    4  A    between atoms: O_7  and  C_8
REMARK    5  A    between atoms: C_8  and  C_9
REMARK                            x       y       z     vdW  Elec       q    Type
REMARK                         _______ _______ _______ _____ _____    ______ ____
ROOT
ATOM      1  C   UNL     1      45.618   5.556  11.987  0.00  0.00    +0.000 A 
ATOM      2  C   UNL     1      45.381   4.175  12.052  0.00  0.00    +0.000 A 
ATOM      3  C   UNL     1      46.003   3.394  13.031  0.00  0.00    +0.000 A 
ATOM      4  C   UNL     1      46.874   3.980  13.945  0.00  0.00    +0.000 A 
ATOM      5  C   UNL     1      47.069   5.363  13.917  0.00  0.00    +0.000 A 
ATOM      6  C   UNL     1      46.458   6.140  12.937  0.00  0.00    +0.000 A 
ENDROOT
BRANCH   1   7
ATOM      7  C   UNL     1      44.990   6.405  10.915  0.00  0.00    +0.000 C 
BRANCH   7   8
ATOM      8  N   UNL     1      43.814   7.106  11.406  0.00  0.00    +0.000 NA
ATOM      9  H   UNL     1      44.093   7.745  12.148  0.00  0.00    +0.000 HD
ATOM     10  H   UNL     1      43.185   6.427  11.831  0.00  0.00    +0.000 HD
ENDBRANCH   7   8
ENDBRANCH   1   7
BRANCH   4  11
ATOM     11  O   UNL     1      47.500   3.132  14.823  0.00  0.00    +0.000 OA
BRANCH  11  12
ATOM     12  C   UNL     1      47.518   3.596  16.176  0.00  0.00    +0.000 C 
BRANCH  12  13
ATOM     13  C   UNL     1      48.880   3.369  16.778  0.00  0.00    +0.000 A 
ATOM     14  C   UNL     1      49.473   2.099  16.695  0.00  0.00    +0.000 A 
ATOM     15  C   UNL     1      50.756   1.885  17.198  0.00  0.00    +0.000 A 
ATOM     16  C   UNL     1      51.444   2.944  17.776  0.00  0.00    +0.000 A 
ATOM     17  F   UNL     1      52.678   2.743  18.255  0.00  0.00    +0.000 F 
ATOM     18  C   UNL     1      50.877   4.212  17.864  0.00  0.00    +0.000 A 
ATOM     19  C   UNL     1      49.593   4.428  17.360  0.00  0.00    +0.000 A 
ENDBRANCH  12  13
ENDBRANCH  11  12
ENDBRANCH   4  11
TORSDOF 5
ENDMDL
MODEL 7
REMARK VINA RESULT:    -5.105      4.961      7.674
REMARK INTER + INTRA:          -7.126
REMARK INTER:                  -6.804
REMARK INTRA:                  -0.322
REMARK UNBOUND:                -0.678
REMARK  Name = 
REMARK  5 active torsions:
REMARK  status: ('A' for Active; 'I' for Inactive)
REMARK    1  A    between atoms: N_1  and  C_2
REMARK    2  A    between atoms: C_2  and  C_3
REMARK    3  A    between atoms: C_6  and  O_7
REMARK    4  A    between atoms: O_7  and  C_8
REMARK    5  A    between atoms: C_8  and  C_9
REMARK                            x       y       z     vdW  Elec       q    Type
REMARK                         _______ _______ _______ _____ _____    ______ ____
ROOT
ATOM      1  C   UNL     1      48.789   4.407  18.062  0.00  0.00    +0.000 A 
ATOM      2  C   UNL     1      48.288   3.155  17.676  0.00  0.00    +0.000 A 
ATOM      3  C   UNL     1      47.663   2.993  16.435  0.00  0.00    +0.000 A 
ATOM      4  C   UNL     1      47.523   4.078  15.575  0.00  0.00    +0.000 A 
ATOM      5  C   UNL     1      48.069   5.313  15.933  0.00  0.00    +0.000 A 
ATOM      6  C   UNL     1      48.681   5.478  17.172  0.00  0.00    +0.000 A 
ENDROOT
BRANCH   1   7
ATOM      7  C   UNL     1      49.426   4.611  19.410  0.00  0.00    +0.000 C 
BRANCH   7   8
ATOM      8  N   UNL     1      48.670   3.954  20.464  0.00  0.00    +0.000 NA
ATOM      9  H   UNL     1      49.312   3.654  21.196  0.00  0.00    +0.000 HD
ATOM     10  H   UNL     1      48.249   3.108  20.084  0.00  0.00    +0.000 HD
ENDBRANCH   7   8
ENDBRANCH   1   7
BRANCH   4  11
ATOM     11  O   UNL     1      46.831   3.850  14.412  0.00  0.00    +0.000 OA
BRANCH  11  12
ATOM     12  C   UNL     1      46.130   4.992  13.912  0.00  0.00    +0.000 C 
BRANCH  12  13
ATOM     13  C   UNL     1      45.682   4.740  12.496  0.00  0.00    +0.000 A 
ATOM     14  C   UNL     1      45.811   5.756  11.536  0.00  0.00    +0.000 A 
ATOM     15  C   UNL     1      45.453   5.522  10.208  0.00  0.00    +0.000 A 
ATOM     16  C   UNL     1      44.973   4.270   9.846  0.00  0.00    +0.000 A 
ATOM     17  F   UNL     1      44.634   4.041   8.571  0.00  0.00    +0.000 F 
ATOM     18  C   UNL     1      44.844   3.247  10.780  0.00  0.00    +0.000 A 
ATOM     19  C   UNL     1      45.202   3.480  12.109  0.00  0.00    +0.000 A 
ENDBRANCH  12  13
ENDBRANCH  11  12
ENDBRANCH   4  11
TORSDOF 5
ENDMDL
MODEL 8
REMARK VINA RESULT:    -5.054      2.848      4.323
REMARK INTER + INTRA:          -7.062
REMARK INTER:                  -6.659
REMARK INTRA:                  -0.404
REMARK UNBOUND:                -0.678
REMARK  Name = 
REMARK  5 active torsions:
REMARK  status: ('A' for Active; 'I' for Inactive)
REMARK    1  A    between atoms: N_1  and  C_2
REMARK    2  A    between atoms: C_2  and  C_3
REMARK    3  A    between atoms: C_6  and  O_7
REMARK    4  A    between atoms: O_7  and  C_8
REMARK    5  A    between atoms: C_8  and  C_9
REMARK                            x       y       z     vdW  Elec       q    Type
REMARK                         _______ _______ _______ _____ _____    ______ ____
ROOT
ATOM      1  C   UNL     1      45.100   4.226   9.600  0.00  0.00    +0.000 A 
ATOM      2  C   UNL     1      45.630   5.470   9.972  0.00  0.00    +0.000 A 
ATOM      3  C   UNL     1      45.872   5.763  11.318  0.00  0.00    +0.000 A 
ATOM      4  C   UNL     1      45.577   4.824  12.303  0.00  0.00    +0.000 A 
ATOM      5  C   UNL     1      45.100   3.565  11.931  0.00  0.00    +0.000 A 
ATOM      6  C   UNL     1      44.850   3.276  10.592  0.00  0.00    +0.000 A 
ENDROOT
BRANCH   1   7
ATOM      7  C   UNL     1      44.793   3.908   8.161  0.00  0.00    +0.000 C 
BRANCH   7   8
ATOM      8  N   UNL     1      45.979   4.011   7.325  0.00  0.00    +0.000 NA
ATOM      9  H   UNL     1      46.775   3.622   7.827  0.00  0.00    +0.000 HD
ATOM     10  H   UNL     1      46.186   4.997   7.174  0.00  0.00    +0.000 HD
ENDBRANCH   7   8
ENDBRANCH   1   7
BRANCH   4  11
ATOM     11  O   UNL     1      45.773   5.220  13.602  0.00  0.00    +0.000 OA
BRANCH  11  12
ATOM     12  C   UNL     1      47.069   5.767  13.860  0.00  0.00    +0.000 C 
BRANCH  12  13
ATOM     13  C   UNL     1      47.604   5.228  15.161  0.00  0.00    +0.000 A 
ATOM     14  C   UNL     1      47.201   3.959  15.604  0.00  0.00    +0.000 A 
ATOM     15  C   UNL     1      47.729   3.421  16.778  0.00  0.00    +0.000 A 
ATOM     16  C   UNL     1      48.663   4.153  17.500  0.00  0.00    +0.000 A 
ATOM     17  F   UNL     1      49.176   3.636  18.624  0.00  0.00    +0.000 F 
ATOM     18  C   UNL     1      49.080   5.410  17.075  0.00  0.00    +0.000 A 
ATOM     19  C   UNL     1      48.553   5.950  15.900  0.00  0.00    +0.000 A 
ENDBRANCH  12  13
ENDBRANCH  11  12
ENDBRANCH   4  11
TORSDOF 5
ENDMDL
MODEL 9
REMARK VINA RESULT:    -4.964      3.836      6.213
REMARK INTER + INTRA:          -6.949
REMARK INTER:                  -6.460
REMARK INTRA:                  -0.488
REMARK UNBOUND:                -0.678
REMARK  Name = 
REMARK  5 active torsions:
REMARK  status: ('A' for Active; 'I' for Inactive)
REMARK    1  A    between atoms: N_1  and  C_2
REMARK    2  A    between atoms: C_2  and  C_3
REMARK    3  A    between atoms: C_6  and  O_7
REMARK    4  A    between atoms: O_7  and  C_8
REMARK    5  A    between atoms: C_8  and  C_9
REMARK                            x       y       z     vdW  Elec       q    Type
REMARK                         _______ _______ _______ _____ _____    ______ ____
ROOT
ATOM      1  C   UNL     1      49.402   7.782  12.920  0.00  0.00    +0.000 A 
ATOM      2  C   UNL     1      48.863   6.977  13.935  0.00  0.00    +0.000 A 
ATOM      3  C   UNL     1      47.587   6.421  13.798  0.00  0.00    +0.000 A 
ATOM      4  C   UNL     1      46.834   6.672  12.654  0.00  0.00    +0.000 A 
ATOM      5  C   UNL     1      47.389   7.428  11.619  0.00  0.00    +0.000 A 
ATOM      6  C   UNL     1      48.655   7.990  11.759  0.00  0.00    +0.000 A 
ENDROOT
BRANCH   1   7
ATOM      7  C   UNL     1      50.755   8.423  13.068  0.00  0.00    +0.000 C 
BRANCH   7   8
ATOM      8  N   UNL     1      51.562   7.746  14.072  0.00  0.00    +0.000 NA
ATOM      9  H   UNL     1      52.547   7.902  13.868  0.00  0.00    +0.000 HD
ATOM     10  H   UNL     1      51.405   6.743  13.993  0.00  0.00    +0.000 HD
ENDBRANCH   7   8
ENDBRANCH   1   7
BRANCH   4  11
ATOM     11  O   UNL     1      45.565   6.153  12.633  0.00  0.00    +0.000 OA
BRANCH  11  12
ATOM     12  C   UNL     1      44.894   6.291  11.378  0.00  0.00    +0.000 C 
BRANCH  12  13
ATOM     13  C   UNL     1      44.828   4.957  10.681  0.00  0.00    +0.000 A 
ATOM     14  C   UNL     1      44.217   3.869  11.323  0.00  0.00    +0.000 A 
ATOM     15  C   UNL     1      44.097   2.641  10.670  0.00  0.00    +0.000 A 
ATOM     16  C   UNL     1      44.585   2.510   9.377  0.00  0.00    +0.000 A 
ATOM     17  F   UNL     1      44.466   1.334   8.746  0.00  0.00    +0.000 F 
ATOM     18  C   UNL     1      45.189   3.577   8.720  0.00  0.00    +0.000 A 
ATOM     19  C   UNL     1      45.309   4.807   9.372  0.00  0.00    +0.000 A 
ENDBRANCH  12  13
ENDBRANCH  11  12
ENDBRANCH   4  11
TORSDOF 5
ENDMDL
