MODEL 1
REMARK VINA RESULT:    -8.988      0.000      0.000
REMARK INTER + INTRA:         -11.889
REMARK INTER:                 -11.090
REMARK INTRA:                  -0.799
REMARK UNBOUND:                -0.799
REMARK  Name = 
REMARK  4 active torsions:
REMARK  status: ('A' for Active; 'I' for Inactive)
REMARK    1  A    between atoms: C_2  and  C_4
REMARK    2  A    between atoms: N_8  and  C_9
REMARK    3  A    between atoms: C_9  and  C_10
REMARK    4  A    between atoms: C_14  and  C_15
REMARK                            x       y       z     vdW  Elec       q    Type
REMARK                         _______ _______ _______ _____ _____    ______ ____
ROOT
ATOM      1  C   UNL     1      46.350   2.250   7.692  0.00  0.00    +0.000 A 
ATOM      2  C   UNL     1      45.612   1.804   8.782  0.00  0.00    +0.000 A 
ATOM      3  C   UNL     1      44.769   2.700   9.445  0.00  0.00    +0.000 A 
ATOM      4  C   UNL     1      44.684   4.020   9.014  0.00  0.00    +0.000 A 
ATOM      5  N   UNL     1      43.833   4.950   9.560  0.00  0.00    +0.000 N 
ATOM      6  N   UNL     1      45.402   4.462   7.961  0.00  0.00    +0.000 NA
ATOM      7  C   UNL     1      46.222   3.582   7.331  0.00  0.00    +0.000 A 
ATOM      8  H   UNL     1      43.994   5.852   9.124  0.00  0.00    +0.000 HD
ENDROOT
BRANCH   1  10
ATOM      9  N   UNL     1      48.337   1.961   6.324  0.00  0.00    +0.000 N 
ATOM     10  C   UNL     1      47.261   1.377   6.925  0.00  0.00    +0.000 C 
ATOM     11  O   UNL     1      47.079   0.166   6.863  0.00  0.00    +0.000 OA
ATOM     12  H   UNL     1      49.006   1.330   5.898  0.00  0.00    +0.000 HD
ATOM     13  H   UNL     1      48.662   2.886   6.570  0.00  0.00    +0.000 HD
ENDBRANCH   1  10
BRANCH   5  14
ATOM     14  C   UNL     1      43.493   4.988  10.966  0.00  0.00    +0.000 C 
BRANCH  14  15
ATOM     15  C   UNL     1      44.651   5.215  11.915  0.00  0.00    +0.000 A 
ATOM     16  C   UNL     1      45.023   4.335  12.937  0.00  0.00    +0.000 A 
ATOM     17  C   UNL     1      46.136   4.613  13.732  0.00  0.00    +0.000 A 
ATOM     18  C   UNL     1      46.897   5.764  13.511  0.00  0.00    +0.000 A 
ATOM     19  C   UNL     1      46.571   6.669  12.489  0.00  0.00    +0.000 A 
ATOM     20  C   UNL     1      45.427   6.378  11.721  0.00  0.00    +0.000 A 
BRANCH  19  21
ATOM     21  C   UNL     1      47.415   7.847  12.187  0.00  0.00    +0.000 A 
ATOM     22  C   UNL     1      48.761   7.736  11.808  0.00  0.00    +0.000 A 
ATOM     23  C   UNL     1      49.537   8.876  11.587  0.00  0.00    +0.000 A 
ATOM     24  C   UNL     1      48.941  10.115  11.738  0.00  0.00    +0.000 A 
ATOM     25  N   UNL     1      47.652  10.282  12.090  0.00  0.00    +0.000 NA
ATOM     26  C   UNL     1      46.931   9.153  12.309  0.00  0.00    +0.000 A 
ENDBRANCH  19  21
ENDBRANCH  14  15
ENDBRANCH   5  14
TORSDOF 4
ENDMDL
MODEL 2
REMARK VINA RESULT:    -8.503      2.081      3.556
REMARK INTER + INTRA:         -11.290
REMARK INTER:                 -10.513
REMARK INTRA:                  -0.777
REMARK UNBOUND:                -0.799
REMARK  Name = 
REMARK  4 active torsions:
REMARK  status: ('A' for Active; 'I' for Inactive)
REMARK    1  A    between atoms: C_2  and  C_4
REMARK    2  A    between atoms: N_8  and  C_9
REMARK    3  A    between atoms: C_9  and  C_10
REMARK    4  A    between atoms: C_14  and  C_15
REMARK                            x       y       z     vdW  Elec       q    Type
REMARK                         _______ _______ _______ _____ _____    ______ ____
ROOT
ATOM      1  C   UNL     1      46.364   2.228   7.620  0.00  0.00    +0.000 A 
ATOM      2  C   UNL     1      45.729   1.822   8.788  0.00  0.00    +0.000 A 
ATOM      3  C   UNL     1      44.911   2.728   9.468  0.00  0.00    +0.000 A 
ATOM      4  C   UNL     1      44.749   4.019   8.975  0.00  0.00    +0.000 A 
ATOM      5  N   UNL     1      43.912   4.953   9.538  0.00  0.00    +0.000 N 
ATOM      6  N   UNL     1      45.367   4.423   7.847  0.00  0.00    +0.000 NA
ATOM      7  C   UNL     1      46.165   3.533   7.200  0.00  0.00    +0.000 A 
ATOM      8  H   UNL     1      44.009   5.834   9.043  0.00  0.00    +0.000 HD
ENDROOT
BRANCH   1  10
ATOM      9  N   UNL     1      48.272   1.917   6.148  0.00  0.00    +0.000 N 
ATOM     10  C   UNL     1      47.241   1.340   6.831  0.00  0.00    +0.000 C 
ATOM     11  O   UNL     1      47.073   0.126   6.821  0.00  0.00    +0.000 OA
ATOM     12  H   UNL     1      48.924   1.279   5.705  0.00  0.00    +0.000 HD
ATOM     13  H   UNL     1      48.598   2.853   6.344  0.00  0.00    +0.000 HD
ENDBRANCH   1  10
BRANCH   5  14
ATOM     14  C   UNL     1      43.682   5.060  10.962  0.00  0.00    +0.000 C 
BRANCH  14  15
ATOM     15  C   UNL     1      44.760   5.778  11.749  0.00  0.00    +0.000 A 
ATOM     16  C   UNL     1      45.063   7.138  11.620  0.00  0.00    +0.000 A 
ATOM     17  C   UNL     1      46.046   7.717  12.423  0.00  0.00    +0.000 A 
ATOM     18  C   UNL     1      46.731   6.951  13.371  0.00  0.00    +0.000 A 
ATOM     19  C   UNL     1      46.451   5.587  13.546  0.00  0.00    +0.000 A 
ATOM     20  C   UNL     1      45.474   5.023  12.703  0.00  0.00    +0.000 A 
BRANCH  19  21
ATOM     21  C   UNL     1      47.106   4.783  14.603  0.00  0.00    +0.000 A 
ATOM     22  C   UNL     1      47.619   5.352  15.778  0.00  0.00    +0.000 A 
ATOM     23  C   UNL     1      48.279   4.564  16.723  0.00  0.00    +0.000 A 
ATOM     24  C   UNL     1      48.400   3.208  16.479  0.00  0.00    +0.000 A 
ATOM     25  N   UNL     1      47.920   2.606  15.375  0.00  0.00    +0.000 NA
ATOM     26  C   UNL     1      47.295   3.404  14.471  0.00  0.00    +0.000 A 
ENDBRANCH  19  21
ENDBRANCH  14  15
ENDBRANCH   5  14
TORSDOF 4
ENDMDL
MODEL 3
REMARK VINA RESULT:    -7.543      2.080      2.793
REMARK INTER + INTRA:         -10.106
REMARK INTER:                  -9.589
REMARK INTRA:                  -0.517
REMARK UNBOUND:                -0.799
REMARK  Name = 
REMARK  4 active torsions:
REMARK  status: ('A' for Active; 'I' for Inactive)
REMARK    1  A    between atoms: C_2  and  C_4
REMARK    2  A    between atoms: N_8  and  C_9
REMARK    3  A    between atoms: C_9  and  C_10
REMARK    4  A    between atoms: C_14  and  C_15
REMARK                            x       y       z     vdW  Elec       q    Type
REMARK                         _______ _______ _______ _____ _____    ______ ____
ROOT
ATOM      1  C   UNL     1      46.703   2.526   7.149  0.00  0.00    +0.000 A 
ATOM      2  C   UNL     1      46.251   3.754   7.618  0.00  0.00    +0.000 A 
ATOM      3  C   UNL     1      45.508   3.799   8.801  0.00  0.00    +0.000 A 
ATOM      4  C   UNL     1      45.226   2.622   9.486  0.00  0.00    +0.000 A 
ATOM      5  N   UNL     1      44.563   2.578  10.690  0.00  0.00    +0.000 N 
ATOM      6  N   UNL     1      45.655   1.426   9.034  0.00  0.00    +0.000 NA
ATOM      7  C   UNL     1      46.370   1.397   7.880  0.00  0.00    +0.000 A 
ATOM      8  H   UNL     1      44.421   1.610  10.961  0.00  0.00    +0.000 HD
ENDROOT
BRANCH   1  10
ATOM      9  N   UNL     1      47.288   3.287   4.917  0.00  0.00    +0.000 N 
ATOM     10  C   UNL     1      47.500   2.380   5.914  0.00  0.00    +0.000 C 
ATOM     11  O   UNL     1      48.346   1.500   5.804  0.00  0.00    +0.000 OA
ATOM     12  H   UNL     1      47.921   3.235   4.127  0.00  0.00    +0.000 HD
ATOM     13  H   UNL     1      46.809   4.163   5.072  0.00  0.00    +0.000 HD
ENDBRANCH   1  10
BRANCH   5  14
ATOM     14  C   UNL     1      43.496   3.488  11.044  0.00  0.00    +0.000 C 
BRANCH  14  15
ATOM     15  C   UNL     1      43.916   4.918  11.312  0.00  0.00    +0.000 A 
ATOM     16  C   UNL     1      43.214   6.046  10.873  0.00  0.00    +0.000 A 
ATOM     17  C   UNL     1      43.659   7.325  11.210  0.00  0.00    +0.000 A 
ATOM     18  C   UNL     1      44.803   7.495  11.996  0.00  0.00    +0.000 A 
ATOM     19  C   UNL     1      45.532   6.393  12.470  0.00  0.00    +0.000 A 
ATOM     20  C   UNL     1      45.075   5.116  12.092  0.00  0.00    +0.000 A 
BRANCH  19  21
ATOM     21  C   UNL     1      46.694   6.554  13.373  0.00  0.00    +0.000 A 
ATOM     22  C   UNL     1      47.377   7.770  13.519  0.00  0.00    +0.000 A 
ATOM     23  C   UNL     1      48.503   7.862  14.340  0.00  0.00    +0.000 A 
ATOM     24  C   UNL     1      48.917   6.729  15.016  0.00  0.00    +0.000 A 
ATOM     25  N   UNL     1      48.296   5.539  14.923  0.00  0.00    +0.000 NA
ATOM     26  C   UNL     1      47.212   5.482  14.107  0.00  0.00    +0.000 A 
ENDBRANCH  19  21
ENDBRANCH  14  15
ENDBRANCH   5  14
TORSDOF 4
ENDMDL
MODEL 4
REMARK VINA RESULT:    -7.533      2.035      2.687
REMARK INTER + INTRA:         -10.094
REMARK INTER:                  -9.511
REMARK INTRA:                  -0.583
REMARK UNBOUND:                -0.799
REMARK  Name = 
REMARK  4 active torsions:
REMARK  status: ('A' for Active; 'I' for Inactive)
REMARK    1  A    between atoms: C_2  and  C_4
REMARK    2  A    between atoms: N_8  and  C_9
REMARK    3  A    between atoms: C_9  and  C_10
REMARK    4  A    between atoms: C_14  and  C_15
REMARK                            x       y       z     vdW  Elec       q    Type
REMARK                         _______ _______ _______ _____ _____    ______ ____
ROOT
ATOM      1  C   UNL     1      46.312   2.045   7.937  0.00  0.00    +0.000 A 
ATOM      2  C   UNL     1      45.589   1.856   9.109  0.00  0.00    +0.000 A 
ATOM      3  C   UNL     1      44.949   2.950   9.697  0.00  0.00    +0.000 A 
ATOM      4  C   UNL     1      45.049   4.208   9.111  0.00  0.00    +0.000 A 
ATOM      5  N   UNL     1      44.398   5.324   9.580  0.00  0.00    +0.000 N 
ATOM      6  N   UNL     1      45.754   4.400   7.978  0.00  0.00    +0.000 NA
ATOM      7  C   UNL     1      46.376   3.329   7.421  0.00  0.00    +0.000 A 
ATOM      8  H   UNL     1      44.673   6.131   9.029  0.00  0.00    +0.000 HD
ENDROOT
BRANCH   1  10
ATOM      9  N   UNL     1      46.708  -0.330   7.605  0.00  0.00    +0.000 N 
ATOM     10  C   UNL     1      47.014   0.949   7.240  0.00  0.00    +0.000 C 
ATOM     11  O   UNL     1      47.815   1.177   6.341  0.00  0.00    +0.000 OA
ATOM     12  H   UNL     1      47.118  -1.064   7.040  0.00  0.00    +0.000 HD
ATOM     13  H   UNL     1      45.879  -0.559   8.136  0.00  0.00    +0.000 HD
ENDBRANCH   1  10
BRANCH   5  14
ATOM     14  C   UNL     1      44.167   5.579  10.986  0.00  0.00    +0.000 C 
BRANCH  14  15
ATOM     15  C   UNL     1      44.772   6.857  11.529  0.00  0.00    +0.000 A 
ATOM     16  C   UNL     1      44.256   8.137  11.303  0.00  0.00    +0.000 A 
ATOM     17  C   UNL     1      44.862   9.251  11.885  0.00  0.00    +0.000 A 
ATOM     18  C   UNL     1      45.982   9.101  12.708  0.00  0.00    +0.000 A 
ATOM     19  C   UNL     1      46.527   7.836  12.974  0.00  0.00    +0.000 A 
ATOM     20  C   UNL     1      45.912   6.733  12.351  0.00  0.00    +0.000 A 
BRANCH  19  21
ATOM     21  C   UNL     1      47.659   7.653  13.910  0.00  0.00    +0.000 A 
ATOM     22  C   UNL     1      48.413   8.727  14.405  0.00  0.00    +0.000 A 
ATOM     23  C   UNL     1      49.509   8.504  15.242  0.00  0.00    +0.000 A 
ATOM     24  C   UNL     1      49.821   7.200  15.582  0.00  0.00    +0.000 A 
ATOM     25  N   UNL     1      49.128   6.132  15.146  0.00  0.00    +0.000 NA
ATOM     26  C   UNL     1      48.077   6.384  14.324  0.00  0.00    +0.000 A 
ENDBRANCH  19  21
ENDBRANCH  14  15
ENDBRANCH   5  14
TORSDOF 4
ENDMDL
MODEL 5
REMARK VINA RESULT:    -7.464      3.270      7.331
REMARK INTER + INTRA:         -10.009
REMARK INTER:                  -9.506
REMARK INTRA:                  -0.503
REMARK UNBOUND:                -0.799
REMARK  Name = 
REMARK  4 active torsions:
REMARK  status: ('A' for Active; 'I' for Inactive)
REMARK    1  A    between atoms: C_2  and  C_4
REMARK    2  A    between atoms: N_8  and  C_9
REMARK    3  A    between atoms: C_9  and  C_10
REMARK    4  A    between atoms: C_14  and  C_15
REMARK                            x       y       z     vdW  Elec       q    Type
REMARK                         _______ _______ _______ _____ _____    ______ ____
ROOT
ATOM      1  C   UNL     1      47.891   5.508  15.430  0.00  0.00    +0.000 A 
ATOM      2  C   UNL     1      46.946   4.682  14.832  0.00  0.00    +0.000 A 
ATOM      3  C   UNL     1      46.385   5.063  13.610  0.00  0.00    +0.000 A 
ATOM      4  C   UNL     1      46.770   6.261  13.015  0.00  0.00    +0.000 A 
ATOM      5  N   UNL     1      46.324   6.682  11.785  0.00  0.00    +0.000 N 
ATOM      6  N   UNL     1      47.680   7.071  13.593  0.00  0.00    +0.000 NA
ATOM      7  C   UNL     1      48.213   6.690  14.783  0.00  0.00    +0.000 A 
ATOM      8  H   UNL     1      46.693   7.608  11.591  0.00  0.00    +0.000 HD
ENDROOT
BRANCH   1  10
ATOM      9  N   UNL     1      47.970   5.676  17.853  0.00  0.00    +0.000 N 
ATOM     10  C   UNL     1      48.543   5.186  16.715  0.00  0.00    +0.000 C 
ATOM     11  O   UNL     1      49.538   4.472  16.762  0.00  0.00    +0.000 OA
ATOM     12  H   UNL     1      48.369   5.352  18.726  0.00  0.00    +0.000 HD
ATOM     13  H   UNL     1      47.024   6.030  17.876  0.00  0.00    +0.000 HD
ENDBRANCH   1  10
BRANCH   5  14
ATOM     14  C   UNL     1      44.987   6.428  11.294  0.00  0.00    +0.000 C 
BRANCH  14  15
ATOM     15  C   UNL     1      44.705   5.002  10.867  0.00  0.00    +0.000 A 
ATOM     16  C   UNL     1      43.722   4.184  11.434  0.00  0.00    +0.000 A 
ATOM     17  C   UNL     1      43.509   2.896  10.940  0.00  0.00    +0.000 A 
ATOM     18  C   UNL     1      44.267   2.412   9.869  0.00  0.00    +0.000 A 
ATOM     19  C   UNL     1      45.256   3.201   9.260  0.00  0.00    +0.000 A 
ATOM     20  C   UNL     1      45.467   4.486   9.797  0.00  0.00    +0.000 A 
BRANCH  19  21
ATOM     21  C   UNL     1      46.006   2.736   8.072  0.00  0.00    +0.000 A 
ATOM     22  C   UNL     1      46.249   3.556   6.960  0.00  0.00    +0.000 A 
ATOM     23  C   UNL     1      46.913   3.057   5.837  0.00  0.00    +0.000 A 
ATOM     24  C   UNL     1      47.337   1.741   5.855  0.00  0.00    +0.000 A 
ATOM     25  N   UNL     1      47.141   0.912   6.897  0.00  0.00    +0.000 NA
ATOM     26  C   UNL     1      46.482   1.425   7.967  0.00  0.00    +0.000 A 
ENDBRANCH  19  21
ENDBRANCH  14  15
ENDBRANCH   5  14
TORSDOF 4
ENDMDL
MODEL 6
REMARK VINA RESULT:    -7.178      3.122      6.857
REMARK INTER + INTRA:          -9.655
REMARK INTER:                  -8.938
REMARK INTRA:                  -0.717
REMARK UNBOUND:                -0.799
REMARK  Name = 
REMARK  4 active torsions:
REMARK  status: ('A' for Active; 'I' for Inactive)
REMARK    1  A    between atoms: C_2  and  C_4
REMARK    2  A    between atoms: N_8  and  C_9
REMARK    3  A    between atoms: C_9  and  C_10
REMARK    4  A    between atoms: C_14  and  C_15
REMARK                            x       y       z     vdW  Elec       q    Type
REMARK                         _______ _______ _______ _____ _____    ______ ____
ROOT
ATOM      1  C   UNL     1      49.389   7.796  12.783  0.00  0.00    +0.000 A 
ATOM      2  C   UNL     1      48.514   8.260  11.807  0.00  0.00    +0.000 A 
ATOM      3  C   UNL     1      47.160   7.928  11.895  0.00  0.00    +0.000 A 
ATOM      4  C   UNL     1      46.707   7.136  12.945  0.00  0.00    +0.000 A 
ATOM      5  N   UNL     1      45.386   6.817  13.148  0.00  0.00    +0.000 N 
ATOM      6  N   UNL     1      47.551   6.675  13.891  0.00  0.00    +0.000 NA
ATOM      7  C   UNL     1      48.866   7.001  13.790  0.00  0.00    +0.000 A 
ATOM      8  H   UNL     1      45.310   6.181  13.936  0.00  0.00    +0.000 HD
ENDROOT
BRANCH   1  10
ATOM      9  N   UNL     1      51.520   7.886  11.618  0.00  0.00    +0.000 N 
ATOM     10  C   UNL     1      50.834   8.100  12.778  0.00  0.00    +0.000 C 
ATOM     11  O   UNL     1      51.389   8.564  13.768  0.00  0.00    +0.000 OA
ATOM     12  H   UNL     1      52.482   8.205  11.605  0.00  0.00    +0.000 HD
ATOM     13  H   UNL     1      51.057   7.765  10.728  0.00  0.00    +0.000 HD
ENDBRANCH   1  10
BRANCH   5  14
ATOM     14  C   UNL     1      44.447   6.590  12.071  0.00  0.00    +0.000 C 
BRANCH  14  15
ATOM     15  C   UNL     1      44.278   5.147  11.642  0.00  0.00    +0.000 A 
ATOM     16  C   UNL     1      43.424   4.230  12.263  0.00  0.00    +0.000 A 
ATOM     17  C   UNL     1      43.304   2.932  11.764  0.00  0.00    +0.000 A 
ATOM     18  C   UNL     1      44.027   2.536  10.634  0.00  0.00    +0.000 A 
ATOM     19  C   UNL     1      44.885   3.426   9.970  0.00  0.00    +0.000 A 
ATOM     20  C   UNL     1      45.007   4.720  10.511  0.00  0.00    +0.000 A 
BRANCH  19  21
ATOM     21  C   UNL     1      45.590   3.049   8.724  0.00  0.00    +0.000 A 
ATOM     22  C   UNL     1      46.018   1.738   8.463  0.00  0.00    +0.000 A 
ATOM     23  C   UNL     1      46.728   1.438   7.299  0.00  0.00    +0.000 A 
ATOM     24  C   UNL     1      46.987   2.461   6.404  0.00  0.00    +0.000 A 
ATOM     25  N   UNL     1      46.592   3.734   6.597  0.00  0.00    +0.000 NA
ATOM     26  C   UNL     1      45.914   3.993   7.744  0.00  0.00    +0.000 A 
ENDBRANCH  19  21
ENDBRANCH  14  15
ENDBRANCH   5  14
TORSDOF 4
ENDMDL
MODEL 7
REMARK VINA RESULT:    -7.086      4.559      7.786
REMARK INTER + INTRA:          -9.542
REMARK INTER:                  -9.076
REMARK INTRA:                  -0.465
REMARK UNBOUND:                -0.799
REMARK  Name = 
REMARK  4 active torsions:
REMARK  status: ('A' for Active; 'I' for Inactive)
REMARK    1  A    between atoms: C_2  and  C_4
REMARK    2  A    between atoms: N_8  and  C_9
REMARK    3  A    between atoms: C_9  and  C_10
REMARK    4  A    between atoms: C_14  and  C_15
REMARK                            x       y       z     vdW  Elec       q    Type
REMARK                         _______ _______ _______ _____ _____    ______ ____
ROOT
ATOM      1  C   UNL     1      49.677   3.628  17.234  0.00  0.00    +0.000 A 
ATOM      2  C   UNL     1      49.090   4.884  17.131  0.00  0.00    +0.000 A 
ATOM      3  C   UNL     1      47.986   5.053  16.293  0.00  0.00    +0.000 A 
ATOM      4  C   UNL     1      47.494   3.972  15.568  0.00  0.00    +0.000 A 
ATOM      5  N   UNL     1      46.374   4.029  14.774  0.00  0.00    +0.000 N 
ATOM      6  N   UNL     1      48.062   2.752  15.656  0.00  0.00    +0.000 NA
ATOM      7  C   UNL     1      49.139   2.604  16.471  0.00  0.00    +0.000 A 
ATOM      8  H   UNL     1      46.250   3.139  14.302  0.00  0.00    +0.000 HD
ENDROOT
BRANCH   1  10
ATOM      9  N   UNL     1      50.928   4.035  19.276  0.00  0.00    +0.000 N 
ATOM     10  C   UNL     1      50.841   3.352  18.098  0.00  0.00    +0.000 C 
ATOM     11  O   UNL     1      51.678   2.512  17.789  0.00  0.00    +0.000 OA
ATOM     12  H   UNL     1      51.673   3.751  19.902  0.00  0.00    +0.000 HD
ATOM     13  H   UNL     1      50.141   4.522  19.681  0.00  0.00    +0.000 HD
ENDBRANCH   1  10
BRANCH   5  14
ATOM     14  C   UNL     1      46.000   5.198  14.009  0.00  0.00    +0.000 C 
BRANCH  14  15
ATOM     15  C   UNL     1      45.021   4.957  12.879  0.00  0.00    +0.000 A 
ATOM     16  C   UNL     1      43.677   5.345  12.897  0.00  0.00    +0.000 A 
ATOM     17  C   UNL     1      42.865   5.116  11.785  0.00  0.00    +0.000 A 
ATOM     18  C   UNL     1      43.385   4.507  10.639  0.00  0.00    +0.000 A 
ATOM     19  C   UNL     1      44.730   4.114  10.569  0.00  0.00    +0.000 A 
ATOM     20  C   UNL     1      45.519   4.332  11.715  0.00  0.00    +0.000 A 
BRANCH  19  21
ATOM     21  C   UNL     1      45.316   3.548   9.334  0.00  0.00    +0.000 A 
ATOM     22  C   UNL     1      45.471   2.168   9.132  0.00  0.00    +0.000 A 
ATOM     23  C   UNL     1      46.081   1.680   7.974  0.00  0.00    +0.000 A 
ATOM     24  C   UNL     1      46.514   2.589   7.026  0.00  0.00    +0.000 A 
ATOM     25  N   UNL     1      46.383   3.922   7.161  0.00  0.00    +0.000 NA
ATOM     26  C   UNL     1      45.797   4.363   8.304  0.00  0.00    +0.000 A 
ENDBRANCH  19  21
ENDBRANCH  14  15
ENDBRANCH   5  14
TORSDOF 4
ENDMDL
MODEL 8
REMARK VINA RESULT:    -6.650      5.504      8.133
REMARK INTER + INTRA:          -9.004
REMARK INTER:                  -8.355
REMARK INTRA:                  -0.649
REMARK UNBOUND:                -0.799
REMARK  Name = 
REMARK  4 active torsions:
REMARK  status: ('A' for Active; 'I' for Inactive)
REMARK    1  A    between atoms: C_2  and  C_4
REMARK    2  A    between atoms: N_8  and  C_9
REMARK    3  A    between atoms: C_9  and  C_10
REMARK    4  A    between atoms: C_14  and  C_15
REMARK                            x       y       z     vdW  Elec       q    Type
REMARK                         _______ _______ _______ _____ _____    ______ ____
ROOT
ATOM      1  C   UNL     1      51.258   2.493  17.440  0.00  0.00    +0.000 A 
ATOM      2  C   UNL     1      51.604   3.834  17.557  0.00  0.00    +0.000 A 
ATOM      3  C   UNL     1      50.667   4.811  17.213  0.00  0.00    +0.000 A 
ATOM      4  C   UNL     1      49.410   4.433  16.753  0.00  0.00    +0.000 A 
ATOM      5  N   UNL     1      48.404   5.322  16.457  0.00  0.00    +0.000 N 
ATOM      6  N   UNL     1      49.069   3.134  16.629  0.00  0.00    +0.000 NA
ATOM      7  C   UNL     1      49.992   2.195  16.961  0.00  0.00    +0.000 A 
ATOM      8  H   UNL     1      47.607   4.817  16.083  0.00  0.00    +0.000 HD
ENDROOT
BRANCH   1  10
ATOM      9  N   UNL     1      51.625   0.202  18.165  0.00  0.00    +0.000 N 
ATOM     10  C   UNL     1      52.178   1.391  17.786  0.00  0.00    +0.000 C 
ATOM     11  O   UNL     1      53.393   1.526  17.700  0.00  0.00    +0.000 OA
ATOM     12  H   UNL     1      52.270  -0.569  18.290  0.00  0.00    +0.000 HD
ATOM     13  H   UNL     1      50.656  -0.025  17.991  0.00  0.00    +0.000 HD
ENDBRANCH   1  10
BRANCH   5  14
ATOM     14  C   UNL     1      48.641   6.628  15.882  0.00  0.00    +0.000 C 
BRANCH  14  15
ATOM     15  C   UNL     1      48.264   6.781  14.423  0.00  0.00    +0.000 A 
ATOM     16  C   UNL     1      48.929   7.612  13.515  0.00  0.00    +0.000 A 
ATOM     17  C   UNL     1      48.533   7.650  12.178  0.00  0.00    +0.000 A 
ATOM     18  C   UNL     1      47.476   6.853  11.727  0.00  0.00    +0.000 A 
ATOM     19  C   UNL     1      46.788   5.994  12.599  0.00  0.00    +0.000 A 
ATOM     20  C   UNL     1      47.192   5.997  13.948  0.00  0.00    +0.000 A 
BRANCH  19  21
ATOM     21  C   UNL     1      45.725   5.082  12.120  0.00  0.00    +0.000 A 
ATOM     22  C   UNL     1      45.070   5.260  10.892  0.00  0.00    +0.000 A 
ATOM     23  C   UNL     1      44.034   4.408  10.506  0.00  0.00    +0.000 A 
ATOM     24  C   UNL     1      43.681   3.375  11.356  0.00  0.00    +0.000 A 
ATOM     25  N   UNL     1      44.280   3.150  12.539  0.00  0.00    +0.000 NA
ATOM     26  C   UNL     1      45.275   4.004  12.890  0.00  0.00    +0.000 A 
ENDBRANCH  19  21
ENDBRANCH  14  15
ENDBRANCH   5  14
TORSDOF 4
ENDMDL
MODEL 9
REMARK VINA RESULT:    -6.264      5.847      7.476
REMARK INTER + INTRA:          -8.528
REMARK INTER:                  -7.902
REMARK INTRA:                  -0.626
REMARK UNBOUND:                -0.799
REMARK  Name = 
REMARK  4 active torsions:
REMARK  status: ('A' for Active; 'I' for Inactive)
REMARK    1  A    between atoms: C_2  and  C_4
REMARK    2  A    between atoms: N_8  and  C_9
REMARK    3  A    between atoms: C_9  and  C_10
REMARK    4  A    between atoms: C_14  and  C_15
REMARK                            x       y       z     vdW  Elec       q    Type
REMARK                         _______ _______ _______ _____ _____    ______ ____
ROOT
ATOM      1  C   UNL     1      45.387   4.821  11.646  0.00  0.00    +0.000 A 
ATOM      2  C   UNL     1      45.949   5.790  12.469  0.00  0.00    +0.000 A 
ATOM      3  C   UNL     1      46.539   5.400  13.675  0.00  0.00    +0.000 A 
ATOM      4  C   UNL     1      46.550   4.057  14.038  0.00  0.00    +0.000 A 
ATOM      5  N   UNL     1      47.166   3.575  15.168  0.00  0.00    +0.000 N 
ATOM      6  N   UNL     1      46.001   3.112  13.248  0.00  0.00    +0.000 NA
ATOM      7  C   UNL     1      45.425   3.506  12.083  0.00  0.00    +0.000 A 
ATOM      8  H   UNL     1      46.987   2.580  15.252  0.00  0.00    +0.000 HD
ENDROOT
BRANCH   1  10
ATOM      9  N   UNL     1      45.563   5.502   9.320  0.00  0.00    +0.000 N 
ATOM     10  C   UNL     1      44.749   5.136  10.353  0.00  0.00    +0.000 C 
ATOM     11  O   UNL     1      43.537   5.035  10.200  0.00  0.00    +0.000 OA
ATOM     12  H   UNL     1      45.116   5.605   8.417  0.00  0.00    +0.000 HD
ATOM     13  H   UNL     1      46.560   5.338   9.330  0.00  0.00    +0.000 HD
ENDBRANCH   1  10
BRANCH   5  14
ATOM     14  C   UNL     1      47.223   4.305  16.416  0.00  0.00    +0.000 C 
BRANCH  14  15
ATOM     15  C   UNL     1      48.598   4.783  16.834  0.00  0.00    +0.000 A 
ATOM     16  C   UNL     1      48.947   6.124  17.028  0.00  0.00    +0.000 A 
ATOM     17  C   UNL     1      50.232   6.459  17.458  0.00  0.00    +0.000 A 
ATOM     18  C   UNL     1      51.180   5.463  17.709  0.00  0.00    +0.000 A 
ATOM     19  C   UNL     1      50.871   4.104  17.541  0.00  0.00    +0.000 A 
ATOM     20  C   UNL     1      49.577   3.796  17.080  0.00  0.00    +0.000 A 
BRANCH  19  21
ATOM     21  C   UNL     1      51.836   3.035  17.884  0.00  0.00    +0.000 A 
ATOM     22  C   UNL     1      53.024   3.284  18.586  0.00  0.00    +0.000 A 
ATOM     23  C   UNL     1      53.933   2.254  18.840  0.00  0.00    +0.000 A 
ATOM     24  C   UNL     1      53.624   0.982  18.395  0.00  0.00    +0.000 A 
ATOM     25  N   UNL     1      52.495   0.682  17.726  0.00  0.00    +0.000 NA
ATOM     26  C   UNL     1      51.640   1.709  17.485  0.00  0.00    +0.000 A 
ENDBRANCH  19  21
ENDBRANCH  14  15
ENDBRANCH   5  14
TORSDOF 4
ENDMDL
