MODEL 1
REMARK VINA RESULT:    -7.841      0.000      0.000
REMARK INTER + INTRA:         -11.285
REMARK INTER:                 -10.591
REMARK INTRA:                  -0.694
REMARK UNBOUND:                -0.694
REMARK  Name = 
REMARK  6 active torsions:
REMARK  status: ('A' for Active; 'I' for Inactive)
REMARK    1  A    between atoms: C_2  and  C_4
REMARK    2  A    between atoms: C_7  and  N_8
REMARK    3  A    between atoms: N_8  and  S_9
REMARK    4  A    between atoms: S_9  and  C_10
REMARK    5  A    between atoms: C_10  and  C_11
REMARK    6  A    between atoms: C_12  and  C_13
REMARK                            x       y       z     vdW  Elec       q    Type
REMARK                         _______ _______ _______ _____ _____    ______ ____
ROOT
ATOM      1  N   UNL     1      43.702   3.941  10.537  0.00  0.00    +0.000 N 
ATOM      2  H   UNL     1      42.889   4.412  10.143  0.00  0.00    +0.000 HD
ENDROOT
BRANCH   1   6
ATOM      3  C   UNL     1      46.462   2.673   7.574  0.00  0.00    +0.000 A 
ATOM      4  C   UNL     1      45.842   1.720   8.386  0.00  0.00    +0.000 A 
ATOM      5  C   UNL     1      44.913   2.119   9.351  0.00  0.00    +0.000 A 
ATOM      6  C   UNL     1      44.562   3.467   9.515  0.00  0.00    +0.000 A 
ATOM      7  C   UNL     1      45.215   4.415   8.708  0.00  0.00    +0.000 A 
ATOM      8  C   UNL     1      46.154   4.025   7.746  0.00  0.00    +0.000 A 
BRANCH   3  10
ATOM      9  N   UNL     1      47.487   2.991   5.390  0.00  0.00    +0.000 N 
ATOM     10  C   UNL     1      47.478   2.287   6.561  0.00  0.00    +0.000 C 
ATOM     11  O   UNL     1      48.292   1.399   6.773  0.00  0.00    +0.000 OA
ATOM     12  H   UNL     1      48.240   2.784   4.745  0.00  0.00    +0.000 HD
ATOM     13  H   UNL     1      47.009   3.874   5.283  0.00  0.00    +0.000 HD
ENDBRANCH   3  10
ENDBRANCH   1   6
BRANCH   1  14
ATOM     14  S   UNL     1      43.442   3.106  11.958  0.00  0.00    +0.000 S 
BRANCH  14  15
ATOM     15  C   UNL     1      43.357   4.558  13.069  0.00  0.00    +0.000 C 
BRANCH  15  16
ATOM     16  C   UNL     1      44.576   5.400  12.846  0.00  0.00    +0.000 C 
ATOM     17  C   UNL     1      45.833   5.069  13.193  0.00  0.00    +0.000 C 
BRANCH  17  18
ATOM     18  C   UNL     1      46.981   5.965  12.974  0.00  0.00    +0.000 A 
ATOM     19  C   UNL     1      47.078   6.740  11.819  0.00  0.00    +0.000 A 
ATOM     20  C   UNL     1      48.200   7.553  11.640  0.00  0.00    +0.000 A 
ATOM     21  C   UNL     1      49.189   7.571  12.616  0.00  0.00    +0.000 A 
ATOM     22 CL   UNL     1      50.589   8.545  12.435  0.00  0.00    +0.000 Cl
ATOM     23  C   UNL     1      49.014   6.780  13.737  0.00  0.00    +0.000 A 
ATOM     24  N   UNL     1      47.935   5.984  13.935  0.00  0.00    +0.000 NA
ENDBRANCH  17  18
ENDBRANCH  15  16
ENDBRANCH  14  15
ENDBRANCH   1  14
TORSDOF 6
ENDMDL
MODEL 2
REMARK VINA RESULT:    -7.616      2.572      3.172
REMARK INTER + INTRA:         -10.982
REMARK INTER:                 -10.494
REMARK INTRA:                  -0.488
REMARK UNBOUND:                -0.694
REMARK  Name = 
REMARK  6 active torsions:
REMARK  status: ('A' for Active; 'I' for Inactive)
REMARK    1  A    between atoms: C_2  and  C_4
REMARK    2  A    between atoms: C_7  and  N_8
REMARK    3  A    between atoms: N_8  and  S_9
REMARK    4  A    between atoms: S_9  and  C_10
REMARK    5  A    between atoms: C_10  and  C_11
REMARK    6  A    between atoms: C_12  and  C_13
REMARK                            x       y       z     vdW  Elec       q    Type
REMARK                         _______ _______ _______ _____ _____    ______ ____
ROOT
ATOM      1  N   UNL     1      43.806   5.002   9.841  0.00  0.00    +0.000 N 
ATOM      2  H   UNL     1      42.861   4.886   9.476  0.00  0.00    +0.000 HD
ENDROOT
BRANCH   1   6
ATOM      3  C   UNL     1      46.275   2.093   7.985  0.00  0.00    +0.000 A 
ATOM      4  C   UNL     1      46.442   3.441   7.660  0.00  0.00    +0.000 A 
ATOM      5  C   UNL     1      45.653   4.415   8.281  0.00  0.00    +0.000 A 
ATOM      6  C   UNL     1      44.699   4.074   9.251  0.00  0.00    +0.000 A 
ATOM      7  C   UNL     1      44.525   2.710   9.545  0.00  0.00    +0.000 A 
ATOM      8  C   UNL     1      45.304   1.728   8.922  0.00  0.00    +0.000 A 
BRANCH   3  10
ATOM      9  N   UNL     1      46.783  -0.264   7.653  0.00  0.00    +0.000 N 
ATOM     10  C   UNL     1      47.073   1.029   7.322  0.00  0.00    +0.000 C 
ATOM     11  O   UNL     1      47.933   1.293   6.494  0.00  0.00    +0.000 OA
ATOM     12  H   UNL     1      47.267  -0.983   7.130  0.00  0.00    +0.000 HD
ATOM     13  H   UNL     1      45.931  -0.525   8.130  0.00  0.00    +0.000 HD
ENDBRANCH   3  10
ENDBRANCH   1   6
BRANCH   1  14
ATOM     14  S   UNL     1      43.916   5.471  11.438  0.00  0.00    +0.000 S 
BRANCH  14  15
ATOM     15  C   UNL     1      45.494   6.387  11.305  0.00  0.00    +0.000 C 
BRANCH  15  16
ATOM     16  C   UNL     1      46.271   6.183  12.569  0.00  0.00    +0.000 C 
ATOM     17  C   UNL     1      46.276   5.064  13.315  0.00  0.00    +0.000 C 
BRANCH  17  18
ATOM     18  C   UNL     1      47.038   4.947  14.569  0.00  0.00    +0.000 A 
ATOM     19  C   UNL     1      47.919   5.950  14.971  0.00  0.00    +0.000 A 
ATOM     20  C   UNL     1      48.644   5.782  16.154  0.00  0.00    +0.000 A 
ATOM     21  C   UNL     1      48.468   4.623  16.899  0.00  0.00    +0.000 A 
ATOM     22 CL   UNL     1      49.345   4.368  18.352  0.00  0.00    +0.000 Cl
ATOM     23  C   UNL     1      47.569   3.679  16.437  0.00  0.00    +0.000 A 
ATOM     24  N   UNL     1      46.854   3.818  15.295  0.00  0.00    +0.000 NA
ENDBRANCH  17  18
ENDBRANCH  15  16
ENDBRANCH  14  15
ENDBRANCH   1  14
TORSDOF 6
ENDMDL
MODEL 3
REMARK VINA RESULT:    -7.580      3.209      6.357
REMARK INTER + INTRA:         -10.933
REMARK INTER:                 -10.243
REMARK INTRA:                  -0.690
REMARK UNBOUND:                -0.694
REMARK  Name = 
REMARK  6 active torsions:
REMARK  status: ('A' for Active; 'I' for Inactive)
REMARK    1  A    between atoms: C_2  and  C_4
REMARK    2  A    between atoms: C_7  and  N_8
REMARK    3  A    between atoms: N_8  and  S_9
REMARK    4  A    between atoms: S_9  and  C_10
REMARK    5  A    between atoms: C_10  and  C_11
REMARK    6  A    between atoms: C_12  and  C_13
REMARK                            x       y       z     vdW  Elec       q    Type
REMARK                         _______ _______ _______ _____ _____    ______ ____
ROOT
ATOM      1  N   UNL     1      43.536   5.932  13.035  0.00  0.00    +0.000 N 
ATOM      2  H   UNL     1      43.129   6.577  13.711  0.00  0.00    +0.000 HD
ENDROOT
BRANCH   1   6
ATOM      3  C   UNL     1      47.636   6.935  12.595  0.00  0.00    +0.000 A 
ATOM      4  C   UNL     1      47.286   5.760  13.264  0.00  0.00    +0.000 A 
ATOM      5  C   UNL     1      45.940   5.403  13.397  0.00  0.00    +0.000 A 
ATOM      6  C   UNL     1      44.917   6.190  12.850  0.00  0.00    +0.000 A 
ATOM      7  C   UNL     1      45.286   7.383  12.204  0.00  0.00    +0.000 A 
ATOM      8  C   UNL     1      46.629   7.754  12.075  0.00  0.00    +0.000 A 
BRANCH   3  10
ATOM      9  N   UNL     1      49.860   7.180  13.552  0.00  0.00    +0.000 N 
ATOM     10  C   UNL     1      49.053   7.362  12.464  0.00  0.00    +0.000 C 
ATOM     11  O   UNL     1      49.490   7.831  11.423  0.00  0.00    +0.000 OA
ATOM     12  H   UNL     1      50.842   7.388  13.424  0.00  0.00    +0.000 HD
ATOM     13  H   UNL     1      49.605   6.579  14.323  0.00  0.00    +0.000 HD
ENDBRANCH   3  10
ENDBRANCH   1   6
BRANCH   1  14
ATOM     14  S   UNL     1      42.533   5.451  11.792  0.00  0.00    +0.000 S 
BRANCH  14  15
ATOM     15  C   UNL     1      43.148   3.734  11.646  0.00  0.00    +0.000 C 
BRANCH  15  16
ATOM     16  C   UNL     1      44.000   3.636  10.419  0.00  0.00    +0.000 C 
ATOM     17  C   UNL     1      44.639   2.532   9.992  0.00  0.00    +0.000 C 
BRANCH  17  18
ATOM     18  C   UNL     1      45.492   2.520   8.792  0.00  0.00    +0.000 A 
ATOM     19  C   UNL     1      45.663   3.668   8.021  0.00  0.00    +0.000 A 
ATOM     20  C   UNL     1      46.458   3.601   6.873  0.00  0.00    +0.000 A 
ATOM     21  C   UNL     1      47.056   2.396   6.530  0.00  0.00    +0.000 A 
ATOM     22 CL   UNL     1      48.030   2.263   5.124  0.00  0.00    +0.000 Cl
ATOM     23  C   UNL     1      46.844   1.304   7.352  0.00  0.00    +0.000 A 
ATOM     24  N   UNL     1      46.080   1.343   8.470  0.00  0.00    +0.000 NA
ENDBRANCH  17  18
ENDBRANCH  15  16
ENDBRANCH  14  15
ENDBRANCH   1  14
TORSDOF 6
ENDMDL
MODEL 4
REMARK VINA RESULT:    -6.515      3.512      6.648
REMARK INTER + INTRA:          -9.494
REMARK INTER:                  -8.981
REMARK INTRA:                  -0.514
REMARK UNBOUND:                -0.694
REMARK  Name = 
REMARK  6 active torsions:
REMARK  status: ('A' for Active; 'I' for Inactive)
REMARK    1  A    between atoms: C_2  and  C_4
REMARK    2  A    between atoms: C_7  and  N_8
REMARK    3  A    between atoms: N_8  and  S_9
REMARK    4  A    between atoms: S_9  and  C_10
REMARK    5  A    between atoms: C_10  and  C_11
REMARK    6  A    between atoms: C_12  and  C_13
REMARK                            x       y       z     vdW  Elec       q    Type
REMARK                         _______ _______ _______ _____ _____    ______ ____
ROOT
ATOM      1  N   UNL     1      44.608   4.208  13.152  0.00  0.00    +0.000 N 
ATOM      2  H   UNL     1      44.792   3.250  13.446  0.00  0.00    +0.000 HD
ENDROOT
BRANCH   1   6
ATOM      3  C   UNL     1      47.864   6.855  13.781  0.00  0.00    +0.000 A 
ATOM      4  C   UNL     1      47.825   5.641  14.470  0.00  0.00    +0.000 A 
ATOM      5  C   UNL     1      46.771   4.746  14.256  0.00  0.00    +0.000 A 
ATOM      6  C   UNL     1      45.748   5.028  13.340  0.00  0.00    +0.000 A 
ATOM      7  C   UNL     1      45.788   6.266  12.676  0.00  0.00    +0.000 A 
ATOM      8  C   UNL     1      46.834   7.172  12.891  0.00  0.00    +0.000 A 
BRANCH   3  10
ATOM      9  N   UNL     1      50.233   7.375  13.972  0.00  0.00    +0.000 N 
ATOM     10  C   UNL     1      48.950   7.843  14.009  0.00  0.00    +0.000 C 
ATOM     11  O   UNL     1      48.713   9.028  14.193  0.00  0.00    +0.000 OA
ATOM     12  H   UNL     1      50.968   8.069  14.037  0.00  0.00    +0.000 HD
ATOM     13  H   UNL     1      50.473   6.474  13.582  0.00  0.00    +0.000 HD
ENDBRANCH   3  10
ENDBRANCH   1   6
BRANCH   1  14
ATOM     14  S   UNL     1      43.051   4.756  13.395  0.00  0.00    +0.000 S 
BRANCH  14  15
ATOM     15  C   UNL     1      42.616   5.014  11.636  0.00  0.00    +0.000 C 
BRANCH  15  16
ATOM     16  C   UNL     1      43.574   4.232  10.791  0.00  0.00    +0.000 C 
ATOM     17  C   UNL     1      44.109   4.642   9.627  0.00  0.00    +0.000 C 
BRANCH  17  18
ATOM     18  C   UNL     1      45.018   3.802   8.829  0.00  0.00    +0.000 A 
ATOM     19  C   UNL     1      45.115   2.431   9.057  0.00  0.00    +0.000 A 
ATOM     20  C   UNL     1      46.013   1.678   8.295  0.00  0.00    +0.000 A 
ATOM     21  C   UNL     1      46.785   2.314   7.331  0.00  0.00    +0.000 A 
ATOM     22 CL   UNL     1      47.909   1.433   6.380  0.00  0.00    +0.000 Cl
ATOM     23  C   UNL     1      46.624   3.677   7.160  0.00  0.00    +0.000 A 
ATOM     24  N   UNL     1      45.760   4.428   7.884  0.00  0.00    +0.000 NA
ENDBRANCH  17  18
ENDBRANCH  15  16
ENDBRANCH  14  15
ENDBRANCH   1  14
TORSDOF 6
ENDMDL
MODEL 5
REMARK VINA RESULT:    -6.104      3.761      7.073
REMARK INTER + INTRA:          -8.940
REMARK INTER:                  -8.456
REMARK INTRA:                  -0.484
REMARK UNBOUND:                -0.694
REMARK  Name = 
REMARK  6 active torsions:
REMARK  status: ('A' for Active; 'I' for Inactive)
REMARK    1  A    between atoms: C_2  and  C_4
REMARK    2  A    between atoms: C_7  and  N_8
REMARK    3  A    between atoms: N_8  and  S_9
REMARK    4  A    between atoms: S_9  and  C_10
REMARK    5  A    between atoms: C_10  and  C_11
REMARK    6  A    between atoms: C_12  and  C_13
REMARK                            x       y       z     vdW  Elec       q    Type
REMARK                         _______ _______ _______ _____ _____    ______ ____
ROOT
ATOM      1  N   UNL     1      44.614   5.778  11.482  0.00  0.00    +0.000 N 
ATOM      2  H   UNL     1      44.952   5.154  10.751  0.00  0.00    +0.000 HD
ENDROOT
BRANCH   1   6
ATOM      3  C   UNL     1      47.170   9.060  12.319  0.00  0.00    +0.000 A 
ATOM      4  C   UNL     1      47.719   7.784  12.170  0.00  0.00    +0.000 A 
ATOM      5  C   UNL     1      46.894   6.696  11.871  0.00  0.00    +0.000 A 
ATOM      6  C   UNL     1      45.512   6.854  11.690  0.00  0.00    +0.000 A 
ATOM      7  C   UNL     1      44.973   8.140  11.871  0.00  0.00    +0.000 A 
ATOM      8  C   UNL     1      45.790   9.233  12.180  0.00  0.00    +0.000 A 
BRANCH   3  10
ATOM      9  N   UNL     1      48.788  10.128  13.790  0.00  0.00    +0.000 N 
ATOM     10  C   UNL     1      48.013  10.232  12.670  0.00  0.00    +0.000 C 
ATOM     11  O   UNL     1      48.037  11.238  11.974  0.00  0.00    +0.000 OA
ATOM     12  H   UNL     1      49.426  10.893  13.970  0.00  0.00    +0.000 HD
ATOM     13  H   UNL     1      48.981   9.242  14.237  0.00  0.00    +0.000 HD
ENDBRANCH   3  10
ENDBRANCH   1   6
BRANCH   1  14
ATOM     14  S   UNL     1      43.770   5.053  12.724  0.00  0.00    +0.000 S 
BRANCH  14  15
ATOM     15  C   UNL     1      43.380   3.488  11.859  0.00  0.00    +0.000 C 
BRANCH  15  16
ATOM     16  C   UNL     1      44.211   3.412  10.615  0.00  0.00    +0.000 C 
ATOM     17  C   UNL     1      44.428   2.306   9.882  0.00  0.00    +0.000 C 
BRANCH  17  18
ATOM     18  C   UNL     1      45.288   2.299   8.687  0.00  0.00    +0.000 A 
ATOM     19  C   UNL     1      46.039   1.175   8.348  0.00  0.00    +0.000 A 
ATOM     20  C   UNL     1      46.865   1.225   7.221  0.00  0.00    +0.000 A 
ATOM     21  C   UNL     1      46.916   2.391   6.468  0.00  0.00    +0.000 A 
ATOM     22 CL   UNL     1      47.923   2.503   5.084  0.00  0.00    +0.000 Cl
ATOM     23  C   UNL     1      46.134   3.460   6.866  0.00  0.00    +0.000 A 
ATOM     24  N   UNL     1      45.325   3.437   7.952  0.00  0.00    +0.000 NA
ENDBRANCH  17  18
ENDBRANCH  15  16
ENDBRANCH  14  15
ENDBRANCH   1  14
TORSDOF 6
ENDMDL
MODEL 6
REMARK VINA RESULT:    -5.908      3.629      7.064
REMARK INTER + INTRA:          -8.675
REMARK INTER:                  -8.159
REMARK INTRA:                  -0.516
REMARK UNBOUND:                -0.694
REMARK  Name = 
REMARK  6 active torsions:
REMARK  status: ('A' for Active; 'I' for Inactive)
REMARK    1  A    between atoms: C_2  and  C_4
REMARK    2  A    between atoms: C_7  and  N_8
REMARK    3  A    between atoms: N_8  and  S_9
REMARK    4  A    between atoms: S_9  and  C_10
REMARK    5  A    between atoms: C_10  and  C_11
REMARK    6  A    between atoms: C_12  and  C_13
REMARK                            x       y       z     vdW  Elec       q    Type
REMARK                         _______ _______ _______ _____ _____    ______ ____
ROOT
ATOM      1  N   UNL     1      45.842   7.574  13.236  0.00  0.00    +0.000 N 
ATOM      2  H   UNL     1      45.517   7.894  14.147  0.00  0.00    +0.000 HD
ENDROOT
BRANCH   1   6
ATOM      3  C   UNL     1      50.002   8.178  12.659  0.00  0.00    +0.000 A 
ATOM      4  C   UNL     1      49.427   8.497  13.891  0.00  0.00    +0.000 A 
ATOM      5  C   UNL     1      48.062   8.282  14.106  0.00  0.00    +0.000 A 
ATOM      6  C   UNL     1      47.245   7.725  13.111  0.00  0.00    +0.000 A 
ATOM      7  C   UNL     1      47.833   7.436  11.868  0.00  0.00    +0.000 A 
ATOM      8  C   UNL     1      49.197   7.657  11.641  0.00  0.00    +0.000 A 
BRANCH   3  10
ATOM      9  N   UNL     1      52.331   8.050  13.352  0.00  0.00    +0.000 N 
ATOM     10  C   UNL     1      51.441   8.425  12.385  0.00  0.00    +0.000 C 
ATOM     11  O   UNL     1      51.820   8.916  11.331  0.00  0.00    +0.000 OA
ATOM     12  H   UNL     1      53.312   8.137  13.119  0.00  0.00    +0.000 HD
ATOM     13  H   UNL     1      52.082   7.427  14.107  0.00  0.00    +0.000 HD
ENDBRANCH   3  10
ENDBRANCH   1   6
BRANCH   1  14
ATOM     14  S   UNL     1      44.791   7.817  11.964  0.00  0.00    +0.000 S 
BRANCH  14  15
ATOM     15  C   UNL     1      44.123   6.114  11.884  0.00  0.00    +0.000 C 
BRANCH  15  16
ATOM     16  C   UNL     1      44.903   5.345  10.863  0.00  0.00    +0.000 C 
ATOM     17  C   UNL     1      44.389   4.477   9.972  0.00  0.00    +0.000 C 
BRANCH  17  18
ATOM     18  C   UNL     1      45.224   3.727   9.020  0.00  0.00    +0.000 A 
ATOM     19  C   UNL     1      45.320   2.338   9.086  0.00  0.00    +0.000 A 
ATOM     20  C   UNL     1      46.149   1.671   8.180  0.00  0.00    +0.000 A 
ATOM     21  C   UNL     1      46.854   2.407   7.235  0.00  0.00    +0.000 A 
ATOM     22 CL   UNL     1      47.891   1.633   6.110  0.00  0.00    +0.000 Cl
ATOM     23  C   UNL     1      46.697   3.781   7.229  0.00  0.00    +0.000 A 
ATOM     24  N   UNL     1      45.900   4.451   8.095  0.00  0.00    +0.000 NA
ENDBRANCH  17  18
ENDBRANCH  15  16
ENDBRANCH  14  15
ENDBRANCH   1  14
TORSDOF 6
ENDMDL
MODEL 7
REMARK VINA RESULT:    -5.713      4.310      6.292
REMARK INTER + INTRA:          -8.412
REMARK INTER:                  -7.768
REMARK INTRA:                  -0.644
REMARK UNBOUND:                -0.694
REMARK  Name = 
REMARK  6 active torsions:
REMARK  status: ('A' for Active; 'I' for Inactive)
REMARK    1  A    between atoms: C_2  and  C_4
REMARK    2  A    between atoms: C_7  and  N_8
REMARK    3  A    between atoms: N_8  and  S_9
REMARK    4  A    between atoms: S_9  and  C_10
REMARK    5  A    between atoms: C_10  and  C_11
REMARK    6  A    between atoms: C_12  and  C_13
REMARK                            x       y       z     vdW  Elec       q    Type
REMARK                         _______ _______ _______ _____ _____    ______ ____
ROOT
ATOM      1  N   UNL     1      48.417   6.800  13.565  0.00  0.00    +0.000 N 
ATOM      2  H   UNL     1      49.335   6.566  13.190  0.00  0.00    +0.000 HD
ENDROOT
BRANCH   1   6
ATOM      3  C   UNL     1      45.276   4.365  12.078  0.00  0.00    +0.000 A 
ATOM      4  C   UNL     1      45.581   5.564  11.427  0.00  0.00    +0.000 A 
ATOM      5  C   UNL     1      46.629   6.366  11.891  0.00  0.00    +0.000 A 
ATOM      6  C   UNL     1      47.409   5.986  12.993  0.00  0.00    +0.000 A 
ATOM      7  C   UNL     1      47.070   4.791  13.651  0.00  0.00    +0.000 A 
ATOM      8  C   UNL     1      46.017   3.986  13.200  0.00  0.00    +0.000 A 
BRANCH   3  10
ATOM      9  N   UNL     1      43.789   2.477  12.457  0.00  0.00    +0.000 N 
ATOM     10  C   UNL     1      44.149   3.506  11.633  0.00  0.00    +0.000 C 
ATOM     11  O   UNL     1      43.548   3.721  10.590  0.00  0.00    +0.000 OA
ATOM     12  H   UNL     1      42.963   1.954  12.192  0.00  0.00    +0.000 HD
ATOM     13  H   UNL     1      44.088   2.422  13.421  0.00  0.00    +0.000 HD
ENDBRANCH   3  10
ENDBRANCH   1   6
BRANCH   1  14
ATOM     14  S   UNL     1      48.174   8.406  13.944  0.00  0.00    +0.000 S 
BRANCH  14  15
ATOM     15  C   UNL     1      48.582   8.291  15.724  0.00  0.00    +0.000 C 
BRANCH  15  16
ATOM     16  C   UNL     1      49.247   6.973  15.975  0.00  0.00    +0.000 C 
ATOM     17  C   UNL     1      48.888   6.079  16.914  0.00  0.00    +0.000 C 
BRANCH  17  18
ATOM     18  C   UNL     1      49.612   4.815  17.128  0.00  0.00    +0.000 A 
ATOM     19  C   UNL     1      50.926   4.810  17.594  0.00  0.00    +0.000 A 
ATOM     20  C   UNL     1      51.585   3.588  17.754  0.00  0.00    +0.000 A 
ATOM     21  C   UNL     1      50.915   2.410  17.446  0.00  0.00    +0.000 A 
ATOM     22 CL   UNL     1      51.686   0.887  17.615  0.00  0.00    +0.000 Cl
ATOM     23  C   UNL     1      49.609   2.500  16.998  0.00  0.00    +0.000 A 
ATOM     24  N   UNL     1      48.949   3.671  16.836  0.00  0.00    +0.000 NA
ENDBRANCH  17  18
ENDBRANCH  15  16
ENDBRANCH  14  15
ENDBRANCH   1  14
TORSDOF 6
ENDMDL
MODEL 8
REMARK VINA RESULT:    -5.713      4.275      7.429
REMARK INTER + INTRA:          -8.411
REMARK INTER:                  -7.739
REMARK INTRA:                  -0.672
REMARK UNBOUND:                -0.694
REMARK  Name = 
REMARK  6 active torsions:
REMARK  status: ('A' for Active; 'I' for Inactive)
REMARK    1  A    between atoms: C_2  and  C_4
REMARK    2  A    between atoms: C_7  and  N_8
REMARK    3  A    between atoms: N_8  and  S_9
REMARK    4  A    between atoms: S_9  and  C_10
REMARK    5  A    between atoms: C_10  and  C_11
REMARK    6  A    between atoms: C_12  and  C_13
REMARK                            x       y       z     vdW  Elec       q    Type
REMARK                         _______ _______ _______ _____ _____    ______ ____
ROOT
ATOM      1  N   UNL     1      47.815   7.227  13.126  0.00  0.00    +0.000 N 
ATOM      2  H   UNL     1      47.493   6.762  12.278  0.00  0.00    +0.000 HD
ENDROOT
BRANCH   1   6
ATOM      3  C   UNL     1      47.934   4.367  16.258  0.00  0.00    +0.000 A 
ATOM      4  C   UNL     1      48.660   5.553  16.386  0.00  0.00    +0.000 A 
ATOM      5  C   UNL     1      48.612   6.517  15.373  0.00  0.00    +0.000 A 
ATOM      6  C   UNL     1      47.828   6.334  14.225  0.00  0.00    +0.000 A 
ATOM      7  C   UNL     1      47.125   5.122  14.101  0.00  0.00    +0.000 A 
ATOM      8  C   UNL     1      47.175   4.148  15.105  0.00  0.00    +0.000 A 
BRANCH   3  10
ATOM      9  N   UNL     1      46.796   2.778  17.708  0.00  0.00    +0.000 N 
ATOM     10  C   UNL     1      47.987   3.308  17.298  0.00  0.00    +0.000 C 
ATOM     11  O   UNL     1      49.049   2.904  17.751  0.00  0.00    +0.000 OA
ATOM     12  H   UNL     1      46.848   1.995  18.348  0.00  0.00    +0.000 HD
ATOM     13  H   UNL     1      45.938   2.903  17.189  0.00  0.00    +0.000 HD
ENDBRANCH   3  10
ENDBRANCH   1   6
BRANCH   1  14
ATOM     14  S   UNL     1      47.402   8.836  13.274  0.00  0.00    +0.000 S 
BRANCH  14  15
ATOM     15  C   UNL     1      45.730   8.716  12.537  0.00  0.00    +0.000 C 
BRANCH  15  16
ATOM     16  C   UNL     1      45.630   7.420  11.794  0.00  0.00    +0.000 C 
ATOM     17  C   UNL     1      44.570   6.592  11.799  0.00  0.00    +0.000 C 
BRANCH  17  18
ATOM     18  C   UNL     1      44.556   5.313  11.070  0.00  0.00    +0.000 A 
ATOM     19  C   UNL     1      43.897   4.199  11.586  0.00  0.00    +0.000 A 
ATOM     20  C   UNL     1      43.936   2.997  10.874  0.00  0.00    +0.000 A 
ATOM     21  C   UNL     1      44.629   2.942   9.671  0.00  0.00    +0.000 A 
ATOM     22 CL   UNL     1      44.714   1.487   8.768  0.00  0.00    +0.000 Cl
ATOM     23  C   UNL     1      45.250   4.094   9.223  0.00  0.00    +0.000 A 
ATOM     24  N   UNL     1      45.226   5.271   9.893  0.00  0.00    +0.000 NA
ENDBRANCH  17  18
ENDBRANCH  15  16
ENDBRANCH  14  15
ENDBRANCH   1  14
TORSDOF 6
ENDMDL
MODEL 9
REMARK VINA RESULT:    -5.636      5.308      6.868
REMARK INTER + INTRA:          -8.307
REMARK INTER:                  -7.973
REMARK INTRA:                  -0.335
REMARK UNBOUND:                -0.694
REMARK  Name = 
REMARK  6 active torsions:
REMARK  status: ('A' for Active; 'I' for Inactive)
REMARK    1  A    between atoms: C_2  and  C_4
REMARK    2  A    between atoms: C_7  and  N_8
REMARK    3  A    between atoms: N_8  and  S_9
REMARK    4  A    between atoms: S_9  and  C_10
REMARK    5  A    between atoms: C_10  and  C_11
REMARK    6  A    between atoms: C_12  and  C_13
REMARK                            x       y       z     vdW  Elec       q    Type
REMARK                         _______ _______ _______ _____ _____    ______ ____
ROOT
ATOM      1  N   UNL     1      47.265   5.483  14.915  0.00  0.00    +0.000 N 
ATOM      2  H   UNL     1      47.074   6.449  15.179  0.00  0.00    +0.000 HD
ENDROOT
BRANCH   1   6
ATOM      3  C   UNL     1      45.090   4.335  11.458  0.00  0.00    +0.000 A 
ATOM      4  C   UNL     1      45.362   5.687  11.679  0.00  0.00    +0.000 A 
ATOM      5  C   UNL     1      46.098   6.080  12.801  0.00  0.00    +0.000 A 
ATOM      6  C   UNL     1      46.598   5.140  13.713  0.00  0.00    +0.000 A 
ATOM      7  C   UNL     1      46.292   3.786  13.490  0.00  0.00    +0.000 A 
ATOM      8  C   UNL     1      45.547   3.385  12.375  0.00  0.00    +0.000 A 
BRANCH   3  10
ATOM      9  N   UNL     1      44.322   4.663   9.172  0.00  0.00    +0.000 N 
ATOM     10  C   UNL     1      44.282   3.885  10.295  0.00  0.00    +0.000 C 
ATOM     11  O   UNL     1      43.632   2.850  10.325  0.00  0.00    +0.000 OA
ATOM     12  H   UNL     1      43.843   4.302   8.356  0.00  0.00    +0.000 HD
ATOM     13  H   UNL     1      45.027   5.371   9.026  0.00  0.00    +0.000 HD
ENDBRANCH   3  10
ENDBRANCH   1   6
BRANCH   1  14
ATOM     14  S   UNL     1      47.460   4.410  16.178  0.00  0.00    +0.000 S 
BRANCH  14  15
ATOM     15  C   UNL     1      48.593   5.437  17.184  0.00  0.00    +0.000 C 
BRANCH  15  16
ATOM     16  C   UNL     1      49.848   4.658  17.432  0.00  0.00    +0.000 C 
ATOM     17  C   UNL     1      49.964   3.319  17.378  0.00  0.00    +0.000 C 
BRANCH  17  18
ATOM     18  C   UNL     1      51.224   2.618  17.671  0.00  0.00    +0.000 A 
ATOM     19  C   UNL     1      52.327   3.302  18.179  0.00  0.00    +0.000 A 
ATOM     20  C   UNL     1      53.513   2.601  18.413  0.00  0.00    +0.000 A 
ATOM     21  C   UNL     1      53.563   1.241  18.135  0.00  0.00    +0.000 A 
ATOM     22 CL   UNL     1      55.000   0.340  18.396  0.00  0.00    +0.000 Cl
ATOM     23  C   UNL     1      52.424   0.632  17.641  0.00  0.00    +0.000 A 
ATOM     24  N   UNL     1      51.263   1.289  17.407  0.00  0.00    +0.000 NA
ENDBRANCH  17  18
ENDBRANCH  15  16
ENDBRANCH  14  15
ENDBRANCH   1  14
TORSDOF 6
ENDMDL
