MODEL 1
REMARK VINA RESULT:    -8.093      0.000      0.000
REMARK INTER + INTRA:         -12.962
REMARK INTER:                 -11.405
REMARK INTRA:                  -1.557
REMARK UNBOUND:                -1.557
REMARK  Name = 
REMARK  9 active torsions:
REMARK  status: ('A' for Active; 'I' for Inactive)
REMARK    1  A    between atoms: C_1  and  O_2
REMARK    2  A    between atoms: O_2  and  C_3
REMARK    3  A    between atoms: C_10  and  C_11
REMARK    4  A    between atoms: N_13  and  C_14
REMARK    5  A    between atoms: C_14  and  C_15
REMARK    6  A    between atoms: C_18  and  N_19
REMARK    7  A    between atoms: N_19  and  C_20
REMARK    8  A    between atoms: C_20  and  C_21
REMARK    9  A    between atoms: C_20  and  C_22
REMARK                            x       y       z     vdW  Elec       q    Type
REMARK                         _______ _______ _______ _____ _____    ______ ____
ROOT
ATOM      1  C   UNL     1      46.425   7.980  12.965  0.00  0.00    +0.000 C 
ENDROOT
BRANCH   1   2
ATOM      2  C   UNL     1      45.831   6.997  11.988  0.00  0.00    +0.000 A 
ATOM      3  C   UNL     1      46.491   6.691  10.791  0.00  0.00    +0.000 A 
ATOM      4  C   UNL     1      45.991   5.707   9.925  0.00  0.00    +0.000 A 
ATOM      5  C   UNL     1      44.831   4.995  10.235  0.00  0.00    +0.000 A 
ATOM      6  C   UNL     1      44.120   5.380  11.379  0.00  0.00    +0.000 A 
ATOM      7  C   UNL     1      44.613   6.362  12.251  0.00  0.00    +0.000 A 
BRANCH   5   8
ATOM      8  N   UNL     1      44.333   3.949   9.462  0.00  0.00    +0.000 N 
ATOM      9  H   UNL     1      43.873   4.252   8.611  0.00  0.00    +0.000 HD
BRANCH   8  10
ATOM     10  C   UNL     1      45.039   2.667   9.377  0.00  0.00    +0.000 C 
ATOM     11  C   UNL     1      43.994   1.540   9.361  0.00  0.00    +0.000 C 
BRANCH  10  12
ATOM     12  C   UNL     1      45.944   2.514   8.162  0.00  0.00    +0.000 A 
ATOM     13  C   UNL     1      46.582   1.277   7.953  0.00  0.00    +0.000 A 
ATOM     14  C   UNL     1      47.308   1.025   6.787  0.00  0.00    +0.000 A 
ATOM     15  C   UNL     1      47.416   2.011   5.811  0.00  0.00    +0.000 A 
ATOM     16  C   UNL     1      46.820   3.254   6.014  0.00  0.00    +0.000 A 
ATOM     17  C   UNL     1      46.086   3.504   7.178  0.00  0.00    +0.000 A 
ENDBRANCH  10  12
ENDBRANCH   8  10
ENDBRANCH   5   8
ENDBRANCH   1   2
BRANCH   1  20
ATOM     18  C   UNL     1      48.290   6.895  14.153  0.00  0.00    +0.000 C 
ATOM     19  O   UNL     1      49.040   7.051  13.187  0.00  0.00    +0.000 OA
ATOM     20  N   UNL     1      46.988   7.318  14.115  0.00  0.00    +0.000 N 
ATOM     21  H   UNL     1      46.366   7.102  14.880  0.00  0.00    +0.000 HD
BRANCH  18  29
ATOM     22  C   UNL     1      47.167   4.243  16.048  0.00  0.00    +0.000 A 
ATOM     23  N   UNL     1      46.911   3.325  17.002  0.00  0.00    +0.000 NA
ATOM     24  C   UNL     1      47.708   3.281  18.070  0.00  0.00    +0.000 A 
ATOM     25  N   UNL     1      48.762   4.054  18.309  0.00  0.00    +0.000 NA
ATOM     26  C   UNL     1      48.979   4.963  17.342  0.00  0.00    +0.000 A 
ATOM     27  S   UNL     1      50.299   6.020  17.475  0.00  0.00    +0.000 S 
ATOM     28  C   UNL     1      49.897   6.785  16.012  0.00  0.00    +0.000 A 
ATOM     29  C   UNL     1      48.762   6.268  15.398  0.00  0.00    +0.000 A 
ATOM     30  C   UNL     1      48.232   5.152  16.182  0.00  0.00    +0.000 A 
BRANCH  22  32
ATOM     31  C   UNL     1      46.945   3.506  13.837  0.00  0.00    +0.000 C 
ATOM     32  O   UNL     1      46.374   4.242  14.918  0.00  0.00    +0.000 OA
ENDBRANCH  22  32
ENDBRANCH  18  29
ENDBRANCH   1  20
TORSDOF 7
ENDMDL
MODEL 2
REMARK VINA RESULT:    -7.537      1.780      2.621
REMARK INTER + INTRA:         -12.178
REMARK INTER:                 -10.559
REMARK INTRA:                  -1.620
REMARK UNBOUND:                -1.557
REMARK  Name = 
REMARK  9 active torsions:
REMARK  status: ('A' for Active; 'I' for Inactive)
REMARK    1  A    between atoms: C_1  and  O_2
REMARK    2  A    between atoms: O_2  and  C_3
REMARK    3  A    between atoms: C_10  and  C_11
REMARK    4  A    between atoms: N_13  and  C_14
REMARK    5  A    between atoms: C_14  and  C_15
REMARK    6  A    between atoms: C_18  and  N_19
REMARK    7  A    between atoms: N_19  and  C_20
REMARK    8  A    between atoms: C_20  and  C_21
REMARK    9  A    between atoms: C_20  and  C_22
REMARK                            x       y       z     vdW  Elec       q    Type
REMARK                         _______ _______ _______ _____ _____    ______ ____
ROOT
ATOM      1  C   UNL     1      48.561   8.871  14.173  0.00  0.00    +0.000 C 
ENDROOT
BRANCH   1   2
ATOM      2  C   UNL     1      47.578   8.251  13.213  0.00  0.00    +0.000 A 
ATOM      3  C   UNL     1      47.998   7.308  12.267  0.00  0.00    +0.000 A 
ATOM      4  C   UNL     1      47.073   6.658  11.437  0.00  0.00    +0.000 A 
ATOM      5  C   UNL     1      45.706   6.921  11.538  0.00  0.00    +0.000 A 
ATOM      6  C   UNL     1      45.303   7.940  12.411  0.00  0.00    +0.000 A 
ATOM      7  C   UNL     1      46.222   8.594  13.244  0.00  0.00    +0.000 A 
BRANCH   5   8
ATOM      8  N   UNL     1      44.731   6.247  10.806  0.00  0.00    +0.000 N 
ATOM      9  H   UNL     1      44.616   6.594   9.861  0.00  0.00    +0.000 HD
BRANCH   8  10
ATOM     10  C   UNL     1      44.508   4.809  10.983  0.00  0.00    +0.000 C 
ATOM     11  C   UNL     1      43.009   4.578  11.229  0.00  0.00    +0.000 C 
BRANCH  10  12
ATOM     12  C   UNL     1      44.952   3.943   9.812  0.00  0.00    +0.000 A 
ATOM     13  C   UNL     1      45.569   4.568   8.712  0.00  0.00    +0.000 A 
ATOM     14  C   UNL     1      46.126   3.819   7.673  0.00  0.00    +0.000 A 
ATOM     15  C   UNL     1      46.066   2.430   7.710  0.00  0.00    +0.000 A 
ATOM     16  C   UNL     1      45.430   1.793   8.774  0.00  0.00    +0.000 A 
ATOM     17  C   UNL     1      44.879   2.542   9.819  0.00  0.00    +0.000 A 
ENDBRANCH  10  12
ENDBRANCH   8  10
ENDBRANCH   5   8
ENDBRANCH   1   2
BRANCH   1  20
ATOM     18  C   UNL     1      48.426   8.366  16.580  0.00  0.00    +0.000 C 
ATOM     19  O   UNL     1      47.862   9.439  16.806  0.00  0.00    +0.000 OA
ATOM     20  N   UNL     1      48.808   8.021  15.311  0.00  0.00    +0.000 N 
ATOM     21  H   UNL     1      49.346   7.181  15.157  0.00  0.00    +0.000 HD
BRANCH  18  29
ATOM     22  C   UNL     1      48.345   4.924  16.746  0.00  0.00    +0.000 A 
ATOM     23  N   UNL     1      48.315   3.627  17.112  0.00  0.00    +0.000 NA
ATOM     24  C   UNL     1      48.580   3.320  18.382  0.00  0.00    +0.000 A 
ATOM     25  N   UNL     1      48.887   4.167  19.358  0.00  0.00    +0.000 NA
ATOM     26  C   UNL     1      48.896   5.451  18.958  0.00  0.00    +0.000 A 
ATOM     27  S   UNL     1      49.290   6.667  20.073  0.00  0.00    +0.000 S 
ATOM     28  C   UNL     1      49.073   7.880  18.902  0.00  0.00    +0.000 A 
ATOM     29  C   UNL     1      48.696   7.398  17.654  0.00  0.00    +0.000 A 
ATOM     30  C   UNL     1      48.623   5.937  17.682  0.00  0.00    +0.000 A 
BRANCH  22  32
ATOM     31  C   UNL     1      47.007   4.542  14.863  0.00  0.00    +0.000 C 
ATOM     32  O   UNL     1      48.129   5.228  15.416  0.00  0.00    +0.000 OA
ENDBRANCH  22  32
ENDBRANCH  18  29
ENDBRANCH   1  20
TORSDOF 7
ENDMDL
MODEL 3
REMARK VINA RESULT:    -7.285      2.199      4.067
REMARK INTER + INTRA:         -11.823
REMARK INTER:                 -10.536
REMARK INTRA:                  -1.286
REMARK UNBOUND:                -1.557
REMARK  Name = 
REMARK  9 active torsions:
REMARK  status: ('A' for Active; 'I' for Inactive)
REMARK    1  A    between atoms: C_1  and  O_2
REMARK    2  A    between atoms: O_2  and  C_3
REMARK    3  A    between atoms: C_10  and  C_11
REMARK    4  A    between atoms: N_13  and  C_14
REMARK    5  A    between atoms: C_14  and  C_15
REMARK    6  A    between atoms: C_18  and  N_19
REMARK    7  A    between atoms: N_19  and  C_20
REMARK    8  A    between atoms: C_20  and  C_21
REMARK    9  A    between atoms: C_20  and  C_22
REMARK                            x       y       z     vdW  Elec       q    Type
REMARK                         _______ _______ _______ _____ _____    ______ ____
ROOT
ATOM      1  C   UNL     1      47.149   4.734  15.141  0.00  0.00    +0.000 C 
ENDROOT
BRANCH   1   2
ATOM      2  C   UNL     1      46.299   4.495  13.918  0.00  0.00    +0.000 A 
ATOM      3  C   UNL     1      45.466   5.503  13.417  0.00  0.00    +0.000 A 
ATOM      4  C   UNL     1      44.748   5.318  12.227  0.00  0.00    +0.000 A 
ATOM      5  C   UNL     1      44.851   4.132  11.499  0.00  0.00    +0.000 A 
ATOM      6  C   UNL     1      45.602   3.090  12.060  0.00  0.00    +0.000 A 
ATOM      7  C   UNL     1      46.324   3.267  13.250  0.00  0.00    +0.000 A 
BRANCH   5   8
ATOM      8  N   UNL     1      44.234   3.921  10.269  0.00  0.00    +0.000 N 
ATOM      9  H   UNL     1      43.224   3.995  10.300  0.00  0.00    +0.000 HD
BRANCH   8  10
ATOM     10  C   UNL     1      44.863   4.361   9.020  0.00  0.00    +0.000 C 
ATOM     11  C   UNL     1      45.858   5.486   9.350  0.00  0.00    +0.000 C 
BRANCH  10  12
ATOM     12  C   UNL     1      45.595   3.269   8.252  0.00  0.00    +0.000 A 
ATOM     13  C   UNL     1      46.381   3.639   7.144  0.00  0.00    +0.000 A 
ATOM     14  C   UNL     1      47.188   2.709   6.487  0.00  0.00    +0.000 A 
ATOM     15  C   UNL     1      47.217   1.387   6.920  0.00  0.00    +0.000 A 
ATOM     16  C   UNL     1      46.421   0.993   7.994  0.00  0.00    +0.000 A 
ATOM     17  C   UNL     1      45.618   1.926   8.658  0.00  0.00    +0.000 A 
ENDBRANCH  10  12
ENDBRANCH   8  10
ENDBRANCH   5   8
ENDBRANCH   1   2
BRANCH   1  20
ATOM     18  C   UNL     1      48.967   6.262  15.795  0.00  0.00    +0.000 C 
ATOM     19  O   UNL     1      49.460   5.410  16.538  0.00  0.00    +0.000 OA
ATOM     20  N   UNL     1      47.826   6.005  15.082  0.00  0.00    +0.000 N 
ATOM     21  H   UNL     1      47.388   6.742  14.549  0.00  0.00    +0.000 HD
BRANCH  18  29
ATOM     22  C   UNL     1      49.873   8.112  13.032  0.00  0.00    +0.000 A 
ATOM     23  N   UNL     1      50.390   8.996  12.154  0.00  0.00    +0.000 NA
ATOM     24  C   UNL     1      50.988  10.088  12.630  0.00  0.00    +0.000 A 
ATOM     25  N   UNL     1      51.130  10.423  13.908  0.00  0.00    +0.000 NA
ATOM     26  C   UNL     1      50.613   9.515  14.753  0.00  0.00    +0.000 A 
ATOM     27  S   UNL     1      50.689   9.794  16.424  0.00  0.00    +0.000 S 
ATOM     28  C   UNL     1      49.915   8.318  16.756  0.00  0.00    +0.000 A 
ATOM     29  C   UNL     1      49.590   7.583  15.621  0.00  0.00    +0.000 A 
ATOM     30  C   UNL     1      49.980   8.320  14.419  0.00  0.00    +0.000 A 
BRANCH  22  32
ATOM     31  C   UNL     1      48.096   7.368  11.701  0.00  0.00    +0.000 C 
ATOM     32  O   UNL     1      49.203   7.015  12.529  0.00  0.00    +0.000 OA
ENDBRANCH  22  32
ENDBRANCH  18  29
ENDBRANCH   1  20
TORSDOF 7
ENDMDL
MODEL 4
REMARK VINA RESULT:    -7.086      1.981      2.674
REMARK INTER + INTRA:         -11.543
REMARK INTER:                 -11.509
REMARK INTRA:                  -0.033
REMARK UNBOUND:                -1.557
REMARK  Name = 
REMARK  9 active torsions:
REMARK  status: ('A' for Active; 'I' for Inactive)
REMARK    1  A    between atoms: C_1  and  O_2
REMARK    2  A    between atoms: O_2  and  C_3
REMARK    3  A    between atoms: C_10  and  C_11
REMARK    4  A    between atoms: N_13  and  C_14
REMARK    5  A    between atoms: C_14  and  C_15
REMARK    6  A    between atoms: C_18  and  N_19
REMARK    7  A    between atoms: N_19  and  C_20
REMARK    8  A    between atoms: C_20  and  C_21
REMARK    9  A    between atoms: C_20  and  C_22
REMARK                            x       y       z     vdW  Elec       q    Type
REMARK                         _______ _______ _______ _____ _____    ______ ____
ROOT
ATOM      1  C   UNL     1      48.066   7.105  13.614  0.00  0.00    +0.000 C 
ENDROOT
BRANCH   1   2
ATOM      2  C   UNL     1      47.147   6.045  13.062  0.00  0.00    +0.000 A 
ATOM      3  C   UNL     1      46.394   6.282  11.904  0.00  0.00    +0.000 A 
ATOM      4  C   UNL     1      45.613   5.267  11.333  0.00  0.00    +0.000 A 
ATOM      5  C   UNL     1      45.571   3.989  11.891  0.00  0.00    +0.000 A 
ATOM      6  C   UNL     1      46.241   3.789  13.106  0.00  0.00    +0.000 A 
ATOM      7  C   UNL     1      47.026   4.798  13.683  0.00  0.00    +0.000 A 
BRANCH   5   8
ATOM      8  N   UNL     1      44.886   2.917  11.324  0.00  0.00    +0.000 N 
ATOM      9  H   UNL     1      44.369   2.361  11.995  0.00  0.00    +0.000 HD
BRANCH   8  10
ATOM     10  C   UNL     1      44.284   3.022   9.992  0.00  0.00    +0.000 C 
ATOM     11  C   UNL     1      43.708   4.438   9.832  0.00  0.00    +0.000 C 
BRANCH  10  12
ATOM     12  C   UNL     1      45.235   2.747   8.836  0.00  0.00    +0.000 A 
ATOM     13  C   UNL     1      45.646   3.828   8.033  0.00  0.00    +0.000 A 
ATOM     14  C   UNL     1      46.624   3.668   7.050  0.00  0.00    +0.000 A 
ATOM     15  C   UNL     1      47.204   2.420   6.845  0.00  0.00    +0.000 A 
ATOM     16  C   UNL     1      46.787   1.330   7.606  0.00  0.00    +0.000 A 
ATOM     17  C   UNL     1      45.813   1.490   8.596  0.00  0.00    +0.000 A 
ENDBRANCH  10  12
ENDBRANCH   8  10
ENDBRANCH   5   8
ENDBRANCH   1   2
BRANCH   1  20
ATOM     18  C   UNL     1      48.984   6.966  15.895  0.00  0.00    +0.000 C 
ATOM     19  O   UNL     1      50.078   6.593  15.467  0.00  0.00    +0.000 OA
ATOM     20  N   UNL     1      47.943   7.229  15.045  0.00  0.00    +0.000 N 
ATOM     21  H   UNL     1      47.030   7.447  15.417  0.00  0.00    +0.000 HD
BRANCH  18  29
ATOM     22  C   UNL     1      48.993   4.854  18.619  0.00  0.00    +0.000 A 
ATOM     23  N   UNL     1      48.852   4.258  19.821  0.00  0.00    +0.000 NA
ATOM     24  C   UNL     1      48.489   5.009  20.861  0.00  0.00    +0.000 A 
ATOM     25  N   UNL     1      48.249   6.315  20.855  0.00  0.00    +0.000 NA
ATOM     26  C   UNL     1      48.389   6.871  19.638  0.00  0.00    +0.000 A 
ATOM     27  S   UNL     1      48.142   8.539  19.452  0.00  0.00    +0.000 S 
ATOM     28  C   UNL     1      48.458   8.450  17.785  0.00  0.00    +0.000 A 
ATOM     29  C   UNL     1      48.749   7.168  17.333  0.00  0.00    +0.000 A 
ATOM     30  C   UNL     1      48.740   6.227  18.454  0.00  0.00    +0.000 A 
BRANCH  22  32
ATOM     31  C   UNL     1      48.735   2.839  17.454  0.00  0.00    +0.000 C 
ATOM     32  O   UNL     1      49.429   4.082  17.560  0.00  0.00    +0.000 OA
ENDBRANCH  22  32
ENDBRANCH  18  29
ENDBRANCH   1  20
TORSDOF 7
ENDMDL
MODEL 5
REMARK VINA RESULT:    -7.045      1.925      2.928
REMARK INTER + INTRA:         -11.484
REMARK INTER:                 -10.130
REMARK INTRA:                  -1.354
REMARK UNBOUND:                -1.557
REMARK  Name = 
REMARK  9 active torsions:
REMARK  status: ('A' for Active; 'I' for Inactive)
REMARK    1  A    between atoms: C_1  and  O_2
REMARK    2  A    between atoms: O_2  and  C_3
REMARK    3  A    between atoms: C_10  and  C_11
REMARK    4  A    between atoms: N_13  and  C_14
REMARK    5  A    between atoms: C_14  and  C_15
REMARK    6  A    between atoms: C_18  and  N_19
REMARK    7  A    between atoms: N_19  and  C_20
REMARK    8  A    between atoms: C_20  and  C_21
REMARK    9  A    between atoms: C_20  and  C_22
REMARK                            x       y       z     vdW  Elec       q    Type
REMARK                         _______ _______ _______ _____ _____    ______ ____
ROOT
ATOM      1  C   UNL     1      48.301   8.574  14.919  0.00  0.00    +0.000 C 
ENDROOT
BRANCH   1   2
ATOM      2  C   UNL     1      47.492   7.968  13.800  0.00  0.00    +0.000 A 
ATOM      3  C   UNL     1      47.605   6.607  13.491  0.00  0.00    +0.000 A 
ATOM      4  C   UNL     1      46.785   6.019  12.516  0.00  0.00    +0.000 A 
ATOM      5  C   UNL     1      45.824   6.768  11.836  0.00  0.00    +0.000 A 
ATOM      6  C   UNL     1      45.789   8.148  12.074  0.00  0.00    +0.000 A 
ATOM      7  C   UNL     1      46.605   8.744  13.047  0.00  0.00    +0.000 A 
BRANCH   5   8
ATOM      8  N   UNL     1      44.922   6.226  10.923  0.00  0.00    +0.000 N 
ATOM      9  H   UNL     1      44.994   6.623   9.993  0.00  0.00    +0.000 HD
BRANCH   8  10
ATOM     10  C   UNL     1      44.545   4.811  10.979  0.00  0.00    +0.000 C 
ATOM     11  C   UNL     1      43.013   4.723  11.079  0.00  0.00    +0.000 C 
BRANCH  10  12
ATOM     12  C   UNL     1      45.008   3.977   9.792  0.00  0.00    +0.000 A 
ATOM     13  C   UNL     1      45.651   4.630   8.724  0.00  0.00    +0.000 A 
ATOM     14  C   UNL     1      46.224   3.908   7.675  0.00  0.00    +0.000 A 
ATOM     15  C   UNL     1      46.157   2.518   7.671  0.00  0.00    +0.000 A 
ATOM     16  C   UNL     1      45.495   1.855   8.703  0.00  0.00    +0.000 A 
ATOM     17  C   UNL     1      44.927   2.576   9.757  0.00  0.00    +0.000 A 
ENDBRANCH  10  12
ENDBRANCH   8  10
ENDBRANCH   5   8
ENDBRANCH   1   2
BRANCH   1  20
ATOM     18  C   UNL     1      49.279   7.198  16.712  0.00  0.00    +0.000 C 
ATOM     19  O   UNL     1      48.417   7.570  17.512  0.00  0.00    +0.000 OA
ATOM     20  N   UNL     1      49.292   7.656  15.422  0.00  0.00    +0.000 N 
ATOM     21  H   UNL     1      50.054   7.411  14.807  0.00  0.00    +0.000 HD
BRANCH  18  29
ATOM     22  C   UNL     1      49.414   3.754  16.765  0.00  0.00    +0.000 A 
ATOM     23  N   UNL     1      49.711   2.454  16.963  0.00  0.00    +0.000 NA
ATOM     24  C   UNL     1      50.897   2.147  17.489  0.00  0.00    +0.000 A 
ATOM     25  N   UNL     1      51.853   2.997  17.844  0.00  0.00    +0.000 NA
ATOM     26  C   UNL     1      51.518   4.283  17.642  0.00  0.00    +0.000 A 
ATOM     27  S   UNL     1      52.633   5.504  18.022  0.00  0.00    +0.000 S 
ATOM     28  C   UNL     1      51.543   6.717  17.545  0.00  0.00    +0.000 A 
ATOM     29  C   UNL     1      50.319   6.232  17.098  0.00  0.00    +0.000 A 
ATOM     30  C   UNL     1      50.319   4.769  17.126  0.00  0.00    +0.000 A 
BRANCH  22  32
ATOM     31  C   UNL     1      47.118   4.083  17.083  0.00  0.00    +0.000 C 
ATOM     32  O   UNL     1      48.209   4.061  16.164  0.00  0.00    +0.000 OA
ENDBRANCH  22  32
ENDBRANCH  18  29
ENDBRANCH   1  20
TORSDOF 7
ENDMDL
MODEL 6
REMARK VINA RESULT:    -6.834      1.436      2.226
REMARK INTER + INTRA:         -11.187
REMARK INTER:                 -11.009
REMARK INTRA:                  -0.178
REMARK UNBOUND:                -1.557
REMARK  Name = 
REMARK  9 active torsions:
REMARK  status: ('A' for Active; 'I' for Inactive)
REMARK    1  A    between atoms: C_1  and  O_2
REMARK    2  A    between atoms: O_2  and  C_3
REMARK    3  A    between atoms: C_10  and  C_11
REMARK    4  A    between atoms: N_13  and  C_14
REMARK    5  A    between atoms: C_14  and  C_15
REMARK    6  A    between atoms: C_18  and  N_19
REMARK    7  A    between atoms: N_19  and  C_20
REMARK    8  A    between atoms: C_20  and  C_21
REMARK    9  A    between atoms: C_20  and  C_22
REMARK                            x       y       z     vdW  Elec       q    Type
REMARK                         _______ _______ _______ _____ _____    ______ ____
ROOT
ATOM      1  C   UNL     1      46.705   7.734  13.400  0.00  0.00    +0.000 C 
ENDROOT
BRANCH   1   2
ATOM      2  C   UNL     1      46.326   6.423  12.758  0.00  0.00    +0.000 A 
ATOM      3  C   UNL     1      45.971   5.319  13.542  0.00  0.00    +0.000 A 
ATOM      4  C   UNL     1      45.525   4.128  12.949  0.00  0.00    +0.000 A 
ATOM      5  C   UNL     1      45.409   4.012  11.563  0.00  0.00    +0.000 A 
ATOM      6  C   UNL     1      45.866   5.082  10.782  0.00  0.00    +0.000 A 
ATOM      7  C   UNL     1      46.312   6.277  11.367  0.00  0.00    +0.000 A 
BRANCH   5   8
ATOM      8  N   UNL     1      44.892   2.891  10.920  0.00  0.00    +0.000 N 
ATOM      9  H   UNL     1      44.405   2.252  11.538  0.00  0.00    +0.000 HD
BRANCH   8  10
ATOM     10  C   UNL     1      44.363   2.977   9.556  0.00  0.00    +0.000 C 
ATOM     11  C   UNL     1      43.833   4.402   9.331  0.00  0.00    +0.000 C 
BRANCH  10  12
ATOM     12  C   UNL     1      45.366   2.649   8.458  0.00  0.00    +0.000 A 
ATOM     13  C   UNL     1      45.745   3.671   7.568  0.00  0.00    +0.000 A 
ATOM     14  C   UNL     1      46.763   3.476   6.633  0.00  0.00    +0.000 A 
ATOM     15  C   UNL     1      47.415   2.248   6.564  0.00  0.00    +0.000 A 
ATOM     16  C   UNL     1      47.032   1.212   7.414  0.00  0.00    +0.000 A 
ATOM     17  C   UNL     1      46.017   1.410   8.356  0.00  0.00    +0.000 A 
ENDBRANCH  10  12
ENDBRANCH   8  10
ENDBRANCH   5   8
ENDBRANCH   1   2
BRANCH   1  20
ATOM     18  C   UNL     1      49.024   7.306  14.109  0.00  0.00    +0.000 C 
ATOM     19  O   UNL     1      49.396   7.195  12.939  0.00  0.00    +0.000 OA
ATOM     20  N   UNL     1      47.714   7.562  14.414  0.00  0.00    +0.000 N 
ATOM     21  H   UNL     1      47.412   7.562  15.377  0.00  0.00    +0.000 HD
BRANCH  18  29
ATOM     22  C   UNL     1      49.020   5.491  17.039  0.00  0.00    +0.000 A 
ATOM     23  N   UNL     1      49.240   4.975  18.266  0.00  0.00    +0.000 NA
ATOM     24  C   UNL     1      50.338   5.348  18.924  0.00  0.00    +0.000 A 
ATOM     25  N   UNL     1      51.274   6.188  18.496  0.00  0.00    +0.000 NA
ATOM     26  C   UNL     1      51.016   6.689  17.276  0.00  0.00    +0.000 A 
ATOM     27  S   UNL     1      52.120   7.764  16.567  0.00  0.00    +0.000 S 
ATOM     28  C   UNL     1      51.145   7.932  15.185  0.00  0.00    +0.000 A 
ATOM     29  C   UNL     1      49.970   7.191  15.230  0.00  0.00    +0.000 A 
ATOM     30  C   UNL     1      49.911   6.420  16.472  0.00  0.00    +0.000 A 
BRANCH  22  32
ATOM     31  C   UNL     1      47.743   3.637  16.395  0.00  0.00    +0.000 C 
ATOM     32  O   UNL     1      47.913   5.053  16.340  0.00  0.00    +0.000 OA
ENDBRANCH  22  32
ENDBRANCH  18  29
ENDBRANCH   1  20
TORSDOF 7
ENDMDL
MODEL 7
REMARK VINA RESULT:    -6.786      2.691      4.003
REMARK INTER + INTRA:         -11.120
REMARK INTER:                 -10.275
REMARK INTRA:                  -0.845
REMARK UNBOUND:                -1.557
REMARK  Name = 
REMARK  9 active torsions:
REMARK  status: ('A' for Active; 'I' for Inactive)
REMARK    1  A    between atoms: C_1  and  O_2
REMARK    2  A    between atoms: O_2  and  C_3
REMARK    3  A    between atoms: C_10  and  C_11
REMARK    4  A    between atoms: N_13  and  C_14
REMARK    5  A    between atoms: C_14  and  C_15
REMARK    6  A    between atoms: C_18  and  N_19
REMARK    7  A    between atoms: N_19  and  C_20
REMARK    8  A    between atoms: C_20  and  C_21
REMARK    9  A    between atoms: C_20  and  C_22
REMARK                            x       y       z     vdW  Elec       q    Type
REMARK                         _______ _______ _______ _____ _____    ______ ____
ROOT
ATOM      1  C   UNL     1      47.096   4.699  15.037  0.00  0.00    +0.000 C 
ENDROOT
BRANCH   1   2
ATOM      2  C   UNL     1      46.258   4.510  13.798  0.00  0.00    +0.000 A 
ATOM      3  C   UNL     1      45.526   5.577  13.260  0.00  0.00    +0.000 A 
ATOM      4  C   UNL     1      44.823   5.432  12.055  0.00  0.00    +0.000 A 
ATOM      5  C   UNL     1      44.842   4.228  11.349  0.00  0.00    +0.000 A 
ATOM      6  C   UNL     1      45.487   3.137  11.945  0.00  0.00    +0.000 A 
ATOM      7  C   UNL     1      46.194   3.273  13.150  0.00  0.00    +0.000 A 
BRANCH   5   8
ATOM      8  N   UNL     1      44.238   4.048  10.107  0.00  0.00    +0.000 N 
ATOM      9  H   UNL     1      43.239   4.217  10.110  0.00  0.00    +0.000 HD
BRANCH   8  10
ATOM     10  C   UNL     1      44.936   4.400   8.867  0.00  0.00    +0.000 C 
ATOM     11  C   UNL     1      45.946   5.516   9.181  0.00  0.00    +0.000 C 
BRANCH  10  12
ATOM     12  C   UNL     1      45.672   3.248   8.197  0.00  0.00    +0.000 A 
ATOM     13  C   UNL     1      46.626   3.546   7.206  0.00  0.00    +0.000 A 
ATOM     14  C   UNL     1      47.435   2.550   6.657  0.00  0.00    +0.000 A 
ATOM     15  C   UNL     1      47.297   1.232   7.082  0.00  0.00    +0.000 A 
ATOM     16  C   UNL     1      46.335   0.910   8.038  0.00  0.00    +0.000 A 
ATOM     17  C   UNL     1      45.530   1.909   8.594  0.00  0.00    +0.000 A 
ENDBRANCH  10  12
ENDBRANCH   8  10
ENDBRANCH   5   8
ENDBRANCH   1   2
BRANCH   1  20
ATOM     18  C   UNL     1      48.886   6.207  15.805  0.00  0.00    +0.000 C 
ATOM     19  O   UNL     1      49.340   5.339  16.554  0.00  0.00    +0.000 OA
ATOM     20  N   UNL     1      47.780   5.968  15.034  0.00  0.00    +0.000 N 
ATOM     21  H   UNL     1      47.370   6.716  14.494  0.00  0.00    +0.000 HD
BRANCH  18  29
ATOM     22  C   UNL     1      49.508   8.750  18.046  0.00  0.00    +0.000 A 
ATOM     23  N   UNL     1      49.797   9.911  18.670  0.00  0.00    +0.000 NA
ATOM     24  C   UNL     1      50.332  10.900  17.954  0.00  0.00    +0.000 A 
ATOM     25  N   UNL     1      50.632  10.874  16.660  0.00  0.00    +0.000 NA
ATOM     26  C   UNL     1      50.321   9.706  16.071  0.00  0.00    +0.000 A 
ATOM     27  S   UNL     1      50.656   9.491  14.422  0.00  0.00    +0.000 S 
ATOM     28  C   UNL     1      50.008   7.921  14.443  0.00  0.00    +0.000 A 
ATOM     29  C   UNL     1      49.521   7.528  15.685  0.00  0.00    +0.000 A 
ATOM     30  C   UNL     1      49.741   8.590  16.668  0.00  0.00    +0.000 A 
BRANCH  22  32
ATOM     31  C   UNL     1      47.600   7.794  19.009  0.00  0.00    +0.000 C 
ATOM     32  O   UNL     1      49.010   7.711  18.807  0.00  0.00    +0.000 OA
ENDBRANCH  22  32
ENDBRANCH  18  29
ENDBRANCH   1  20
TORSDOF 7
ENDMDL
MODEL 8
REMARK VINA RESULT:    -6.634      3.708      8.832
REMARK INTER + INTRA:         -10.905
REMARK INTER:                  -9.532
REMARK INTRA:                  -1.373
REMARK UNBOUND:                -1.557
REMARK  Name = 
REMARK  9 active torsions:
REMARK  status: ('A' for Active; 'I' for Inactive)
REMARK    1  A    between atoms: C_1  and  O_2
REMARK    2  A    between atoms: O_2  and  C_3
REMARK    3  A    between atoms: C_10  and  C_11
REMARK    4  A    between atoms: N_13  and  C_14
REMARK    5  A    between atoms: C_14  and  C_15
REMARK    6  A    between atoms: C_18  and  N_19
REMARK    7  A    between atoms: N_19  and  C_20
REMARK    8  A    between atoms: C_20  and  C_21
REMARK    9  A    between atoms: C_20  and  C_22
REMARK                            x       y       z     vdW  Elec       q    Type
REMARK                         _______ _______ _______ _____ _____    ______ ____
ROOT
ATOM      1  C   UNL     1      47.189   3.274  16.864  0.00  0.00    +0.000 C 
ENDROOT
BRANCH   1   2
ATOM      2  C   UNL     1      48.643   3.191  17.256  0.00  0.00    +0.000 A 
ATOM      3  C   UNL     1      49.438   2.117  16.837  0.00  0.00    +0.000 A 
ATOM      4  C   UNL     1      50.812   2.085  17.118  0.00  0.00    +0.000 A 
ATOM      5  C   UNL     1      51.430   3.127  17.811  0.00  0.00    +0.000 A 
ATOM      6  C   UNL     1      50.612   4.145  18.318  0.00  0.00    +0.000 A 
ATOM      7  C   UNL     1      49.237   4.185  18.041  0.00  0.00    +0.000 A 
BRANCH   5   8
ATOM      8  N   UNL     1      52.802   3.197  18.044  0.00  0.00    +0.000 N 
ATOM      9  H   UNL     1      53.348   2.574  17.460  0.00  0.00    +0.000 HD
BRANCH   8  10
ATOM     10  C   UNL     1      53.447   4.465  18.394  0.00  0.00    +0.000 C 
ATOM     11  C   UNL     1      54.643   4.162  19.312  0.00  0.00    +0.000 C 
BRANCH  10  12
ATOM     12  C   UNL     1      53.937   5.283  17.207  0.00  0.00    +0.000 A 
ATOM     13  C   UNL     1      55.155   4.924  16.601  0.00  0.00    +0.000 A 
ATOM     14  C   UNL     1      55.588   5.540  15.425  0.00  0.00    +0.000 A 
ATOM     15  C   UNL     1      54.813   6.536  14.838  0.00  0.00    +0.000 A 
ATOM     16  C   UNL     1      53.619   6.929  15.441  0.00  0.00    +0.000 A 
ATOM     17  C   UNL     1      53.182   6.307  16.614  0.00  0.00    +0.000 A 
ENDBRANCH  10  12
ENDBRANCH   8  10
ENDBRANCH   5   8
ENDBRANCH   1   2
BRANCH   1  20
ATOM     18  C   UNL     1      46.974   4.199  14.592  0.00  0.00    +0.000 C 
ATOM     19  O   UNL     1      47.236   3.106  14.086  0.00  0.00    +0.000 OA
ATOM     20  N   UNL     1      46.941   4.361  15.951  0.00  0.00    +0.000 N 
ATOM     21  H   UNL     1      46.813   5.281  16.346  0.00  0.00    +0.000 HD
BRANCH  18  29
ATOM     22  C   UNL     1      44.224   5.133  12.736  0.00  0.00    +0.000 A 
ATOM     23  N   UNL     1      43.342   5.698  11.886  0.00  0.00    +0.000 NA
ATOM     24  C   UNL     1      43.682   6.839  11.285  0.00  0.00    +0.000 A 
ATOM     25  N   UNL     1      44.818   7.510  11.437  0.00  0.00    +0.000 NA
ATOM     26  C   UNL     1      45.675   6.911  12.283  0.00  0.00    +0.000 A 
ATOM     27  S   UNL     1      47.170   7.644  12.610  0.00  0.00    +0.000 S 
ATOM     28  C   UNL     1      47.621   6.376  13.646  0.00  0.00    +0.000 A 
ATOM     29  C   UNL     1      46.664   5.374  13.763  0.00  0.00    +0.000 A 
ATOM     30  C   UNL     1      45.483   5.716  12.969  0.00  0.00    +0.000 A 
BRANCH  22  32
ATOM     31  C   UNL     1      43.712   2.858  12.534  0.00  0.00    +0.000 C 
ATOM     32  O   UNL     1      43.840   3.985  13.400  0.00  0.00    +0.000 OA
ENDBRANCH  22  32
ENDBRANCH  18  29
ENDBRANCH   1  20
TORSDOF 7
ENDMDL
MODEL 9
REMARK VINA RESULT:    -6.586      3.693      7.895
REMARK INTER + INTRA:         -10.838
REMARK INTER:                  -9.179
REMARK INTRA:                  -1.659
REMARK UNBOUND:                -1.557
REMARK  Name = 
REMARK  9 active torsions:
REMARK  status: ('A' for Active; 'I' for Inactive)
REMARK    1  A    between atoms: C_1  and  O_2
REMARK    2  A    between atoms: O_2  and  C_3
REMARK    3  A    between atoms: C_10  and  C_11
REMARK    4  A    between atoms: N_13  and  C_14
REMARK    5  A    between atoms: C_14  and  C_15
REMARK    6  A    between atoms: C_18  and  N_19
REMARK    7  A    between atoms: N_19  and  C_20
REMARK    8  A    between atoms: C_20  and  C_21
REMARK    9  A    between atoms: C_20  and  C_22
REMARK                            x       y       z     vdW  Elec       q    Type
REMARK                         _______ _______ _______ _____ _____    ______ ____
ROOT
ATOM      1  C   UNL     1      47.899   8.984  13.797  0.00  0.00    +0.000 C 
ENDROOT
BRANCH   1   2
ATOM      2  C   UNL     1      48.441   8.463  15.105  0.00  0.00    +0.000 A 
ATOM      3  C   UNL     1      48.178   9.134  16.306  0.00  0.00    +0.000 A 
ATOM      4  C   UNL     1      48.598   8.602  17.534  0.00  0.00    +0.000 A 
ATOM      5  C   UNL     1      49.277   7.385  17.598  0.00  0.00    +0.000 A 
ATOM      6  C   UNL     1      49.629   6.774  16.388  0.00  0.00    +0.000 A 
ATOM      7  C   UNL     1      49.213   7.298  15.155  0.00  0.00    +0.000 A 
BRANCH   5   8
ATOM      8  N   UNL     1      49.643   6.762  18.789  0.00  0.00    +0.000 N 
ATOM      9  H   UNL     1      49.865   7.409  19.537  0.00  0.00    +0.000 HD
BRANCH   8  10
ATOM     10  C   UNL     1      49.022   5.502  19.207  0.00  0.00    +0.000 C 
ATOM     11  C   UNL     1      47.510   5.599  18.951  0.00  0.00    +0.000 C 
BRANCH  10  12
ATOM     12  C   UNL     1      49.559   4.261  18.506  0.00  0.00    +0.000 A 
ATOM     13  C   UNL     1      48.651   3.428  17.826  0.00  0.00    +0.000 A 
ATOM     14  C   UNL     1      49.094   2.358  17.046  0.00  0.00    +0.000 A 
ATOM     15  C   UNL     1      50.456   2.095  16.941  0.00  0.00    +0.000 A 
ATOM     16  C   UNL     1      51.370   2.887  17.634  0.00  0.00    +0.000 A 
ATOM     17  C   UNL     1      50.927   3.964  18.409  0.00  0.00    +0.000 A 
ENDBRANCH  10  12
ENDBRANCH   8  10
ENDBRANCH   5   8
ENDBRANCH   1   2
BRANCH   1  20
ATOM     18  C   UNL     1      46.732   7.331  12.393  0.00  0.00    +0.000 C 
ATOM     19  O   UNL     1      47.773   7.061  11.789  0.00  0.00    +0.000 OA
ATOM     20  N   UNL     1      46.715   8.272  13.387  0.00  0.00    +0.000 N 
ATOM     21  H   UNL     1      45.838   8.544  13.809  0.00  0.00    +0.000 HD
BRANCH  18  29
ATOM     22  C   UNL     1      45.650   4.082  12.782  0.00  0.00    +0.000 A 
ATOM     23  N   UNL     1      45.006   2.897  12.741  0.00  0.00    +0.000 NA
ATOM     24  C   UNL     1      43.785   2.857  12.208  0.00  0.00    +0.000 A 
ATOM     25  N   UNL     1      43.103   3.879  11.704  0.00  0.00    +0.000 NA
ATOM     26  C   UNL     1      43.780   5.040  11.751  0.00  0.00    +0.000 A 
ATOM     27  S   UNL     1      43.049   6.455  11.168  0.00  0.00    +0.000 S 
ATOM     28  C   UNL     1      44.429   7.377  11.531  0.00  0.00    +0.000 A 
ATOM     29  C   UNL     1      45.468   6.642  12.091  0.00  0.00    +0.000 A 
ATOM     30  C   UNL     1      45.063   5.245  12.253  0.00  0.00    +0.000 A 
BRANCH  22  32
ATOM     31  C   UNL     1      46.817   4.451  14.777  0.00  0.00    +0.000 C 
ATOM     32  O   UNL     1      46.889   4.126  13.390  0.00  0.00    +0.000 OA
ENDBRANCH  22  32
ENDBRANCH  18  29
ENDBRANCH   1  20
TORSDOF 7
ENDMDL
