MODEL 1
REMARK VINA RESULT:    -7.282      0.000      0.000
REMARK INTER + INTRA:          -9.068
REMARK INTER:                  -8.559
REMARK INTRA:                  -0.510
REMARK UNBOUND:                -0.510
REMARK  Name = 
REMARK  6 active torsions:
REMARK  status: ('A' for Active; 'I' for Inactive)
REMARK    1  A    between atoms: C_1  and  C_2
REMARK    2  A    between atoms: C_2  and  C_3
REMARK    3  A    between atoms: C_2  and  C_4
REMARK    4  A    between atoms: C_2  and  C_5
REMARK    5  A    between atoms: N_7  and  C_8
REMARK    6  A    between atoms: C_8  and  C_9
REMARK                            x       y       z     vdW  Elec       q    Type
REMARK                         _______ _______ _______ _____ _____    ______ ____
ROOT
ATOM      1  C   UNL     1      46.045   5.851  11.486  0.00  0.00    +0.000 A 
ATOM      2  C   UNL     1      46.021   5.750  10.104  0.00  0.00    +0.000 A 
ATOM      3  N   UNL     1      45.138   4.771   9.733  0.00  0.00    +0.000 N 
ATOM      4  C   UNL     1      44.546   4.227  10.848  0.00  0.00    +0.000 A 
ATOM      5  C   UNL     1      43.584   3.223  10.968  0.00  0.00    +0.000 A 
ATOM      6  N   UNL     1      43.156   2.853  12.194  0.00  0.00    +0.000 NA
ATOM      7  C   UNL     1      43.652   3.489  13.273  0.00  0.00    +0.000 A 
ATOM      8  C   UNL     1      44.594   4.506  13.226  0.00  0.00    +0.000 A 
ATOM      9  C   UNL     1      45.077   4.888  11.962  0.00  0.00    +0.000 A 
ENDROOT
BRANCH   1  11
ATOM     10  C   UNL     1      46.029   7.961  12.850  0.00  0.00    +0.000 C 
ATOM     11  C   UNL     1      46.913   6.833  12.281  0.00  0.00    +0.000 C 
ATOM     12  C   UNL     1      47.992   7.478  11.375  0.00  0.00    +0.000 C 
ATOM     13  C   UNL     1      47.668   6.152  13.438  0.00  0.00    +0.000 C 
ENDBRANCH   1  11
BRANCH   3  14
ATOM     14  C   UNL     1      44.903   4.366   8.351  0.00  0.00    +0.000 C 
BRANCH  14  15
ATOM     15  C   UNL     1      45.862   3.286   7.922  0.00  0.00    +0.000 A 
ATOM     16  C   UNL     1      46.930   3.572   7.071  0.00  0.00    +0.000 A 
ATOM     17  C   UNL     1      47.771   2.539   6.670  0.00  0.00    +0.000 A 
ATOM     18  C   UNL     1      47.536   1.251   7.136  0.00  0.00    +0.000 A 
ATOM     19  C   UNL     1      46.469   1.053   7.994  0.00  0.00    +0.000 A 
ATOM     20  N   UNL     1      45.633   2.036   8.400  0.00  0.00    +0.000 NA
ENDBRANCH  14  15
ENDBRANCH   3  14
TORSDOF 3
ENDMDL
MODEL 2
REMARK VINA RESULT:    -7.132      1.541      2.577
REMARK INTER + INTRA:          -8.893
REMARK INTER:                  -8.590
REMARK INTRA:                  -0.303
REMARK UNBOUND:                -0.510
REMARK  Name = 
REMARK  6 active torsions:
REMARK  status: ('A' for Active; 'I' for Inactive)
REMARK    1  A    between atoms: C_1  and  C_2
REMARK    2  A    between atoms: C_2  and  C_3
REMARK    3  A    between atoms: C_2  and  C_4
REMARK    4  A    between atoms: C_2  and  C_5
REMARK    5  A    between atoms: N_7  and  C_8
REMARK    6  A    between atoms: C_8  and  C_9
REMARK                            x       y       z     vdW  Elec       q    Type
REMARK                         _______ _______ _______ _____ _____    ______ ____
ROOT
ATOM      1  C   UNL     1      46.165   7.077  12.074  0.00  0.00    +0.000 A 
ATOM      2  C   UNL     1      45.286   6.739  11.057  0.00  0.00    +0.000 A 
ATOM      3  N   UNL     1      45.026   5.396  11.105  0.00  0.00    +0.000 N 
ATOM      4  C   UNL     1      45.700   4.827  12.160  0.00  0.00    +0.000 A 
ATOM      5  C   UNL     1      45.733   3.506  12.612  0.00  0.00    +0.000 A 
ATOM      6  N   UNL     1      46.486   3.187  13.686  0.00  0.00    +0.000 NA
ATOM      7  C   UNL     1      47.166   4.166  14.314  0.00  0.00    +0.000 A 
ATOM      8  C   UNL     1      47.163   5.500  13.932  0.00  0.00    +0.000 A 
ATOM      9  C   UNL     1      46.411   5.851  12.798  0.00  0.00    +0.000 A 
ENDROOT
BRANCH   1  11
ATOM     10  C   UNL     1      48.101   8.642  11.730  0.00  0.00    +0.000 C 
ATOM     11  C   UNL     1      46.695   8.490  12.344  0.00  0.00    +0.000 C 
ATOM     12  C   UNL     1      46.804   8.761  13.866  0.00  0.00    +0.000 C 
ATOM     13  C   UNL     1      45.774   9.586  11.773  0.00  0.00    +0.000 C 
ENDBRANCH   1  11
BRANCH   3  14
ATOM     14  C   UNL     1      44.179   4.693  10.148  0.00  0.00    +0.000 C 
BRANCH  14  15
ATOM     15  C   UNL     1      44.998   3.872   9.186  0.00  0.00    +0.000 A 
ATOM     16  C   UNL     1      45.033   2.481   9.280  0.00  0.00    +0.000 A 
ATOM     17  C   UNL     1      45.831   1.763   8.395  0.00  0.00    +0.000 A 
ATOM     18  C   UNL     1      46.562   2.445   7.431  0.00  0.00    +0.000 A 
ATOM     19  C   UNL     1      46.457   3.825   7.389  0.00  0.00    +0.000 A 
ATOM     20  N   UNL     1      45.693   4.550   8.236  0.00  0.00    +0.000 NA
ENDBRANCH  14  15
ENDBRANCH   3  14
TORSDOF 3
ENDMDL
MODEL 3
REMARK VINA RESULT:    -6.152      1.850      3.106
REMARK INTER + INTRA:          -7.741
REMARK INTER:                  -7.273
REMARK INTRA:                  -0.468
REMARK UNBOUND:                -0.510
REMARK  Name = 
REMARK  6 active torsions:
REMARK  status: ('A' for Active; 'I' for Inactive)
REMARK    1  A    between atoms: C_1  and  C_2
REMARK    2  A    between atoms: C_2  and  C_3
REMARK    3  A    between atoms: C_2  and  C_4
REMARK    4  A    between atoms: C_2  and  C_5
REMARK    5  A    between atoms: N_7  and  C_8
REMARK    6  A    between atoms: C_8  and  C_9
REMARK                            x       y       z     vdW  Elec       q    Type
REMARK                         _______ _______ _______ _____ _____    ______ ____
ROOT
ATOM      1  C   UNL     1      47.557   7.332  12.397  0.00  0.00    +0.000 A 
ATOM      2  C   UNL     1      46.538   7.219  11.465  0.00  0.00    +0.000 A 
ATOM      3  N   UNL     1      45.761   6.132  11.766  0.00  0.00    +0.000 N 
ATOM      4  C   UNL     1      46.230   5.524  12.907  0.00  0.00    +0.000 A 
ATOM      5  C   UNL     1      45.762   4.405  13.598  0.00  0.00    +0.000 A 
ATOM      6  N   UNL     1      46.405   3.992  14.711  0.00  0.00    +0.000 NA
ATOM      7  C   UNL     1      47.470   4.694  15.142  0.00  0.00    +0.000 A 
ATOM      8  C   UNL     1      47.977   5.824  14.516  0.00  0.00    +0.000 A 
ATOM      9  C   UNL     1      47.343   6.255  13.339  0.00  0.00    +0.000 A 
ENDROOT
BRANCH   1  11
ATOM     10  C   UNL     1      49.970   7.831  11.905  0.00  0.00    +0.000 C 
ATOM     11  C   UNL     1      48.633   8.423  12.396  0.00  0.00    +0.000 C 
ATOM     12  C   UNL     1      48.853   8.989  13.821  0.00  0.00    +0.000 C 
ATOM     13  C   UNL     1      48.256   9.623  11.506  0.00  0.00    +0.000 C 
ENDBRANCH   1  11
BRANCH   3  14
ATOM     14  C   UNL     1      44.628   5.690  10.960  0.00  0.00    +0.000 C 
BRANCH  14  15
ATOM     15  C   UNL     1      45.030   4.612   9.987  0.00  0.00    +0.000 A 
ATOM     16  C   UNL     1      45.745   4.919   8.829  0.00  0.00    +0.000 A 
ATOM     17  C   UNL     1      46.064   3.898   7.940  0.00  0.00    +0.000 A 
ATOM     18  C   UNL     1      45.677   2.596   8.232  0.00  0.00    +0.000 A 
ATOM     19  C   UNL     1      44.989   2.369   9.412  0.00  0.00    +0.000 A 
ATOM     20  N   UNL     1      44.663   3.340  10.294  0.00  0.00    +0.000 NA
ENDBRANCH  14  15
ENDBRANCH   3  14
TORSDOF 3
ENDMDL
MODEL 4
REMARK VINA RESULT:    -5.815      2.074      3.745
REMARK INTER + INTRA:          -7.345
REMARK INTER:                  -7.067
REMARK INTRA:                  -0.277
REMARK UNBOUND:                -0.510
REMARK  Name = 
REMARK  6 active torsions:
REMARK  status: ('A' for Active; 'I' for Inactive)
REMARK    1  A    between atoms: C_1  and  C_2
REMARK    2  A    between atoms: C_2  and  C_3
REMARK    3  A    between atoms: C_2  and  C_4
REMARK    4  A    between atoms: C_2  and  C_5
REMARK    5  A    between atoms: N_7  and  C_8
REMARK    6  A    between atoms: C_8  and  C_9
REMARK                            x       y       z     vdW  Elec       q    Type
REMARK                         _______ _______ _______ _____ _____    ______ ____
ROOT
ATOM      1  C   UNL     1      46.474   7.057  12.679  0.00  0.00    +0.000 A 
ATOM      2  C   UNL     1      45.779   5.928  12.276  0.00  0.00    +0.000 A 
ATOM      3  N   UNL     1      44.649   6.304  11.601  0.00  0.00    +0.000 N 
ATOM      4  C   UNL     1      44.586   7.676  11.522  0.00  0.00    +0.000 A 
ATOM      5  C   UNL     1      43.639   8.509  10.924  0.00  0.00    +0.000 A 
ATOM      6  N   UNL     1      43.798   9.849  10.984  0.00  0.00    +0.000 NA
ATOM      7  C   UNL     1      44.889  10.345  11.597  0.00  0.00    +0.000 A 
ATOM      8  C   UNL     1      45.878   9.576  12.194  0.00  0.00    +0.000 A 
ATOM      9  C   UNL     1      45.719   8.180  12.172  0.00  0.00    +0.000 A 
ENDROOT
BRANCH   1  11
ATOM     10  C   UNL     1      47.839   5.800  14.374  0.00  0.00    +0.000 C 
ATOM     11  C   UNL     1      47.791   7.044  13.464  0.00  0.00    +0.000 C 
ATOM     12  C   UNL     1      47.915   8.301  14.362  0.00  0.00    +0.000 C 
ATOM     13  C   UNL     1      49.027   7.045  12.544  0.00  0.00    +0.000 C 
ENDBRANCH   1  11
BRANCH   3  14
ATOM     14  C   UNL     1      43.659   5.367  11.080  0.00  0.00    +0.000 C 
BRANCH  14  15
ATOM     15  C   UNL     1      44.279   4.389  10.117  0.00  0.00    +0.000 A 
ATOM     16  C   UNL     1      45.144   4.822   9.112  0.00  0.00    +0.000 A 
ATOM     17  C   UNL     1      45.666   3.890   8.220  0.00  0.00    +0.000 A 
ATOM     18  C   UNL     1      45.324   2.551   8.359  0.00  0.00    +0.000 A 
ATOM     19  C   UNL     1      44.477   2.198   9.395  0.00  0.00    +0.000 A 
ATOM     20  N   UNL     1      43.952   3.080  10.275  0.00  0.00    +0.000 NA
ENDBRANCH  14  15
ENDBRANCH   3  14
TORSDOF 3
ENDMDL
MODEL 5
REMARK VINA RESULT:    -5.585      3.285      5.305
REMARK INTER + INTRA:          -7.075
REMARK INTER:                  -6.484
REMARK INTRA:                  -0.591
REMARK UNBOUND:                -0.510
REMARK  Name = 
REMARK  6 active torsions:
REMARK  status: ('A' for Active; 'I' for Inactive)
REMARK    1  A    between atoms: C_1  and  C_2
REMARK    2  A    between atoms: C_2  and  C_3
REMARK    3  A    between atoms: C_2  and  C_4
REMARK    4  A    between atoms: C_2  and  C_5
REMARK    5  A    between atoms: N_7  and  C_8
REMARK    6  A    between atoms: C_8  and  C_9
REMARK                            x       y       z     vdW  Elec       q    Type
REMARK                         _______ _______ _______ _____ _____    ______ ____
ROOT
ATOM      1  C   UNL     1      48.266   6.708  13.955  0.00  0.00    +0.000 A 
ATOM      2  C   UNL     1      47.536   5.876  13.120  0.00  0.00    +0.000 A 
ATOM      3  N   UNL     1      47.098   4.789  13.827  0.00  0.00    +0.000 N 
ATOM      4  C   UNL     1      47.502   4.890  15.138  0.00  0.00    +0.000 A 
ATOM      5  C   UNL     1      47.284   4.040  16.224  0.00  0.00    +0.000 A 
ATOM      6  N   UNL     1      47.795   4.359  17.433  0.00  0.00    +0.000 NA
ATOM      7  C   UNL     1      48.480   5.511  17.563  0.00  0.00    +0.000 A 
ATOM      8  C   UNL     1      48.717   6.410  16.533  0.00  0.00    +0.000 A 
ATOM      9  C   UNL     1      48.221   6.085  15.259  0.00  0.00    +0.000 A 
ENDROOT
BRANCH   1  11
ATOM     10  C   UNL     1      48.791   8.198  12.001  0.00  0.00    +0.000 C 
ATOM     11  C   UNL     1      48.922   8.025  13.528  0.00  0.00    +0.000 C 
ATOM     12  C   UNL     1      50.430   8.036  13.885  0.00  0.00    +0.000 C 
ATOM     13  C   UNL     1      48.302   9.249  14.229  0.00  0.00    +0.000 C 
ENDBRANCH   1  11
BRANCH   3  14
ATOM     14  C   UNL     1      46.341   3.686  13.244  0.00  0.00    +0.000 C 
BRANCH  14  15
ATOM     15  C   UNL     1      45.036   4.161  12.660  0.00  0.00    +0.000 A 
ATOM     16  C   UNL     1      44.802   4.107  11.286  0.00  0.00    +0.000 A 
ATOM     17  C   UNL     1      43.598   4.590  10.785  0.00  0.00    +0.000 A 
ATOM     18  C   UNL     1      42.651   5.101  11.665  0.00  0.00    +0.000 A 
ATOM     19  C   UNL     1      42.949   5.099  13.016  0.00  0.00    +0.000 A 
ATOM     20  N   UNL     1      44.111   4.640  13.533  0.00  0.00    +0.000 NA
ENDBRANCH  14  15
ENDBRANCH   3  14
TORSDOF 3
ENDMDL
MODEL 6
REMARK VINA RESULT:    -5.396      3.566      6.962
REMARK INTER + INTRA:          -6.852
REMARK INTER:                  -6.244
REMARK INTRA:                  -0.608
REMARK UNBOUND:                -0.510
REMARK  Name = 
REMARK  6 active torsions:
REMARK  status: ('A' for Active; 'I' for Inactive)
REMARK    1  A    between atoms: C_1  and  C_2
REMARK    2  A    between atoms: C_2  and  C_3
REMARK    3  A    between atoms: C_2  and  C_4
REMARK    4  A    between atoms: C_2  and  C_5
REMARK    5  A    between atoms: N_7  and  C_8
REMARK    6  A    between atoms: C_8  and  C_9
REMARK                            x       y       z     vdW  Elec       q    Type
REMARK                         _______ _______ _______ _____ _____    ______ ____
ROOT
ATOM      1  C   UNL     1      45.309   5.788  12.179  0.00  0.00    +0.000 A 
ATOM      2  C   UNL     1      46.550   5.529  12.739  0.00  0.00    +0.000 A 
ATOM      3  N   UNL     1      47.261   6.696  12.834  0.00  0.00    +0.000 N 
ATOM      4  C   UNL     1      46.503   7.745  12.368  0.00  0.00    +0.000 A 
ATOM      5  C   UNL     1      46.793   9.107  12.281  0.00  0.00    +0.000 A 
ATOM      6  N   UNL     1      45.871   9.954  11.774  0.00  0.00    +0.000 NA
ATOM      7  C   UNL     1      44.678   9.459  11.392  0.00  0.00    +0.000 A 
ATOM      8  C   UNL     1      44.316   8.122  11.469  0.00  0.00    +0.000 A 
ATOM      9  C   UNL     1      45.270   7.217  11.964  0.00  0.00    +0.000 A 
ENDROOT
BRANCH   1  11
ATOM     10  C   UNL     1      43.020   4.983  12.832  0.00  0.00    +0.000 C 
ATOM     11  C   UNL     1      44.230   4.734  11.910  0.00  0.00    +0.000 C 
ATOM     12  C   UNL     1      44.764   3.307  12.193  0.00  0.00    +0.000 C 
ATOM     13  C   UNL     1      43.755   4.735  10.444  0.00  0.00    +0.000 C 
ENDBRANCH   1  11
BRANCH   3  14
ATOM     14  C   UNL     1      48.629   6.780  13.333  0.00  0.00    +0.000 C 
BRANCH  14  15
ATOM     15  C   UNL     1      48.662   6.945  14.830  0.00  0.00    +0.000 A 
ATOM     16  C   UNL     1      48.642   8.211  15.414  0.00  0.00    +0.000 A 
ATOM     17  C   UNL     1      48.710   8.319  16.799  0.00  0.00    +0.000 A 
ATOM     18  C   UNL     1      48.783   7.165  17.569  0.00  0.00    +0.000 A 
ATOM     19  C   UNL     1      48.776   5.944  16.915  0.00  0.00    +0.000 A 
ATOM     20  N   UNL     1      48.713   5.808  15.572  0.00  0.00    +0.000 NA
ENDBRANCH  14  15
ENDBRANCH   3  14
TORSDOF 3
ENDMDL
MODEL 7
REMARK VINA RESULT:    -5.371      3.586      6.396
REMARK INTER + INTRA:          -6.823
REMARK INTER:                  -6.541
REMARK INTRA:                  -0.282
REMARK UNBOUND:                -0.510
REMARK  Name = 
REMARK  6 active torsions:
REMARK  status: ('A' for Active; 'I' for Inactive)
REMARK    1  A    between atoms: C_1  and  C_2
REMARK    2  A    between atoms: C_2  and  C_3
REMARK    3  A    between atoms: C_2  and  C_4
REMARK    4  A    between atoms: C_2  and  C_5
REMARK    5  A    between atoms: N_7  and  C_8
REMARK    6  A    between atoms: C_8  and  C_9
REMARK                            x       y       z     vdW  Elec       q    Type
REMARK                         _______ _______ _______ _____ _____    ______ ____
ROOT
ATOM      1  C   UNL     1      48.196   6.744  13.506  0.00  0.00    +0.000 A 
ATOM      2  C   UNL     1      48.256   6.070  14.715  0.00  0.00    +0.000 A 
ATOM      3  N   UNL     1      47.279   5.112  14.754  0.00  0.00    +0.000 N 
ATOM      4  C   UNL     1      46.575   5.114  13.572  0.00  0.00    +0.000 A 
ATOM      5  C   UNL     1      45.511   4.317  13.146  0.00  0.00    +0.000 A 
ATOM      6  N   UNL     1      44.976   4.517  11.922  0.00  0.00    +0.000 NA
ATOM      7  C   UNL     1      45.509   5.466  11.130  0.00  0.00    +0.000 A 
ATOM      8  C   UNL     1      46.577   6.280  11.481  0.00  0.00    +0.000 A 
ATOM      9  C   UNL     1      47.130   6.111  12.762  0.00  0.00    +0.000 A 
ENDROOT
BRANCH   1  11
ATOM     10  C   UNL     1      50.190   8.114  14.184  0.00  0.00    +0.000 C 
ATOM     11  C   UNL     1      49.126   7.889  13.091  0.00  0.00    +0.000 C 
ATOM     12  C   UNL     1      48.336   9.210  12.910  0.00  0.00    +0.000 C 
ATOM     13  C   UNL     1      49.832   7.619  11.748  0.00  0.00    +0.000 C 
ENDBRANCH   1  11
BRANCH   3  14
ATOM     14  C   UNL     1      47.025   4.250  15.903  0.00  0.00    +0.000 C 
BRANCH  14  15
ATOM     15  C   UNL     1      48.306   3.691  16.467  0.00  0.00    +0.000 A 
ATOM     16  C   UNL     1      49.073   4.426  17.371  0.00  0.00    +0.000 A 
ATOM     17  C   UNL     1      50.267   3.888  17.839  0.00  0.00    +0.000 A 
ATOM     18  C   UNL     1      50.661   2.628  17.407  0.00  0.00    +0.000 A 
ATOM     19  C   UNL     1      49.834   1.953  16.526  0.00  0.00    +0.000 A 
ATOM     20  N   UNL     1      48.670   2.450  16.052  0.00  0.00    +0.000 NA
ENDBRANCH  14  15
ENDBRANCH   3  14
TORSDOF 3
ENDMDL
MODEL 8
REMARK VINA RESULT:    -5.251      3.506      6.699
REMARK INTER + INTRA:          -6.682
REMARK INTER:                  -6.378
REMARK INTRA:                  -0.305
REMARK UNBOUND:                -0.510
REMARK  Name = 
REMARK  6 active torsions:
REMARK  status: ('A' for Active; 'I' for Inactive)
REMARK    1  A    between atoms: C_1  and  C_2
REMARK    2  A    between atoms: C_2  and  C_3
REMARK    3  A    between atoms: C_2  and  C_4
REMARK    4  A    between atoms: C_2  and  C_5
REMARK    5  A    between atoms: N_7  and  C_8
REMARK    6  A    between atoms: C_8  and  C_9
REMARK                            x       y       z     vdW  Elec       q    Type
REMARK                         _______ _______ _______ _____ _____    ______ ____
ROOT
ATOM      1  C   UNL     1      47.624   6.706  13.331  0.00  0.00    +0.000 A 
ATOM      2  C   UNL     1      47.902   5.928  14.444  0.00  0.00    +0.000 A 
ATOM      3  N   UNL     1      47.162   4.777  14.393  0.00  0.00    +0.000 N 
ATOM      4  C   UNL     1      46.405   4.758  13.246  0.00  0.00    +0.000 A 
ATOM      5  C   UNL     1      45.517   3.797  12.759  0.00  0.00    +0.000 A 
ATOM      6  N   UNL     1      44.879   4.011  11.588  0.00  0.00    +0.000 NA
ATOM      7  C   UNL     1      45.143   5.140  10.904  0.00  0.00    +0.000 A 
ATOM      8  C   UNL     1      46.027   6.127  11.318  0.00  0.00    +0.000 A 
ATOM      9  C   UNL     1      46.679   5.940  12.549  0.00  0.00    +0.000 A 
ENDROOT
BRANCH   1  11
ATOM     10  C   UNL     1      49.171   8.484  14.202  0.00  0.00    +0.000 C 
ATOM     11  C   UNL     1      48.255   8.070  13.032  0.00  0.00    +0.000 C 
ATOM     12  C   UNL     1      47.168   9.161  12.864  0.00  0.00    +0.000 C 
ATOM     13  C   UNL     1      49.074   8.069  11.727  0.00  0.00    +0.000 C 
ENDBRANCH   1  11
BRANCH   3  14
ATOM     14  C   UNL     1      47.172   3.754  15.434  0.00  0.00    +0.000 C 
BRANCH  14  15
ATOM     15  C   UNL     1      47.898   4.228  16.666  0.00  0.00    +0.000 A 
ATOM     16  C   UNL     1      47.208   4.833  17.717  0.00  0.00    +0.000 A 
ATOM     17  C   UNL     1      47.922   5.289  18.821  0.00  0.00    +0.000 A 
ATOM     18  C   UNL     1      49.300   5.120  18.857  0.00  0.00    +0.000 A 
ATOM     19  C   UNL     1      49.908   4.490  17.785  0.00  0.00    +0.000 A 
ATOM     20  N   UNL     1      49.243   4.038  16.698  0.00  0.00    +0.000 NA
ENDBRANCH  14  15
ENDBRANCH   3  14
TORSDOF 3
ENDMDL
MODEL 9
REMARK VINA RESULT:    -5.120      3.660      6.526
REMARK INTER + INTRA:          -6.528
REMARK INTER:                  -6.096
REMARK INTRA:                  -0.432
REMARK UNBOUND:                -0.510
REMARK  Name = 
REMARK  6 active torsions:
REMARK  status: ('A' for Active; 'I' for Inactive)
REMARK    1  A    between atoms: C_1  and  C_2
REMARK    2  A    between atoms: C_2  and  C_3
REMARK    3  A    between atoms: C_2  and  C_4
REMARK    4  A    between atoms: C_2  and  C_5
REMARK    5  A    between atoms: N_7  and  C_8
REMARK    6  A    between atoms: C_8  and  C_9
REMARK                            x       y       z     vdW  Elec       q    Type
REMARK                         _______ _______ _______ _____ _____    ______ ____
ROOT
ATOM      1  C   UNL     1      48.063   5.191  16.190  0.00  0.00    +0.000 A 
ATOM      2  C   UNL     1      47.445   4.808  15.010  0.00  0.00    +0.000 A 
ATOM      3  N   UNL     1      47.652   5.767  14.054  0.00  0.00    +0.000 N 
ATOM      4  C   UNL     1      48.425   6.781  14.568  0.00  0.00    +0.000 A 
ATOM      5  C   UNL     1      48.903   7.950  13.974  0.00  0.00    +0.000 A 
ATOM      6  N   UNL     1      49.654   8.807  14.699  0.00  0.00    +0.000 NA
ATOM      7  C   UNL     1      49.947   8.492  15.975  0.00  0.00    +0.000 A 
ATOM      8  C   UNL     1      49.523   7.340  16.621  0.00  0.00    +0.000 A 
ATOM      9  C   UNL     1      48.715   6.448  15.897  0.00  0.00    +0.000 A 
ENDROOT
BRANCH   1  11
ATOM     10  C   UNL     1      49.489   3.930  17.831  0.00  0.00    +0.000 C 
ATOM     11  C   UNL     1      48.054   4.379  17.490  0.00  0.00    +0.000 C 
ATOM     12  C   UNL     1      47.175   3.111  17.347  0.00  0.00    +0.000 C 
ATOM     13  C   UNL     1      47.478   5.173  18.678  0.00  0.00    +0.000 C 
ENDBRANCH   1  11
BRANCH   3  14
ATOM     14  C   UNL     1      47.096   5.709  12.707  0.00  0.00    +0.000 C 
BRANCH  14  15
ATOM     15  C   UNL     1      45.719   5.096  12.703  0.00  0.00    +0.000 A 
ATOM     16  C   UNL     1      45.532   3.755  12.367  0.00  0.00    +0.000 A 
ATOM     17  C   UNL     1      44.240   3.238  12.341  0.00  0.00    +0.000 A 
ATOM     18  C   UNL     1      43.171   4.064  12.663  0.00  0.00    +0.000 A 
ATOM     19  C   UNL     1      43.441   5.377  13.007  0.00  0.00    +0.000 A 
ATOM     20  N   UNL     1      44.684   5.908  13.039  0.00  0.00    +0.000 NA
ENDBRANCH  14  15
ENDBRANCH   3  14
TORSDOF 3
ENDMDL
