MODEL 1
REMARK VINA RESULT:    -8.183      0.000      0.000
REMARK INTER + INTRA:         -10.621
REMARK INTER:                 -10.097
REMARK INTRA:                  -0.524
REMARK UNBOUND:                -0.524
REMARK  Name = 
REMARK  4 active torsions:
REMARK  status: ('A' for Active; 'I' for Inactive)
REMARK    1  A    between atoms: C_2  and  C_4
REMARK    2  A    between atoms: C_7  and  N_8
REMARK    3  A    between atoms: N_8  and  C_9
REMARK    4  A    between atoms: C_9  and  C_10
REMARK                            x       y       z     vdW  Elec       q    Type
REMARK                         _______ _______ _______ _____ _____    ______ ____
ROOT
ATOM      1  C   UNL     1      46.205   2.083   7.972  0.00  0.00    +0.000 A 
ATOM      2  C   UNL     1      46.345   3.409   7.596  0.00  0.00    +0.000 A 
ATOM      3  C   UNL     1      45.507   4.352   8.188  0.00  0.00    +0.000 A 
ATOM      4  C   UNL     1      44.579   3.967   9.160  0.00  0.00    +0.000 A 
ATOM      5  C   UNL     1      44.511   2.601   9.446  0.00  0.00    +0.000 A 
ATOM      6  N   UNL     1      45.289   1.646   8.881  0.00  0.00    +0.000 NA
ENDROOT
BRANCH   1   8
ATOM      7  N   UNL     1      46.774  -0.252   7.674  0.00  0.00    +0.000 N 
ATOM      8  C   UNL     1      47.093   1.042   7.366  0.00  0.00    +0.000 C 
ATOM      9  O   UNL     1      48.041   1.319   6.642  0.00  0.00    +0.000 OA
ATOM     10  H   UNL     1      47.325  -1.007   7.293  0.00  0.00    +0.000 HD
ATOM     11  H   UNL     1      45.977  -0.441   8.271  0.00  0.00    +0.000 HD
ENDBRANCH   1   8
BRANCH   4  12
ATOM     12  N   UNL     1      43.792   4.958   9.743  0.00  0.00    +0.000 N 
ATOM     13  H   UNL     1      42.926   5.099   9.223  0.00  0.00    +0.000 HD
BRANCH  12  14
ATOM     14  C   UNL     1      43.585   4.958  11.184  0.00  0.00    +0.000 C 
BRANCH  14  15
ATOM     15  C   UNL     1      44.895   5.271  11.867  0.00  0.00    +0.000 A 
ATOM     16  C   UNL     1      45.348   4.504  12.948  0.00  0.00    +0.000 A 
ATOM     17  C   UNL     1      46.576   4.793  13.541  0.00  0.00    +0.000 A 
ATOM     18  F   UNL     1      46.995   4.047  14.571  0.00  0.00    +0.000 F 
ATOM     19  C   UNL     1      47.375   5.831  13.081  0.00  0.00    +0.000 A 
ATOM     20  C   UNL     1      46.926   6.591  12.013  0.00  0.00    +0.000 A 
ATOM     21  F   UNL     1      47.685   7.594  11.551  0.00  0.00    +0.000 F 
ATOM     22  C   UNL     1      45.706   6.319  11.400  0.00  0.00    +0.000 A 
ENDBRANCH  14  15
ENDBRANCH  12  14
ENDBRANCH   4  12
TORSDOF 4
ENDMDL
MODEL 2
REMARK VINA RESULT:    -8.182      0.106      1.885
REMARK INTER + INTRA:         -10.619
REMARK INTER:                 -10.066
REMARK INTRA:                  -0.554
REMARK UNBOUND:                -0.524
REMARK  Name = 
REMARK  4 active torsions:
REMARK  status: ('A' for Active; 'I' for Inactive)
REMARK    1  A    between atoms: C_2  and  C_4
REMARK    2  A    between atoms: C_7  and  N_8
REMARK    3  A    between atoms: N_8  and  C_9
REMARK    4  A    between atoms: C_9  and  C_10
REMARK                            x       y       z     vdW  Elec       q    Type
REMARK                         _______ _______ _______ _____ _____    ______ ____
ROOT
ATOM      1  C   UNL     1      46.216   2.045   7.965  0.00  0.00    +0.000 A 
ATOM      2  C   UNL     1      46.362   3.377   7.612  0.00  0.00    +0.000 A 
ATOM      3  C   UNL     1      45.509   4.309   8.199  0.00  0.00    +0.000 A 
ATOM      4  C   UNL     1      44.562   3.909   9.146  0.00  0.00    +0.000 A 
ATOM      5  C   UNL     1      44.490   2.538   9.410  0.00  0.00    +0.000 A 
ATOM      6  N   UNL     1      45.281   1.593   8.848  0.00  0.00    +0.000 NA
ENDROOT
BRANCH   1   8
ATOM      7  N   UNL     1      46.811  -0.283   7.667  0.00  0.00    +0.000 N 
ATOM      8  C   UNL     1      47.119   1.015   7.363  0.00  0.00    +0.000 C 
ATOM      9  O   UNL     1      48.068   1.302   6.645  0.00  0.00    +0.000 OA
ATOM     10  H   UNL     1      47.373  -1.032   7.289  0.00  0.00    +0.000 HD
ATOM     11  H   UNL     1      46.013  -0.481   8.258  0.00  0.00    +0.000 HD
ENDBRANCH   1   8
BRANCH   4  12
ATOM     12  N   UNL     1      43.760   4.890   9.726  0.00  0.00    +0.000 N 
ATOM     13  H   UNL     1      42.893   5.018   9.204  0.00  0.00    +0.000 HD
BRANCH  12  14
ATOM     14  C   UNL     1      43.551   4.889  11.166  0.00  0.00    +0.000 C 
BRANCH  14  15
ATOM     15  C   UNL     1      44.850   5.240  11.850  0.00  0.00    +0.000 A 
ATOM     16  C   UNL     1      45.616   6.336  11.432  0.00  0.00    +0.000 A 
ATOM     17  C   UNL     1      46.796   6.659  12.100  0.00  0.00    +0.000 A 
ATOM     18  F   UNL     1      47.512   7.712  11.688  0.00  0.00    +0.000 F 
ATOM     19  C   UNL     1      47.238   5.916  13.185  0.00  0.00    +0.000 A 
ATOM     20  C   UNL     1      46.483   4.830  13.598  0.00  0.00    +0.000 A 
ATOM     21  F   UNL     1      46.890   4.104  14.648  0.00  0.00    +0.000 F 
ATOM     22  C   UNL     1      45.298   4.492  12.952  0.00  0.00    +0.000 A 
ENDBRANCH  14  15
ENDBRANCH  12  14
ENDBRANCH   4  12
TORSDOF 4
ENDMDL
MODEL 3
REMARK VINA RESULT:    -7.909      3.895      6.172
REMARK INTER + INTRA:         -10.283
REMARK INTER:                  -9.810
REMARK INTRA:                  -0.472
REMARK UNBOUND:                -0.524
REMARK  Name = 
REMARK  4 active torsions:
REMARK  status: ('A' for Active; 'I' for Inactive)
REMARK    1  A    between atoms: C_2  and  C_4
REMARK    2  A    between atoms: C_7  and  N_8
REMARK    3  A    between atoms: N_8  and  C_9
REMARK    4  A    between atoms: C_9  and  C_10
REMARK                            x       y       z     vdW  Elec       q    Type
REMARK                         _______ _______ _______ _____ _____    ______ ____
ROOT
ATOM      1  C   UNL     1      46.525   4.751  13.809  0.00  0.00    +0.000 A 
ATOM      2  C   UNL     1      46.656   5.889  13.030  0.00  0.00    +0.000 A 
ATOM      3  C   UNL     1      46.062   5.894  11.770  0.00  0.00    +0.000 A 
ATOM      4  C   UNL     1      45.324   4.792  11.328  0.00  0.00    +0.000 A 
ATOM      5  C   UNL     1      45.275   3.692  12.188  0.00  0.00    +0.000 A 
ATOM      6  N   UNL     1      45.855   3.633  13.411  0.00  0.00    +0.000 NA
ENDROOT
BRANCH   1   8
ATOM      7  N   UNL     1      47.904   5.796  15.503  0.00  0.00    +0.000 N 
ATOM      8  C   UNL     1      47.141   4.710  15.172  0.00  0.00    +0.000 C 
ATOM      9  O   UNL     1      46.979   3.775  15.946  0.00  0.00    +0.000 OA
ATOM     10  H   UNL     1      48.345   5.840  16.410  0.00  0.00    +0.000 HD
ATOM     11  H   UNL     1      48.009   6.553  14.838  0.00  0.00    +0.000 HD
ENDBRANCH   1   8
BRANCH   4  12
ATOM     12  N   UNL     1      44.722   4.868  10.073  0.00  0.00    +0.000 N 
ATOM     13  H   UNL     1      45.306   5.378   9.411  0.00  0.00    +0.000 HD
BRANCH  12  14
ATOM     14  C   UNL     1      44.124   3.677   9.488  0.00  0.00    +0.000 C 
BRANCH  14  15
ATOM     15  C   UNL     1      45.123   3.035   8.555  0.00  0.00    +0.000 A 
ATOM     16  C   UNL     1      45.549   1.715   8.747  0.00  0.00    +0.000 A 
ATOM     17  C   UNL     1      46.448   1.135   7.853  0.00  0.00    +0.000 A 
ATOM     18  F   UNL     1      46.841  -0.129   8.051  0.00  0.00    +0.000 F 
ATOM     19  C   UNL     1      46.937   1.838   6.762  0.00  0.00    +0.000 A 
ATOM     20  C   UNL     1      46.518   3.145   6.572  0.00  0.00    +0.000 A 
ATOM     21  F   UNL     1      46.975   3.839   5.521  0.00  0.00    +0.000 F 
ATOM     22  C   UNL     1      45.617   3.744   7.447  0.00  0.00    +0.000 A 
ENDBRANCH  14  15
ENDBRANCH  12  14
ENDBRANCH   4  12
TORSDOF 4
ENDMDL
MODEL 4
REMARK VINA RESULT:    -7.583      3.924      6.471
REMARK INTER + INTRA:          -9.880
REMARK INTER:                  -9.405
REMARK INTRA:                  -0.475
REMARK UNBOUND:                -0.524
REMARK  Name = 
REMARK  4 active torsions:
REMARK  status: ('A' for Active; 'I' for Inactive)
REMARK    1  A    between atoms: C_2  and  C_4
REMARK    2  A    between atoms: C_7  and  N_8
REMARK    3  A    between atoms: N_8  and  C_9
REMARK    4  A    between atoms: C_9  and  C_10
REMARK                            x       y       z     vdW  Elec       q    Type
REMARK                         _______ _______ _______ _____ _____    ______ ____
ROOT
ATOM      1  C   UNL     1      46.545   5.070  13.259  0.00  0.00    +0.000 A 
ATOM      2  C   UNL     1      46.322   5.821  12.115  0.00  0.00    +0.000 A 
ATOM      3  C   UNL     1      45.606   5.234  11.074  0.00  0.00    +0.000 A 
ATOM      4  C   UNL     1      45.099   3.938  11.202  0.00  0.00    +0.000 A 
ATOM      5  C   UNL     1      45.402   3.267  12.390  0.00  0.00    +0.000 A 
ATOM      6  N   UNL     1      46.113   3.788  13.420  0.00  0.00    +0.000 NA
ENDROOT
BRANCH   1   8
ATOM      7  N   UNL     1      47.217   4.983  15.584  0.00  0.00    +0.000 N 
ATOM      8  C   UNL     1      47.302   5.668  14.403  0.00  0.00    +0.000 C 
ATOM      9  O   UNL     1      47.956   6.698  14.300  0.00  0.00    +0.000 OA
ATOM     10  H   UNL     1      47.709   5.324  16.397  0.00  0.00    +0.000 HD
ATOM     11  H   UNL     1      46.671   4.130  15.627  0.00  0.00    +0.000 HD
ENDBRANCH   1   8
BRANCH   4  12
ATOM     12  N   UNL     1      44.361   3.417  10.141  0.00  0.00    +0.000 N 
ATOM     13  H   UNL     1      43.382   3.288  10.397  0.00  0.00    +0.000 HD
BRANCH  12  14
ATOM     14  C   UNL     1      44.520   3.979   8.808  0.00  0.00    +0.000 C 
BRANCH  14  15
ATOM     15  C   UNL     1      45.448   3.094   8.011  0.00  0.00    +0.000 A 
ATOM     16  C   UNL     1      46.083   3.565   6.855  0.00  0.00    +0.000 A 
ATOM     17  C   UNL     1      46.960   2.739   6.154  0.00  0.00    +0.000 A 
ATOM     18  F   UNL     1      47.560   3.208   5.054  0.00  0.00    +0.000 F 
ATOM     19  C   UNL     1      47.228   1.445   6.578  0.00  0.00    +0.000 A 
ATOM     20  C   UNL     1      46.598   0.977   7.720  0.00  0.00    +0.000 A 
ATOM     21  F   UNL     1      46.848  -0.268   8.149  0.00  0.00    +0.000 F 
ATOM     22  C   UNL     1      45.724   1.785   8.441  0.00  0.00    +0.000 A 
ENDBRANCH  14  15
ENDBRANCH  12  14
ENDBRANCH   4  12
TORSDOF 4
ENDMDL
MODEL 5
REMARK VINA RESULT:    -7.428      3.746      6.265
REMARK INTER + INTRA:          -9.689
REMARK INTER:                  -9.201
REMARK INTRA:                  -0.488
REMARK UNBOUND:                -0.524
REMARK  Name = 
REMARK  4 active torsions:
REMARK  status: ('A' for Active; 'I' for Inactive)
REMARK    1  A    between atoms: C_2  and  C_4
REMARK    2  A    between atoms: C_7  and  N_8
REMARK    3  A    between atoms: N_8  and  C_9
REMARK    4  A    between atoms: C_9  and  C_10
REMARK                            x       y       z     vdW  Elec       q    Type
REMARK                         _______ _______ _______ _____ _____    ______ ____
ROOT
ATOM      1  C   UNL     1      46.757   6.083  12.944  0.00  0.00    +0.000 A 
ATOM      2  C   UNL     1      45.938   4.992  13.186  0.00  0.00    +0.000 A 
ATOM      3  C   UNL     1      45.106   4.555  12.157  0.00  0.00    +0.000 A 
ATOM      4  C   UNL     1      45.130   5.183  10.908  0.00  0.00    +0.000 A 
ATOM      5  C   UNL     1      45.979   6.286  10.784  0.00  0.00    +0.000 A 
ATOM      6  N   UNL     1      46.789   6.760  11.762  0.00  0.00    +0.000 NA
ENDROOT
BRANCH   1   8
ATOM      7  N   UNL     1      47.566   7.908  14.315  0.00  0.00    +0.000 N 
ATOM      8  C   UNL     1      47.672   6.576  14.021  0.00  0.00    +0.000 C 
ATOM      9  O   UNL     1      48.462   5.847  14.606  0.00  0.00    +0.000 OA
ATOM     10  H   UNL     1      48.148   8.309  15.036  0.00  0.00    +0.000 HD
ATOM     11  H   UNL     1      46.895   8.478  13.813  0.00  0.00    +0.000 HD
ENDBRANCH   1   8
BRANCH   4  12
ATOM     12  N   UNL     1      44.301   4.681   9.907  0.00  0.00    +0.000 N 
ATOM     13  H   UNL     1      44.453   5.165   9.022  0.00  0.00    +0.000 HD
BRANCH  12  14
ATOM     14  C   UNL     1      44.165   3.241   9.740  0.00  0.00    +0.000 C 
BRANCH  14  15
ATOM     15  C   UNL     1      45.163   2.771   8.708  0.00  0.00    +0.000 A 
ATOM     16  C   UNL     1      45.654   1.460   8.721  0.00  0.00    +0.000 A 
ATOM     17  C   UNL     1      46.550   1.041   7.738  0.00  0.00    +0.000 A 
ATOM     18  F   UNL     1      47.006  -0.217   7.765  0.00  0.00    +0.000 F 
ATOM     19  C   UNL     1      46.972   1.898   6.732  0.00  0.00    +0.000 A 
ATOM     20  C   UNL     1      46.488   3.197   6.720  0.00  0.00    +0.000 A 
ATOM     21  F   UNL     1      46.879   4.038   5.754  0.00  0.00    +0.000 F 
ATOM     22  C   UNL     1      45.588   3.637   7.686  0.00  0.00    +0.000 A 
ENDBRANCH  14  15
ENDBRANCH  12  14
ENDBRANCH   4  12
TORSDOF 4
ENDMDL
MODEL 6
REMARK VINA RESULT:    -6.395      4.306      6.455
REMARK INTER + INTRA:          -8.415
REMARK INTER:                  -8.053
REMARK INTRA:                  -0.362
REMARK UNBOUND:                -0.524
REMARK  Name = 
REMARK  4 active torsions:
REMARK  status: ('A' for Active; 'I' for Inactive)
REMARK    1  A    between atoms: C_2  and  C_4
REMARK    2  A    between atoms: C_7  and  N_8
REMARK    3  A    between atoms: N_8  and  C_9
REMARK    4  A    between atoms: C_9  and  C_10
REMARK                            x       y       z     vdW  Elec       q    Type
REMARK                         _______ _______ _______ _____ _____    ______ ____
ROOT
ATOM      1  C   UNL     1      47.390   4.726  15.481  0.00  0.00    +0.000 A 
ATOM      2  C   UNL     1      47.979   5.894  15.023  0.00  0.00    +0.000 A 
ATOM      3  C   UNL     1      47.673   6.322  13.733  0.00  0.00    +0.000 A 
ATOM      4  C   UNL     1      46.768   5.608  12.943  0.00  0.00    +0.000 A 
ATOM      5  C   UNL     1      46.250   4.434  13.499  0.00  0.00    +0.000 A 
ATOM      6  N   UNL     1      46.536   3.967  14.739  0.00  0.00    +0.000 NA
ENDROOT
BRANCH   1   8
ATOM      7  N   UNL     1      46.899   3.210  17.305  0.00  0.00    +0.000 N 
ATOM      8  C   UNL     1      47.687   4.239  16.864  0.00  0.00    +0.000 C 
ATOM      9  O   UNL     1      48.571   4.719  17.561  0.00  0.00    +0.000 OA
ATOM     10  H   UNL     1      47.047   2.826  18.226  0.00  0.00    +0.000 HD
ATOM     11  H   UNL     1      46.182   2.835  16.695  0.00  0.00    +0.000 HD
ENDBRANCH   1   8
BRANCH   4  12
ATOM     12  N   UNL     1      46.473   6.103  11.675  0.00  0.00    +0.000 N 
ATOM     13  H   UNL     1      47.222   5.899  11.013  0.00  0.00    +0.000 HD
BRANCH  12  14
ATOM     14  C   UNL     1      45.151   5.885  11.106  0.00  0.00    +0.000 C 
BRANCH  14  15
ATOM     15  C   UNL     1      45.232   4.769  10.091  0.00  0.00    +0.000 A 
ATOM     16  C   UNL     1      44.616   3.533  10.323  0.00  0.00    +0.000 A 
ATOM     17  C   UNL     1      44.678   2.530   9.357  0.00  0.00    +0.000 A 
ATOM     18  F   UNL     1      44.080   1.357   9.596  0.00  0.00    +0.000 F 
ATOM     19  C   UNL     1      45.340   2.727   8.154  0.00  0.00    +0.000 A 
ATOM     20  C   UNL     1      45.952   3.948   7.924  0.00  0.00    +0.000 A 
ATOM     21  F   UNL     1      46.591   4.159   6.766  0.00  0.00    +0.000 F 
ATOM     22  C   UNL     1      45.898   4.967   8.870  0.00  0.00    +0.000 A 
ENDBRANCH  14  15
ENDBRANCH  12  14
ENDBRANCH   4  12
TORSDOF 4
ENDMDL
MODEL 7
REMARK VINA RESULT:    -6.309      4.296      6.686
REMARK INTER + INTRA:          -8.309
REMARK INTER:                  -7.812
REMARK INTRA:                  -0.497
REMARK UNBOUND:                -0.524
REMARK  Name = 
REMARK  4 active torsions:
REMARK  status: ('A' for Active; 'I' for Inactive)
REMARK    1  A    between atoms: C_2  and  C_4
REMARK    2  A    between atoms: C_7  and  N_8
REMARK    3  A    between atoms: N_8  and  C_9
REMARK    4  A    between atoms: C_9  and  C_10
REMARK                            x       y       z     vdW  Elec       q    Type
REMARK                         _______ _______ _______ _____ _____    ______ ____
ROOT
ATOM      1  C   UNL     1      48.778   6.953  13.555  0.00  0.00    +0.000 A 
ATOM      2  C   UNL     1      48.260   7.399  12.350  0.00  0.00    +0.000 A 
ATOM      3  C   UNL     1      47.124   6.766  11.849  0.00  0.00    +0.000 A 
ATOM      4  C   UNL     1      46.510   5.735  12.566  0.00  0.00    +0.000 A 
ATOM      5  C   UNL     1      47.131   5.354  13.759  0.00  0.00    +0.000 A 
ATOM      6  N   UNL     1      48.247   5.925  14.274  0.00  0.00    +0.000 NA
ENDROOT
BRANCH   1   8
ATOM      7  N   UNL     1      50.969   7.932  13.229  0.00  0.00    +0.000 N 
ATOM      8  C   UNL     1      49.991   7.614  14.131  0.00  0.00    +0.000 C 
ATOM      9  O   UNL     1      50.109   7.859  15.325  0.00  0.00    +0.000 OA
ATOM     10  H   UNL     1      51.812   8.387  13.545  0.00  0.00    +0.000 HD
ATOM     11  H   UNL     1      50.830   7.719  12.248  0.00  0.00    +0.000 HD
ENDBRANCH   1   8
BRANCH   4  12
ATOM     12  N   UNL     1      45.357   5.163  12.032  0.00  0.00    +0.000 N 
ATOM     13  H   UNL     1      44.621   5.087  12.734  0.00  0.00    +0.000 HD
BRANCH  12  14
ATOM     14  C   UNL     1      44.857   5.620  10.744  0.00  0.00    +0.000 C 
BRANCH  14  15
ATOM     15  C   UNL     1      45.123   4.553   9.709  0.00  0.00    +0.000 A 
ATOM     16  C   UNL     1      45.902   4.822   8.576  0.00  0.00    +0.000 A 
ATOM     17  C   UNL     1      46.160   3.812   7.651  0.00  0.00    +0.000 A 
ATOM     18  F   UNL     1      46.910   4.087   6.577  0.00  0.00    +0.000 F 
ATOM     19  C   UNL     1      45.664   2.528   7.826  0.00  0.00    +0.000 A 
ATOM     20  C   UNL     1      44.891   2.262   8.945  0.00  0.00    +0.000 A 
ATOM     21  F   UNL     1      44.406   1.027   9.134  0.00  0.00    +0.000 F 
ATOM     22  C   UNL     1      44.624   3.252   9.886  0.00  0.00    +0.000 A 
ENDBRANCH  14  15
ENDBRANCH  12  14
ENDBRANCH   4  12
TORSDOF 4
ENDMDL
MODEL 8
REMARK VINA RESULT:    -6.150      1.687      2.557
REMARK INTER + INTRA:          -8.112
REMARK INTER:                  -7.622
REMARK INTRA:                  -0.490
REMARK UNBOUND:                -0.524
REMARK  Name = 
REMARK  4 active torsions:
REMARK  status: ('A' for Active; 'I' for Inactive)
REMARK    1  A    between atoms: C_2  and  C_4
REMARK    2  A    between atoms: C_7  and  N_8
REMARK    3  A    between atoms: N_8  and  C_9
REMARK    4  A    between atoms: C_9  and  C_10
REMARK                            x       y       z     vdW  Elec       q    Type
REMARK                         _______ _______ _______ _____ _____    ______ ____
ROOT
ATOM      1  C   UNL     1      45.456   2.859   8.824  0.00  0.00    +0.000 A 
ATOM      2  C   UNL     1      45.644   4.226   8.695  0.00  0.00    +0.000 A 
ATOM      3  C   UNL     1      44.964   5.069   9.572  0.00  0.00    +0.000 A 
ATOM      4  C   UNL     1      44.147   4.540  10.575  0.00  0.00    +0.000 A 
ATOM      5  C   UNL     1      44.015   3.149  10.599  0.00  0.00    +0.000 A 
ATOM      6  N   UNL     1      44.637   2.292   9.754  0.00  0.00    +0.000 NA
ENDROOT
BRANCH   1   8
ATOM      7  N   UNL     1      46.677   2.487   6.766  0.00  0.00    +0.000 N 
ATOM      8  C   UNL     1      46.176   1.921   7.907  0.00  0.00    +0.000 C 
ATOM      9  O   UNL     1      46.313   0.730   8.151  0.00  0.00    +0.000 OA
ATOM     10  H   UNL     1      47.181   1.915   6.105  0.00  0.00    +0.000 HD
ATOM     11  H   UNL     1      46.549   3.479   6.604  0.00  0.00    +0.000 HD
ENDBRANCH   1   8
BRANCH   4  12
ATOM     12  N   UNL     1      43.520   5.430  11.445  0.00  0.00    +0.000 N 
ATOM     13  H   UNL     1      42.513   5.272  11.476  0.00  0.00    +0.000 HD
BRANCH  12  14
ATOM     14  C   UNL     1      44.088   5.667  12.764  0.00  0.00    +0.000 C 
BRANCH  14  15
ATOM     15  C   UNL     1      45.302   6.553  12.621  0.00  0.00    +0.000 A 
ATOM     16  C   UNL     1      45.172   7.930  12.400  0.00  0.00    +0.000 A 
ATOM     17  C   UNL     1      46.308   8.732  12.303  0.00  0.00    +0.000 A 
ATOM     18  F   UNL     1      46.163  10.046  12.095  0.00  0.00    +0.000 F 
ATOM     19  C   UNL     1      47.583   8.197  12.426  0.00  0.00    +0.000 A 
ATOM     20  C   UNL     1      47.713   6.835  12.643  0.00  0.00    +0.000 A 
ATOM     21  F   UNL     1      48.935   6.300  12.770  0.00  0.00    +0.000 F 
ATOM     22  C   UNL     1      46.594   6.014  12.749  0.00  0.00    +0.000 A 
ENDBRANCH  14  15
ENDBRANCH  12  14
ENDBRANCH   4  12
TORSDOF 4
ENDMDL
MODEL 9
REMARK VINA RESULT:    -6.027      3.297      4.999
REMARK INTER + INTRA:          -7.960
REMARK INTER:                  -7.575
REMARK INTRA:                  -0.386
REMARK UNBOUND:                -0.524
REMARK  Name = 
REMARK  4 active torsions:
REMARK  status: ('A' for Active; 'I' for Inactive)
REMARK    1  A    between atoms: C_2  and  C_4
REMARK    2  A    between atoms: C_7  and  N_8
REMARK    3  A    between atoms: N_8  and  C_9
REMARK    4  A    between atoms: C_9  and  C_10
REMARK                            x       y       z     vdW  Elec       q    Type
REMARK                         _______ _______ _______ _____ _____    ______ ____
ROOT
ATOM      1  C   UNL     1      45.027   4.030  10.603  0.00  0.00    +0.000 A 
ATOM      2  C   UNL     1      45.486   5.336  10.527  0.00  0.00    +0.000 A 
ATOM      3  C   UNL     1      45.927   5.946  11.700  0.00  0.00    +0.000 A 
ATOM      4  C   UNL     1      45.938   5.241  12.907  0.00  0.00    +0.000 A 
ATOM      5  C   UNL     1      45.434   3.938  12.870  0.00  0.00    +0.000 A 
ATOM      6  N   UNL     1      44.974   3.311  11.759  0.00  0.00    +0.000 NA
ENDROOT
BRANCH   1   8
ATOM      7  N   UNL     1      44.155   4.161   8.347  0.00  0.00    +0.000 N 
ATOM      8  C   UNL     1      44.554   3.337   9.364  0.00  0.00    +0.000 C 
ATOM      9  O   UNL     1      44.522   2.118   9.256  0.00  0.00    +0.000 OA
ATOM     10  H   UNL     1      43.831   3.763   7.478  0.00  0.00    +0.000 HD
ATOM     11  H   UNL     1      44.203   5.166   8.472  0.00  0.00    +0.000 HD
ENDBRANCH   1   8
BRANCH   4  12
ATOM     12  N   UNL     1      46.422   5.891  14.040  0.00  0.00    +0.000 N 
ATOM     13  H   UNL     1      45.811   5.744  14.843  0.00  0.00    +0.000 HD
BRANCH  12  14
ATOM     14  C   UNL     1      47.833   5.782  14.384  0.00  0.00    +0.000 C 
BRANCH  14  15
ATOM     15  C   UNL     1      47.954   5.221  15.781  0.00  0.00    +0.000 A 
ATOM     16  C   UNL     1      48.677   5.896  16.772  0.00  0.00    +0.000 A 
ATOM     17  C   UNL     1      48.747   5.373  18.063  0.00  0.00    +0.000 A 
ATOM     18  F   UNL     1      49.439   6.035  18.998  0.00  0.00    +0.000 F 
ATOM     19  C   UNL     1      48.108   4.187  18.398  0.00  0.00    +0.000 A 
ATOM     20  C   UNL     1      47.395   3.517  17.417  0.00  0.00    +0.000 A 
ATOM     21  F   UNL     1      46.767   2.373  17.722  0.00  0.00    +0.000 F 
ATOM     22  C   UNL     1      47.305   4.022  16.123  0.00  0.00    +0.000 A 
ENDBRANCH  14  15
ENDBRANCH  12  14
ENDBRANCH   4  12
TORSDOF 4
ENDMDL
