MODEL 1
REMARK VINA RESULT:    -8.382      0.000      0.000
REMARK INTER + INTRA:         -11.724
REMARK INTER:                 -10.832
REMARK INTRA:                  -0.892
REMARK UNBOUND:                -0.892
REMARK  Name = 
REMARK  5 active torsions:
REMARK  status: ('A' for Active; 'I' for Inactive)
REMARK    1  A    between atoms: C_2  and  C_3
REMARK    2  A    between atoms: C_6  and  N_7
REMARK    3  A    between atoms: N_7  and  C_8
REMARK    4  A    between atoms: C_8  and  C_9
REMARK    5  A    between atoms: C_13  and  C_14
REMARK                            x       y       z     vdW  Elec       q    Type
REMARK                         _______ _______ _______ _____ _____    ______ ____
ROOT
ATOM      1  C   UNL     1      43.837   5.051  11.249  0.00  0.00    +0.000 C 
ATOM      2  C   UNL     1      42.566   5.163  12.090  0.00  0.00    +0.000 C 
ATOM      3  C   UNL     1      42.975   6.302  11.220  0.00  0.00    +0.000 C 
ENDROOT
BRANCH   1   4
ATOM      4  C   UNL     1      45.177   5.181  11.961  0.00  0.00    +0.000 A 
ATOM      5  C   UNL     1      45.553   4.331  13.011  0.00  0.00    +0.000 A 
ATOM      6  C   UNL     1      46.732   4.550  13.722  0.00  0.00    +0.000 A 
ATOM      7  C   UNL     1      47.549   5.637  13.406  0.00  0.00    +0.000 A 
ATOM      8  C   UNL     1      47.217   6.520  12.368  0.00  0.00    +0.000 A 
ATOM      9  C   UNL     1      46.051   6.237  11.637  0.00  0.00    +0.000 A 
BRANCH   8  10
ATOM     10  C   UNL     1      47.991   7.756  12.105  0.00  0.00    +0.000 A 
ATOM     11  C   UNL     1      49.360   7.719  11.769  0.00  0.00    +0.000 A 
ATOM     12  C   UNL     1      50.061   8.886  11.447  0.00  0.00    +0.000 A 
ATOM     13  C   UNL     1      49.404  10.108  11.475  0.00  0.00    +0.000 A 
ATOM     14  F   UNL     1      50.074  11.227  11.169  0.00  0.00    +0.000 F 
ATOM     15  C   UNL     1      48.060  10.184  11.805  0.00  0.00    +0.000 A 
ATOM     16  C   UNL     1      47.359   9.015  12.111  0.00  0.00    +0.000 A 
ENDBRANCH   8  10
ENDBRANCH   1   4
BRANCH   1  17
ATOM     17  N   UNL     1      43.772   3.975  10.253  0.00  0.00    +0.000 N 
ATOM     18  H   UNL     1      43.115   3.228  10.470  0.00  0.00    +0.000 HD
BRANCH  17  22
ATOM     19  C   UNL     1      46.586   2.576   7.572  0.00  0.00    +0.000 A 
ATOM     20  N   UNL     1      46.337   3.903   7.540  0.00  0.00    +0.000 NA
ATOM     21  C   UNL     1      45.429   4.361   8.442  0.00  0.00    +0.000 A 
ATOM     22  C   UNL     1      44.784   3.574   9.375  0.00  0.00    +0.000 A 
ATOM     23  C   UNL     1      45.123   2.230   9.283  0.00  0.00    +0.000 A 
ATOM     24  N   UNL     1      46.013   1.702   8.415  0.00  0.00    +0.000 NA
BRANCH  19  26
ATOM     25  N   UNL     1      48.288   1.642   5.832  0.00  0.00    +0.000 NA
ATOM     26  C   UNL     1      47.513   2.051   6.603  0.00  0.00    +0.000 C 
ENDBRANCH  19  26
ENDBRANCH  17  22
ENDBRANCH   1  17
TORSDOF 5
ENDMDL
MODEL 2
REMARK VINA RESULT:    -8.169      3.981      7.190
REMARK INTER + INTRA:         -11.448
REMARK INTER:                 -10.551
REMARK INTRA:                  -0.897
REMARK UNBOUND:                -0.892
REMARK  Name = 
REMARK  5 active torsions:
REMARK  status: ('A' for Active; 'I' for Inactive)
REMARK    1  A    between atoms: C_2  and  C_3
REMARK    2  A    between atoms: C_6  and  N_7
REMARK    3  A    between atoms: N_7  and  C_8
REMARK    4  A    between atoms: C_8  and  C_9
REMARK    5  A    between atoms: C_13  and  C_14
REMARK                            x       y       z     vdW  Elec       q    Type
REMARK                         _______ _______ _______ _____ _____    ______ ____
ROOT
ATOM      1  C   UNL     1      46.183   7.310  12.333  0.00  0.00    +0.000 C 
ATOM      2  C   UNL     1      46.467   8.709  11.789  0.00  0.00    +0.000 C 
ATOM      3  C   UNL     1      45.573   8.547  12.970  0.00  0.00    +0.000 C 
ENDROOT
BRANCH   1   4
ATOM      4  C   UNL     1      45.226   6.421  11.551  0.00  0.00    +0.000 A 
ATOM      5  C   UNL     1      43.877   6.278  11.907  0.00  0.00    +0.000 A 
ATOM      6  C   UNL     1      43.055   5.366  11.247  0.00  0.00    +0.000 A 
ATOM      7  C   UNL     1      43.575   4.564  10.228  0.00  0.00    +0.000 A 
ATOM      8  C   UNL     1      44.918   4.664   9.837  0.00  0.00    +0.000 A 
ATOM      9  C   UNL     1      45.702   5.633  10.485  0.00  0.00    +0.000 A 
BRANCH   8  10
ATOM     10  C   UNL     1      45.526   3.732   8.859  0.00  0.00    +0.000 A 
ATOM     11  C   UNL     1      46.231   4.194   7.729  0.00  0.00    +0.000 A 
ATOM     12  C   UNL     1      46.867   3.305   6.856  0.00  0.00    +0.000 A 
ATOM     13  C   UNL     1      46.789   1.940   7.092  0.00  0.00    +0.000 A 
ATOM     14  F   UNL     1      47.395   1.087   6.256  0.00  0.00    +0.000 F 
ATOM     15  C   UNL     1      46.100   1.448   8.190  0.00  0.00    +0.000 A 
ATOM     16  C   UNL     1      45.480   2.340   9.069  0.00  0.00    +0.000 A 
ENDBRANCH   8  10
ENDBRANCH   1   4
BRANCH   1  17
ATOM     17  N   UNL     1      47.389   6.632  12.826  0.00  0.00    +0.000 N 
ATOM     18  H   UNL     1      48.006   6.275  12.100  0.00  0.00    +0.000 HD
BRANCH  17  22
ATOM     19  C   UNL     1      47.890   4.446  16.295  0.00  0.00    +0.000 A 
ATOM     20  N   UNL     1      48.637   5.566  16.180  0.00  0.00    +0.000 NA
ATOM     21  C   UNL     1      48.449   6.293  15.048  0.00  0.00    +0.000 A 
ATOM     22  C   UNL     1      47.548   5.976  14.051  0.00  0.00    +0.000 A 
ATOM     23  C   UNL     1      46.861   4.793  14.293  0.00  0.00    +0.000 A 
ATOM     24  N   UNL     1      46.995   4.017  15.391  0.00  0.00    +0.000 NA
BRANCH  19  26
ATOM     25  N   UNL     1      48.289   2.964  18.402  0.00  0.00    +0.000 NA
ATOM     26  C   UNL     1      48.093   3.630  17.464  0.00  0.00    +0.000 C 
ENDBRANCH  19  26
ENDBRANCH  17  22
ENDBRANCH   1  17
TORSDOF 5
ENDMDL
MODEL 3
REMARK VINA RESULT:    -7.533      2.680      4.077
REMARK INTER + INTRA:         -10.627
REMARK INTER:                 -10.153
REMARK INTRA:                  -0.474
REMARK UNBOUND:                -0.892
REMARK  Name = 
REMARK  5 active torsions:
REMARK  status: ('A' for Active; 'I' for Inactive)
REMARK    1  A    between atoms: C_2  and  C_3
REMARK    2  A    between atoms: C_6  and  N_7
REMARK    3  A    between atoms: N_7  and  C_8
REMARK    4  A    between atoms: C_8  and  C_9
REMARK    5  A    between atoms: C_13  and  C_14
REMARK                            x       y       z     vdW  Elec       q    Type
REMARK                         _______ _______ _______ _____ _____    ______ ____
ROOT
ATOM      1  C   UNL     1      43.911   5.058  11.520  0.00  0.00    +0.000 C 
ATOM      2  C   UNL     1      42.692   5.104  12.438  0.00  0.00    +0.000 C 
ATOM      3  C   UNL     1      42.797   6.068  11.307  0.00  0.00    +0.000 C 
ENDROOT
BRANCH   1   4
ATOM      4  C   UNL     1      45.225   5.616  12.051  0.00  0.00    +0.000 A 
ATOM      5  C   UNL     1      46.035   6.474  11.293  0.00  0.00    +0.000 A 
ATOM      6  C   UNL     1      47.287   6.872  11.757  0.00  0.00    +0.000 A 
ATOM      7  C   UNL     1      47.761   6.403  12.984  0.00  0.00    +0.000 A 
ATOM      8  C   UNL     1      46.993   5.540  13.779  0.00  0.00    +0.000 A 
ATOM      9  C   UNL     1      45.714   5.204  13.306  0.00  0.00    +0.000 A 
BRANCH   8  10
ATOM     10  C   UNL     1      47.528   4.920  15.014  0.00  0.00    +0.000 A 
ATOM     11  C   UNL     1      47.356   3.549  15.293  0.00  0.00    +0.000 A 
ATOM     12  C   UNL     1      47.932   2.960  16.424  0.00  0.00    +0.000 A 
ATOM     13  C   UNL     1      48.674   3.741  17.300  0.00  0.00    +0.000 A 
ATOM     14  F   UNL     1      49.224   3.179  18.384  0.00  0.00    +0.000 F 
ATOM     15  C   UNL     1      48.860   5.093  17.060  0.00  0.00    +0.000 A 
ATOM     16  C   UNL     1      48.296   5.675  15.922  0.00  0.00    +0.000 A 
ENDBRANCH   8  10
ENDBRANCH   1   4
BRANCH   1  17
ATOM     17  N   UNL     1      44.033   3.789  10.792  0.00  0.00    +0.000 N 
ATOM     18  H   UNL     1      43.783   2.961  11.328  0.00  0.00    +0.000 HD
BRANCH  17  22
ATOM     19  C   UNL     1      46.375   2.742   7.554  0.00  0.00    +0.000 A 
ATOM     20  N   UNL     1      46.062   4.051   7.668  0.00  0.00    +0.000 NA
ATOM     21  C   UNL     1      45.313   4.392   8.749  0.00  0.00    +0.000 A 
ATOM     22  C   UNL     1      44.886   3.508   9.720  0.00  0.00    +0.000 A 
ATOM     23  C   UNL     1      45.266   2.196   9.467  0.00  0.00    +0.000 A 
ATOM     24  N   UNL     1      46.007   1.781   8.417  0.00  0.00    +0.000 NA
BRANCH  19  26
ATOM     25  N   UNL     1      47.766   2.040   5.465  0.00  0.00    +0.000 NA
ATOM     26  C   UNL     1      47.134   2.339   6.399  0.00  0.00    +0.000 C 
ENDBRANCH  19  26
ENDBRANCH  17  22
ENDBRANCH   1  17
TORSDOF 5
ENDMDL
MODEL 4
REMARK VINA RESULT:    -6.758      1.179      2.383
REMARK INTER + INTRA:          -9.626
REMARK INTER:                  -9.537
REMARK INTRA:                  -0.089
REMARK UNBOUND:                -0.892
REMARK  Name = 
REMARK  5 active torsions:
REMARK  status: ('A' for Active; 'I' for Inactive)
REMARK    1  A    between atoms: C_2  and  C_3
REMARK    2  A    between atoms: C_6  and  N_7
REMARK    3  A    between atoms: N_7  and  C_8
REMARK    4  A    between atoms: C_8  and  C_9
REMARK    5  A    between atoms: C_13  and  C_14
REMARK                            x       y       z     vdW  Elec       q    Type
REMARK                         _______ _______ _______ _____ _____    ______ ____
ROOT
ATOM      1  C   UNL     1      44.112   4.396  11.571  0.00  0.00    +0.000 C 
ATOM      2  C   UNL     1      44.993   3.427  12.358  0.00  0.00    +0.000 C 
ATOM      3  C   UNL     1      43.630   3.756  12.863  0.00  0.00    +0.000 C 
ENDROOT
BRANCH   1   4
ATOM      4  C   UNL     1      44.442   5.880  11.645  0.00  0.00    +0.000 A 
ATOM      5  C   UNL     1      43.514   6.872  11.300  0.00  0.00    +0.000 A 
ATOM      6  C   UNL     1      43.882   8.216  11.261  0.00  0.00    +0.000 A 
ATOM      7  C   UNL     1      45.196   8.591  11.552  0.00  0.00    +0.000 A 
ATOM      8  C   UNL     1      46.165   7.638  11.899  0.00  0.00    +0.000 A 
ATOM      9  C   UNL     1      45.744   6.300  11.981  0.00  0.00    +0.000 A 
BRANCH   8  10
ATOM     10  C   UNL     1      47.593   7.993  12.074  0.00  0.00    +0.000 A 
ATOM     11  C   UNL     1      48.051   9.319  11.947  0.00  0.00    +0.000 A 
ATOM     12  C   UNL     1      49.388   9.653  12.192  0.00  0.00    +0.000 A 
ATOM     13  C   UNL     1      50.287   8.659  12.550  0.00  0.00    +0.000 A 
ATOM     14  F   UNL     1      51.567   8.976  12.783  0.00  0.00    +0.000 F 
ATOM     15  C   UNL     1      49.873   7.342  12.680  0.00  0.00    +0.000 A 
ATOM     16  C   UNL     1      48.535   7.015  12.450  0.00  0.00    +0.000 A 
ENDBRANCH   8  10
ENDBRANCH   1   4
BRANCH   1  17
ATOM     17  N   UNL     1      43.779   3.906  10.227  0.00  0.00    +0.000 N 
ATOM     18  H   UNL     1      42.826   3.569  10.118  0.00  0.00    +0.000 HD
BRANCH  17  22
ATOM     19  C   UNL     1      46.575   2.532   7.515  0.00  0.00    +0.000 A 
ATOM     20  N   UNL     1      45.975   1.595   8.282  0.00  0.00    +0.000 NA
ATOM     21  C   UNL     1      45.038   2.052   9.154  0.00  0.00    +0.000 A 
ATOM     22  C   UNL     1      44.660   3.373   9.280  0.00  0.00    +0.000 A 
ATOM     23  C   UNL     1      45.368   4.226   8.443  0.00  0.00    +0.000 A 
ATOM     24  N   UNL     1      46.312   3.848   7.553  0.00  0.00    +0.000 NA
BRANCH  19  26
ATOM     25  N   UNL     1      48.446   1.709   5.897  0.00  0.00    +0.000 NA
ATOM     26  C   UNL     1      47.602   2.088   6.608  0.00  0.00    +0.000 C 
ENDBRANCH  19  26
ENDBRANCH  17  22
ENDBRANCH   1  17
TORSDOF 5
ENDMDL
MODEL 5
REMARK VINA RESULT:    -6.560      4.106      7.376
REMARK INTER + INTRA:          -9.369
REMARK INTER:                  -9.412
REMARK INTRA:                   0.043
REMARK UNBOUND:                -0.892
REMARK  Name = 
REMARK  5 active torsions:
REMARK  status: ('A' for Active; 'I' for Inactive)
REMARK    1  A    between atoms: C_2  and  C_3
REMARK    2  A    between atoms: C_6  and  N_7
REMARK    3  A    between atoms: N_7  and  C_8
REMARK    4  A    between atoms: C_8  and  C_9
REMARK    5  A    between atoms: C_13  and  C_14
REMARK                            x       y       z     vdW  Elec       q    Type
REMARK                         _______ _______ _______ _____ _____    ______ ____
ROOT
ATOM      1  C   UNL     1      48.636   8.031  12.601  0.00  0.00    +0.000 C 
ATOM      2  C   UNL     1      49.768   7.469  11.743  0.00  0.00    +0.000 C 
ATOM      3  C   UNL     1      49.533   8.941  11.778  0.00  0.00    +0.000 C 
ENDROOT
BRANCH   1   4
ATOM      4  C   UNL     1      47.209   7.867  12.095  0.00  0.00    +0.000 A 
ATOM      5  C   UNL     1      46.194   8.782  12.408  0.00  0.00    +0.000 A 
ATOM      6  C   UNL     1      44.874   8.543  12.032  0.00  0.00    +0.000 A 
ATOM      7  C   UNL     1      44.541   7.370  11.350  0.00  0.00    +0.000 A 
ATOM      8  C   UNL     1      45.517   6.420  11.017  0.00  0.00    +0.000 A 
ATOM      9  C   UNL     1      46.845   6.720  11.362  0.00  0.00    +0.000 A 
BRANCH   8  10
ATOM     10  C   UNL     1      45.171   5.109  10.419  0.00  0.00    +0.000 A 
ATOM     11  C   UNL     1      45.570   4.757   9.114  0.00  0.00    +0.000 A 
ATOM     12  C   UNL     1      45.303   3.487   8.590  0.00  0.00    +0.000 A 
ATOM     13  C   UNL     1      44.618   2.559   9.361  0.00  0.00    +0.000 A 
ATOM     14  F   UNL     1      44.360   1.344   8.861  0.00  0.00    +0.000 F 
ATOM     15  C   UNL     1      44.205   2.871  10.647  0.00  0.00    +0.000 A 
ATOM     16  C   UNL     1      44.487   4.134  11.172  0.00  0.00    +0.000 A 
ENDBRANCH   8  10
ENDBRANCH   1   4
BRANCH   1  17
ATOM     17  N   UNL     1      48.815   7.762  14.033  0.00  0.00    +0.000 N 
ATOM     18  H   UNL     1      49.589   8.258  14.469  0.00  0.00    +0.000 HD
BRANCH  17  22
ATOM     19  C   UNL     1      47.643   4.519  16.307  0.00  0.00    +0.000 A 
ATOM     20  N   UNL     1      47.198   4.548  15.032  0.00  0.00    +0.000 NA
ATOM     21  C   UNL     1      47.608   5.604  14.282  0.00  0.00    +0.000 A 
ATOM     22  C   UNL     1      48.447   6.606  14.728  0.00  0.00    +0.000 A 
ATOM     23  C   UNL     1      48.813   6.457  16.061  0.00  0.00    +0.000 A 
ATOM     24  N   UNL     1      48.445   5.439  16.867  0.00  0.00    +0.000 NA
BRANCH  19  26
ATOM     25  N   UNL     1      46.811   2.547  17.795  0.00  0.00    +0.000 NA
ATOM     26  C   UNL     1      47.195   3.435  17.142  0.00  0.00    +0.000 C 
ENDBRANCH  19  26
ENDBRANCH  17  22
ENDBRANCH   1  17
TORSDOF 5
ENDMDL
MODEL 6
REMARK VINA RESULT:    -6.553      3.724      6.993
REMARK INTER + INTRA:          -9.360
REMARK INTER:                  -8.808
REMARK INTRA:                  -0.552
REMARK UNBOUND:                -0.892
REMARK  Name = 
REMARK  5 active torsions:
REMARK  status: ('A' for Active; 'I' for Inactive)
REMARK    1  A    between atoms: C_2  and  C_3
REMARK    2  A    between atoms: C_6  and  N_7
REMARK    3  A    between atoms: N_7  and  C_8
REMARK    4  A    between atoms: C_8  and  C_9
REMARK    5  A    between atoms: C_13  and  C_14
REMARK                            x       y       z     vdW  Elec       q    Type
REMARK                         _______ _______ _______ _____ _____    ______ ____
ROOT
ATOM      1  C   UNL     1      45.988   5.059  13.227  0.00  0.00    +0.000 C 
ATOM      2  C   UNL     1      46.091   4.493  14.643  0.00  0.00    +0.000 C 
ATOM      3  C   UNL     1      47.255   4.379  13.719  0.00  0.00    +0.000 C 
ENDROOT
BRANCH   1   4
ATOM      4  C   UNL     1      45.168   4.281  12.206  0.00  0.00    +0.000 A 
ATOM      5  C   UNL     1      43.956   3.659  12.536  0.00  0.00    +0.000 A 
ATOM      6  C   UNL     1      43.289   2.855  11.614  0.00  0.00    +0.000 A 
ATOM      7  C   UNL     1      43.835   2.643  10.346  0.00  0.00    +0.000 A 
ATOM      8  C   UNL     1      45.047   3.239   9.966  0.00  0.00    +0.000 A 
ATOM      9  C   UNL     1      45.662   4.087  10.902  0.00  0.00    +0.000 A 
BRANCH   8  10
ATOM     10  C   UNL     1      45.714   2.920   8.682  0.00  0.00    +0.000 A 
ATOM     11  C   UNL     1      46.001   3.915   7.726  0.00  0.00    +0.000 A 
ATOM     12  C   UNL     1      46.700   3.614   6.552  0.00  0.00    +0.000 A 
ATOM     13  C   UNL     1      47.106   2.309   6.312  0.00  0.00    +0.000 A 
ATOM     14  F   UNL     1      47.774   2.019   5.188  0.00  0.00    +0.000 F 
ATOM     15  C   UNL     1      46.838   1.303   7.228  0.00  0.00    +0.000 A 
ATOM     16  C   UNL     1      46.152   1.610   8.406  0.00  0.00    +0.000 A 
ENDBRANCH   8  10
ENDBRANCH   1   4
BRANCH   1  17
ATOM     17  N   UNL     1      45.780   6.512  13.204  0.00  0.00    +0.000 N 
ATOM     18  H   UNL     1      44.807   6.806  13.239  0.00  0.00    +0.000 HD
BRANCH  17  22
ATOM     19  C   UNL     1      48.289   9.486  11.817  0.00  0.00    +0.000 A 
ATOM     20  N   UNL     1      48.619   8.220  11.481  0.00  0.00    +0.000 NA
ATOM     21  C   UNL     1      47.776   7.249  11.920  0.00  0.00    +0.000 A 
ATOM     22  C   UNL     1      46.624   7.477  12.645  0.00  0.00    +0.000 A 
ATOM     23  C   UNL     1      46.418   8.821  12.931  0.00  0.00    +0.000 A 
ATOM     24  N   UNL     1      47.210   9.840  12.533  0.00  0.00    +0.000 NA
BRANCH  19  26
ATOM     25  N   UNL     1      49.891  11.408  11.086  0.00  0.00    +0.000 NA
ATOM     26  C   UNL     1      49.183  10.536  11.403  0.00  0.00    +0.000 C 
ENDBRANCH  19  26
ENDBRANCH  17  22
ENDBRANCH   1  17
TORSDOF 5
ENDMDL
MODEL 7
REMARK VINA RESULT:    -6.350      6.031      8.245
REMARK INTER + INTRA:          -9.098
REMARK INTER:                  -8.330
REMARK INTRA:                  -0.768
REMARK UNBOUND:                -0.892
REMARK  Name = 
REMARK  5 active torsions:
REMARK  status: ('A' for Active; 'I' for Inactive)
REMARK    1  A    between atoms: C_2  and  C_3
REMARK    2  A    between atoms: C_6  and  N_7
REMARK    3  A    between atoms: N_7  and  C_8
REMARK    4  A    between atoms: C_8  and  C_9
REMARK    5  A    between atoms: C_13  and  C_14
REMARK                            x       y       z     vdW  Elec       q    Type
REMARK                         _______ _______ _______ _____ _____    ______ ____
ROOT
ATOM      1  C   UNL     1      48.290   4.640  17.216  0.00  0.00    +0.000 C 
ATOM      2  C   UNL     1      47.143   4.918  18.185  0.00  0.00    +0.000 C 
ATOM      3  C   UNL     1      47.127   3.673  17.366  0.00  0.00    +0.000 C 
ENDROOT
BRANCH   1   4
ATOM      4  C   UNL     1      48.334   5.432  15.917  0.00  0.00    +0.000 A 
ATOM      5  C   UNL     1      49.062   6.623  15.790  0.00  0.00    +0.000 A 
ATOM      6  C   UNL     1      48.987   7.389  14.628  0.00  0.00    +0.000 A 
ATOM      7  C   UNL     1      48.164   6.984  13.574  0.00  0.00    +0.000 A 
ATOM      8  C   UNL     1      47.411   5.803  13.651  0.00  0.00    +0.000 A 
ATOM      9  C   UNL     1      47.555   5.028  14.814  0.00  0.00    +0.000 A 
BRANCH   8  10
ATOM     10  C   UNL     1      46.428   5.425  12.609  0.00  0.00    +0.000 A 
ATOM     11  C   UNL     1      46.265   6.181  11.431  0.00  0.00    +0.000 A 
ATOM     12  C   UNL     1      45.389   5.770  10.420  0.00  0.00    +0.000 A 
ATOM     13  C   UNL     1      44.652   4.606  10.583  0.00  0.00    +0.000 A 
ATOM     14  F   UNL     1      43.812   4.212   9.617  0.00  0.00    +0.000 F 
ATOM     15  C   UNL     1      44.783   3.839  11.731  0.00  0.00    +0.000 A 
ATOM     16  C   UNL     1      45.670   4.244  12.732  0.00  0.00    +0.000 A 
ENDBRANCH   8  10
ENDBRANCH   1   4
BRANCH   1  17
ATOM     17  N   UNL     1      49.586   4.491  17.890  0.00  0.00    +0.000 N 
ATOM     18  H   UNL     1      50.012   5.362  18.197  0.00  0.00    +0.000 HD
BRANCH  17  22
ATOM     19  C   UNL     1      52.413   1.488  17.652  0.00  0.00    +0.000 A 
ATOM     20  N   UNL     1      51.175   1.181  17.207  0.00  0.00    +0.000 NA
ATOM     21  C   UNL     1      50.257   2.181  17.265  0.00  0.00    +0.000 A 
ATOM     22  C   UNL     1      50.515   3.460  17.716  0.00  0.00    +0.000 A 
ATOM     23  C   UNL     1      51.822   3.629  18.156  0.00  0.00    +0.000 A 
ATOM     24  N   UNL     1      52.788   2.685  18.132  0.00  0.00    +0.000 NA
BRANCH  19  26
ATOM     25  N   UNL     1      54.180  -0.428  17.652  0.00  0.00    +0.000 NA
ATOM     26  C   UNL     1      53.400   0.440  17.643  0.00  0.00    +0.000 C 
ENDBRANCH  19  26
ENDBRANCH  17  22
ENDBRANCH   1  17
TORSDOF 5
ENDMDL
MODEL 8
REMARK VINA RESULT:    -6.209      4.926      8.313
REMARK INTER + INTRA:          -8.915
REMARK INTER:                  -8.140
REMARK INTRA:                  -0.775
REMARK UNBOUND:                -0.892
REMARK  Name = 
REMARK  5 active torsions:
REMARK  status: ('A' for Active; 'I' for Inactive)
REMARK    1  A    between atoms: C_2  and  C_3
REMARK    2  A    between atoms: C_6  and  N_7
REMARK    3  A    between atoms: N_7  and  C_8
REMARK    4  A    between atoms: C_8  and  C_9
REMARK    5  A    between atoms: C_13  and  C_14
REMARK                            x       y       z     vdW  Elec       q    Type
REMARK                         _______ _______ _______ _____ _____    ______ ____
ROOT
ATOM      1  C   UNL     1      48.966   7.845  12.592  0.00  0.00    +0.000 C 
ATOM      2  C   UNL     1      50.056   7.776  11.524  0.00  0.00    +0.000 C 
ATOM      3  C   UNL     1      49.732   9.085  12.159  0.00  0.00    +0.000 C 
ENDROOT
BRANCH   1   4
ATOM      4  C   UNL     1      47.515   7.765  12.137  0.00  0.00    +0.000 A 
ATOM      5  C   UNL     1      46.562   8.728  12.499  0.00  0.00    +0.000 A 
ATOM      6  C   UNL     1      45.218   8.565  12.169  0.00  0.00    +0.000 A 
ATOM      7  C   UNL     1      44.799   7.422  11.484  0.00  0.00    +0.000 A 
ATOM      8  C   UNL     1      45.711   6.427  11.102  0.00  0.00    +0.000 A 
ATOM      9  C   UNL     1      47.064   6.651  11.402  0.00  0.00    +0.000 A 
BRANCH   8  10
ATOM     10  C   UNL     1      45.273   5.146  10.500  0.00  0.00    +0.000 A 
ATOM     11  C   UNL     1      45.551   4.821   9.157  0.00  0.00    +0.000 A 
ATOM     12  C   UNL     1      45.201   3.576   8.622  0.00  0.00    +0.000 A 
ATOM     13  C   UNL     1      44.551   2.647   9.422  0.00  0.00    +0.000 A 
ATOM     14  F   UNL     1      44.213   1.455   8.912  0.00  0.00    +0.000 F 
ATOM     15  C   UNL     1      44.256   2.932  10.746  0.00  0.00    +0.000 A 
ATOM     16  C   UNL     1      44.622   4.170  11.280  0.00  0.00    +0.000 A 
ENDBRANCH   8  10
ENDBRANCH   1   4
BRANCH   1  17
ATOM     17  N   UNL     1      49.281   7.049  13.785  0.00  0.00    +0.000 N 
ATOM     18  H   UNL     1      49.433   6.058  13.610  0.00  0.00    +0.000 HD
BRANCH  17  22
ATOM     19  C   UNL     1      48.408   7.692  17.770  0.00  0.00    +0.000 A 
ATOM     20  N   UNL     1      48.438   8.787  16.980  0.00  0.00    +0.000 NA
ATOM     21  C   UNL     1      48.701   8.566  15.666  0.00  0.00    +0.000 A 
ATOM     22  C   UNL     1      48.909   7.321  15.105  0.00  0.00    +0.000 A 
ATOM     23  C   UNL     1      48.866   6.290  16.035  0.00  0.00    +0.000 A 
ATOM     24  N   UNL     1      48.613   6.432  17.354  0.00  0.00    +0.000 NA
BRANCH  19  26
ATOM     25  N   UNL     1      47.962   8.083  20.309  0.00  0.00    +0.000 NA
ATOM     26  C   UNL     1      48.173   7.894  19.176  0.00  0.00    +0.000 C 
ENDBRANCH  19  26
ENDBRANCH  17  22
ENDBRANCH   1  17
TORSDOF 5
ENDMDL
MODEL 9
REMARK VINA RESULT:    -5.834      4.363      6.655
REMARK INTER + INTRA:          -8.431
REMARK INTER:                  -7.747
REMARK INTRA:                  -0.685
REMARK UNBOUND:                -0.892
REMARK  Name = 
REMARK  5 active torsions:
REMARK  status: ('A' for Active; 'I' for Inactive)
REMARK    1  A    between atoms: C_2  and  C_3
REMARK    2  A    between atoms: C_6  and  N_7
REMARK    3  A    between atoms: N_7  and  C_8
REMARK    4  A    between atoms: C_8  and  C_9
REMARK    5  A    between atoms: C_13  and  C_14
REMARK                            x       y       z     vdW  Elec       q    Type
REMARK                         _______ _______ _______ _____ _____    ______ ____
ROOT
ATOM      1  C   UNL     1      48.156   7.854  12.987  0.00  0.00    +0.000 C 
ATOM      2  C   UNL     1      48.196   9.096  12.099  0.00  0.00    +0.000 C 
ATOM      3  C   UNL     1      48.675   7.792  11.560  0.00  0.00    +0.000 C 
ENDROOT
BRANCH   1   4
ATOM      4  C   UNL     1      49.205   7.727  14.084  0.00  0.00    +0.000 A 
ATOM      5  C   UNL     1      50.541   8.104  13.890  0.00  0.00    +0.000 A 
ATOM      6  C   UNL     1      51.502   7.865  14.870  0.00  0.00    +0.000 A 
ATOM      7  C   UNL     1      51.146   7.225  16.060  0.00  0.00    +0.000 A 
ATOM      8  C   UNL     1      49.824   6.823  16.302  0.00  0.00    +0.000 A 
ATOM      9  C   UNL     1      48.872   7.131  15.316  0.00  0.00    +0.000 A 
BRANCH   8  10
ATOM     10  C   UNL     1      49.448   6.022  17.490  0.00  0.00    +0.000 A 
ATOM     11  C   UNL     1      49.920   4.707  17.680  0.00  0.00    +0.000 A 
ATOM     12  C   UNL     1      49.621   3.989  18.843  0.00  0.00    +0.000 A 
ATOM     13  C   UNL     1      48.831   4.572  19.823  0.00  0.00    +0.000 A 
ATOM     14  F   UNL     1      48.542   3.886  20.937  0.00  0.00    +0.000 F 
ATOM     15  C   UNL     1      48.345   5.861  19.669  0.00  0.00    +0.000 A 
ATOM     16  C   UNL     1      48.658   6.581  18.514  0.00  0.00    +0.000 A 
ENDBRANCH   8  10
ENDBRANCH   1   4
BRANCH   1  17
ATOM     17  N   UNL     1      46.795   7.482  13.392  0.00  0.00    +0.000 N 
ATOM     18  H   UNL     1      46.531   7.777  14.330  0.00  0.00    +0.000 HD
BRANCH  17  22
ATOM     19  C   UNL     1      44.500   4.228  12.294  0.00  0.00    +0.000 A 
ATOM     20  N   UNL     1      44.262   5.380  11.628  0.00  0.00    +0.000 NA
ATOM     21  C   UNL     1      45.038   6.439  11.977  0.00  0.00    +0.000 A 
ATOM     22  C   UNL     1      46.040   6.401  12.926  0.00  0.00    +0.000 A 
ATOM     23  C   UNL     1      46.162   5.161  13.540  0.00  0.00    +0.000 A 
ATOM     24  N   UNL     1      45.429   4.065  13.249  0.00  0.00    +0.000 NA
BRANCH  19  26
ATOM     25  N   UNL     1      43.009   2.176  11.693  0.00  0.00    +0.000 NA
ATOM     26  C   UNL     1      43.668   3.096  11.978  0.00  0.00    +0.000 C 
ENDBRANCH  19  26
ENDBRANCH  17  22
ENDBRANCH   1  17
TORSDOF 5
ENDMDL
