MODEL 1
REMARK VINA RESULT:    -8.631      0.000      0.000
REMARK INTER + INTRA:         -11.492
REMARK INTER:                 -11.154
REMARK INTRA:                  -0.338
REMARK UNBOUND:                -0.338
REMARK  Name = 
REMARK  5 active torsions:
REMARK  status: ('A' for Active; 'I' for Inactive)
REMARK    1  A    between atoms: C_2  and  C_3
REMARK    2  A    between atoms: C_6  and  C_7
REMARK    3  A    between atoms: C_7  and  N_8
REMARK    4  A    between atoms: N_8  and  C_9
REMARK    5  A    between atoms: C_12  and  C_13
REMARK                            x       y       z     vdW  Elec       q    Type
REMARK                         _______ _______ _______ _____ _____    ______ ____
ROOT
ATOM      1  N   UNL     1      43.960   4.714  10.185  0.00  0.00    +0.000 N 
ATOM      2  H   UNL     1      43.175   5.159   9.720  0.00  0.00    +0.000 HD
ENDROOT
BRANCH   1   3
ATOM      3  C   UNL     1      44.765   3.935   9.347  0.00  0.00    +0.000 A 
ATOM      4  C   UNL     1      44.781   2.538   9.318  0.00  0.00    +0.000 A 
ATOM      5  C   UNL     1      45.675   1.853   8.473  0.00  0.00    +0.000 A 
ATOM      6  C   UNL     1      46.555   2.558   7.633  0.00  0.00    +0.000 A 
ATOM      7  C   UNL     1      46.530   3.949   7.645  0.00  0.00    +0.000 A 
ATOM      8  C   UNL     1      45.649   4.621   8.494  0.00  0.00    +0.000 A 
BRANCH   6   9
ATOM      9  C   UNL     1      47.533   1.804   6.808  0.00  0.00    +0.000 C 
ATOM     10  N   UNL     1      48.623   2.486   6.338  0.00  0.00    +0.000 N 
ATOM     11  O   UNL     1      47.377   0.618   6.552  0.00  0.00    +0.000 OA
ATOM     12  H   UNL     1      48.751   3.483   6.428  0.00  0.00    +0.000 HD
ATOM     13  H   UNL     1      49.273   1.972   5.758  0.00  0.00    +0.000 HD
ENDBRANCH   6   9
ENDBRANCH   1   3
BRANCH   1  14
ATOM     14  C   UNL     1      44.036   4.909  11.638  0.00  0.00    +0.000 C 
ATOM     15  C   UNL     1      42.827   5.145  12.525  0.00  0.00    +0.000 C 
ATOM     16  C   UNL     1      43.404   3.779  12.466  0.00  0.00    +0.000 C 
ATOM     17  F   UNL     1      42.681   2.812  11.785  0.00  0.00    +0.000 F 
BRANCH  14  21
ATOM     18  C   UNL     1      47.782   6.479  13.198  0.00  0.00    +0.000 A 
ATOM     19  C   UNL     1      47.154   7.115  12.129  0.00  0.00    +0.000 A 
ATOM     20  C   UNL     1      45.972   6.588  11.599  0.00  0.00    +0.000 A 
ATOM     21  C   UNL     1      45.390   5.420  12.124  0.00  0.00    +0.000 A 
ATOM     22  C   UNL     1      46.086   4.759  13.152  0.00  0.00    +0.000 A 
ATOM     23  C   UNL     1      47.257   5.288  13.702  0.00  0.00    +0.000 A 
BRANCH  18  25
ATOM     24  N   UNL     1      49.893   7.514  14.289  0.00  0.00    +0.000 NA
ATOM     25  C   UNL     1      48.951   7.052  13.788  0.00  0.00    +0.000 C 
ENDBRANCH  18  25
ENDBRANCH  14  21
ENDBRANCH   1  14
TORSDOF 5
ENDMDL
MODEL 2
REMARK VINA RESULT:    -7.789      2.896      6.681
REMARK INTER + INTRA:         -10.404
REMARK INTER:                  -9.840
REMARK INTRA:                  -0.565
REMARK UNBOUND:                -0.338
REMARK  Name = 
REMARK  5 active torsions:
REMARK  status: ('A' for Active; 'I' for Inactive)
REMARK    1  A    between atoms: C_2  and  C_3
REMARK    2  A    between atoms: C_6  and  C_7
REMARK    3  A    between atoms: C_7  and  N_8
REMARK    4  A    between atoms: N_8  and  C_9
REMARK    5  A    between atoms: C_12  and  C_13
REMARK                            x       y       z     vdW  Elec       q    Type
REMARK                         _______ _______ _______ _____ _____    ______ ____
ROOT
ATOM      1  N   UNL     1      44.592   6.227  10.993  0.00  0.00    +0.000 N 
ATOM      2  H   UNL     1      44.122   6.826  10.322  0.00  0.00    +0.000 HD
ENDROOT
BRANCH   1   3
ATOM      3  C   UNL     1      45.538   6.881  11.790  0.00  0.00    +0.000 A 
ATOM      4  C   UNL     1      46.765   6.343  12.186  0.00  0.00    +0.000 A 
ATOM      5  C   UNL     1      47.620   7.069  13.038  0.00  0.00    +0.000 A 
ATOM      6  C   UNL     1      47.264   8.350  13.493  0.00  0.00    +0.000 A 
ATOM      7  C   UNL     1      46.051   8.898  13.087  0.00  0.00    +0.000 A 
ATOM      8  C   UNL     1      45.205   8.167  12.251  0.00  0.00    +0.000 A 
BRANCH   6   9
ATOM      9  C   UNL     1      48.157   9.056  14.447  0.00  0.00    +0.000 C 
ATOM     10  N   UNL     1      47.676   9.290  15.708  0.00  0.00    +0.000 N 
ATOM     11  O   UNL     1      49.280   9.420  14.126  0.00  0.00    +0.000 OA
ATOM     12  H   UNL     1      46.726   9.108  15.997  0.00  0.00    +0.000 HD
ATOM     13  H   UNL     1      48.280   9.792  16.345  0.00  0.00    +0.000 HD
ENDBRANCH   6   9
ENDBRANCH   1   3
BRANCH   1  14
ATOM     14  C   UNL     1      44.247   4.802  10.932  0.00  0.00    +0.000 C 
ATOM     15  C   UNL     1      43.759   3.998  12.123  0.00  0.00    +0.000 C 
ATOM     16  C   UNL     1      42.756   4.497  11.151  0.00  0.00    +0.000 C 
ATOM     17  F   UNL     1      41.942   5.542  11.558  0.00  0.00    +0.000 F 
BRANCH  14  21
ATOM     18  C   UNL     1      46.367   2.628   7.816  0.00  0.00    +0.000 A 
ATOM     19  C   UNL     1      46.351   4.022   7.803  0.00  0.00    +0.000 A 
ATOM     20  C   UNL     1      45.635   4.722   8.779  0.00  0.00    +0.000 A 
ATOM     21  C   UNL     1      44.924   4.049   9.790  0.00  0.00    +0.000 A 
ATOM     22  C   UNL     1      44.897   2.644   9.733  0.00  0.00    +0.000 A 
ATOM     23  C   UNL     1      45.626   1.935   8.774  0.00  0.00    +0.000 A 
BRANCH  18  25
ATOM     24  N   UNL     1      47.814   1.333   6.099  0.00  0.00    +0.000 NA
ATOM     25  C   UNL     1      47.155   1.910   6.863  0.00  0.00    +0.000 C 
ENDBRANCH  18  25
ENDBRANCH  14  21
ENDBRANCH   1  14
TORSDOF 5
ENDMDL
MODEL 3
REMARK VINA RESULT:    -7.134      2.790      6.276
REMARK INTER + INTRA:          -9.558
REMARK INTER:                  -9.245
REMARK INTRA:                  -0.313
REMARK UNBOUND:                -0.338
REMARK  Name = 
REMARK  5 active torsions:
REMARK  status: ('A' for Active; 'I' for Inactive)
REMARK    1  A    between atoms: C_2  and  C_3
REMARK    2  A    between atoms: C_6  and  C_7
REMARK    3  A    between atoms: C_7  and  N_8
REMARK    4  A    between atoms: N_8  and  C_9
REMARK    5  A    between atoms: C_12  and  C_13
REMARK                            x       y       z     vdW  Elec       q    Type
REMARK                         _______ _______ _______ _____ _____    ______ ____
ROOT
ATOM      1  N   UNL     1      45.388   4.373  12.512  0.00  0.00    +0.000 N 
ATOM      2  H   UNL     1      45.709   3.847  13.318  0.00  0.00    +0.000 HD
ENDROOT
BRANCH   1   3
ATOM      3  C   UNL     1      45.860   5.690  12.455  0.00  0.00    +0.000 A 
ATOM      4  C   UNL     1      45.061   6.824  12.294  0.00  0.00    +0.000 A 
ATOM      5  C   UNL     1      45.647   8.101  12.192  0.00  0.00    +0.000 A 
ATOM      6  C   UNL     1      47.042   8.259  12.265  0.00  0.00    +0.000 A 
ATOM      7  C   UNL     1      47.842   7.135  12.443  0.00  0.00    +0.000 A 
ATOM      8  C   UNL     1      47.253   5.872  12.532  0.00  0.00    +0.000 A 
BRANCH   6   9
ATOM      9  C   UNL     1      47.630   9.611  12.082  0.00  0.00    +0.000 C 
ATOM     10  N   UNL     1      46.925  10.679  12.569  0.00  0.00    +0.000 N 
ATOM     11  O   UNL     1      48.703   9.772  11.517  0.00  0.00    +0.000 OA
ATOM     12  H   UNL     1      45.992  10.619  12.948  0.00  0.00    +0.000 HD
ATOM     13  H   UNL     1      47.321  11.598  12.420  0.00  0.00    +0.000 HD
ENDBRANCH   6   9
ENDBRANCH   1   3
BRANCH   1  14
ATOM     14  C   UNL     1      44.440   3.682  11.632  0.00  0.00    +0.000 C 
ATOM     15  C   UNL     1      43.380   2.714  12.125  0.00  0.00    +0.000 C 
ATOM     16  C   UNL     1      42.974   4.107  11.815  0.00  0.00    +0.000 C 
ATOM     17  F   UNL     1      42.676   4.935  12.885  0.00  0.00    +0.000 F 
BRANCH  14  21
ATOM     18  C   UNL     1      46.034   3.241   7.607  0.00  0.00    +0.000 A 
ATOM     19  C   UNL     1      45.848   4.513   8.145  0.00  0.00    +0.000 A 
ATOM     20  C   UNL     1      45.296   4.658   9.422  0.00  0.00    +0.000 A 
ATOM     21  C   UNL     1      44.923   3.540  10.190  0.00  0.00    +0.000 A 
ATOM     22  C   UNL     1      45.052   2.274   9.591  0.00  0.00    +0.000 A 
ATOM     23  C   UNL     1      45.620   2.118   8.325  0.00  0.00    +0.000 A 
BRANCH  18  25
ATOM     24  N   UNL     1      47.161   2.939   5.293  0.00  0.00    +0.000 NA
ATOM     25  C   UNL     1      46.662   3.085   6.332  0.00  0.00    +0.000 C 
ENDBRANCH  18  25
ENDBRANCH  14  21
ENDBRANCH   1  14
TORSDOF 5
ENDMDL
MODEL 4
REMARK VINA RESULT:    -6.899      2.802      6.709
REMARK INTER + INTRA:          -9.253
REMARK INTER:                  -8.682
REMARK INTRA:                  -0.571
REMARK UNBOUND:                -0.338
REMARK  Name = 
REMARK  5 active torsions:
REMARK  status: ('A' for Active; 'I' for Inactive)
REMARK    1  A    between atoms: C_2  and  C_3
REMARK    2  A    between atoms: C_6  and  C_7
REMARK    3  A    between atoms: C_7  and  N_8
REMARK    4  A    between atoms: N_8  and  C_9
REMARK    5  A    between atoms: C_12  and  C_13
REMARK                            x       y       z     vdW  Elec       q    Type
REMARK                         _______ _______ _______ _____ _____    ______ ____
ROOT
ATOM      1  N   UNL     1      45.169   5.668  11.604  0.00  0.00    +0.000 N 
ATOM      2  H   UNL     1      45.035   6.575  11.170  0.00  0.00    +0.000 HD
ENDROOT
BRANCH   1   3
ATOM      3  C   UNL     1      46.060   5.668  12.683  0.00  0.00    +0.000 A 
ATOM      4  C   UNL     1      46.146   4.667  13.655  0.00  0.00    +0.000 A 
ATOM      5  C   UNL     1      47.043   4.795  14.733  0.00  0.00    +0.000 A 
ATOM      6  C   UNL     1      47.877   5.921  14.845  0.00  0.00    +0.000 A 
ATOM      7  C   UNL     1      47.808   6.912  13.870  0.00  0.00    +0.000 A 
ATOM      8  C   UNL     1      46.908   6.782  12.810  0.00  0.00    +0.000 A 
BRANCH   6   9
ATOM      9  C   UNL     1      48.759   6.058  16.032  0.00  0.00    +0.000 C 
ATOM     10  N   UNL     1      48.158   6.124  17.262  0.00  0.00    +0.000 N 
ATOM     11  O   UNL     1      49.976   6.111  15.925  0.00  0.00    +0.000 OA
ATOM     12  H   UNL     1      47.161   6.191  17.404  0.00  0.00    +0.000 HD
ATOM     13  H   UNL     1      48.764   6.240  18.064  0.00  0.00    +0.000 HD
ENDBRANCH   6   9
ENDBRANCH   1   3
BRANCH   1  14
ATOM     14  C   UNL     1      44.476   4.544  10.964  0.00  0.00    +0.000 C 
ATOM     15  C   UNL     1      43.438   3.682  11.663  0.00  0.00    +0.000 C 
ATOM     16  C   UNL     1      42.968   4.760  10.758  0.00  0.00    +0.000 C 
ATOM     17  F   UNL     1      42.394   5.877  11.343  0.00  0.00    +0.000 F 
BRANCH  14  21
ATOM     18  C   UNL     1      46.444   2.842   7.478  0.00  0.00    +0.000 A 
ATOM     19  C   UNL     1      45.898   2.001   8.447  0.00  0.00    +0.000 A 
ATOM     20  C   UNL     1      45.303   2.546   9.588  0.00  0.00    +0.000 A 
ATOM     21  C   UNL     1      45.235   3.937   9.787  0.00  0.00    +0.000 A 
ATOM     22  C   UNL     1      45.861   4.756   8.830  0.00  0.00    +0.000 A 
ATOM     23  C   UNL     1      46.440   4.223   7.676  0.00  0.00    +0.000 A 
BRANCH  18  25
ATOM     24  N   UNL     1      47.441   1.867   5.293  0.00  0.00    +0.000 NA
ATOM     25  C   UNL     1      46.991   2.292   6.276  0.00  0.00    +0.000 C 
ENDBRANCH  18  25
ENDBRANCH  14  21
ENDBRANCH   1  14
TORSDOF 5
ENDMDL
MODEL 5
REMARK VINA RESULT:    -5.964      3.400      4.849
REMARK INTER + INTRA:          -8.046
REMARK INTER:                  -7.725
REMARK INTRA:                  -0.320
REMARK UNBOUND:                -0.338
REMARK  Name = 
REMARK  5 active torsions:
REMARK  status: ('A' for Active; 'I' for Inactive)
REMARK    1  A    between atoms: C_2  and  C_3
REMARK    2  A    between atoms: C_6  and  C_7
REMARK    3  A    between atoms: C_7  and  N_8
REMARK    4  A    between atoms: N_8  and  C_9
REMARK    5  A    between atoms: C_12  and  C_13
REMARK                            x       y       z     vdW  Elec       q    Type
REMARK                         _______ _______ _______ _____ _____    ______ ____
ROOT
ATOM      1  N   UNL     1      46.318   6.164  13.552  0.00  0.00    +0.000 N 
ATOM      2  H   UNL     1      45.597   6.592  14.124  0.00  0.00    +0.000 HD
ENDROOT
BRANCH   1   3
ATOM      3  C   UNL     1      45.833   5.343  12.528  0.00  0.00    +0.000 A 
ATOM      4  C   UNL     1      45.445   4.010  12.681  0.00  0.00    +0.000 A 
ATOM      5  C   UNL     1      45.025   3.257  11.568  0.00  0.00    +0.000 A 
ATOM      6  C   UNL     1      44.974   3.834  10.288  0.00  0.00    +0.000 A 
ATOM      7  C   UNL     1      45.343   5.167  10.132  0.00  0.00    +0.000 A 
ATOM      8  C   UNL     1      45.768   5.903  11.239  0.00  0.00    +0.000 A 
BRANCH   6   9
ATOM      9  C   UNL     1      44.595   2.991   9.125  0.00  0.00    +0.000 C 
ATOM     10  N   UNL     1      44.246   3.631   7.966  0.00  0.00    +0.000 N 
ATOM     11  O   UNL     1      44.592   1.769   9.193  0.00  0.00    +0.000 OA
ATOM     12  H   UNL     1      44.129   4.630   7.882  0.00  0.00    +0.000 HD
ATOM     13  H   UNL     1      43.966   3.051   7.186  0.00  0.00    +0.000 HD
ENDBRANCH   6   9
ENDBRANCH   1   3
BRANCH   1  14
ATOM     14  C   UNL     1      47.701   6.424  13.967  0.00  0.00    +0.000 C 
ATOM     15  C   UNL     1      48.844   6.663  12.996  0.00  0.00    +0.000 C 
ATOM     16  C   UNL     1      48.209   7.838  13.643  0.00  0.00    +0.000 C 
ATOM     17  F   UNL     1      47.405   8.642  12.851  0.00  0.00    +0.000 F 
BRANCH  14  21
ATOM     18  C   UNL     1      48.478   5.007  18.007  0.00  0.00    +0.000 A 
ATOM     19  C   UNL     1      49.120   6.151  17.536  0.00  0.00    +0.000 A 
ATOM     20  C   UNL     1      48.905   6.584  16.224  0.00  0.00    +0.000 A 
ATOM     21  C   UNL     1      48.042   5.890  15.356  0.00  0.00    +0.000 A 
ATOM     22  C   UNL     1      47.468   4.698  15.834  0.00  0.00    +0.000 A 
ATOM     23  C   UNL     1      47.661   4.269  17.150  0.00  0.00    +0.000 A 
BRANCH  18  25
ATOM     24  N   UNL     1      48.790   4.284  20.476  0.00  0.00    +0.000 NA
ATOM     25  C   UNL     1      48.640   4.601  19.368  0.00  0.00    +0.000 C 
ENDBRANCH  18  25
ENDBRANCH  14  21
ENDBRANCH   1  14
TORSDOF 5
ENDMDL
MODEL 6
REMARK VINA RESULT:    -5.835      3.447      5.620
REMARK INTER + INTRA:          -7.879
REMARK INTER:                  -7.459
REMARK INTRA:                  -0.420
REMARK UNBOUND:                -0.338
REMARK  Name = 
REMARK  5 active torsions:
REMARK  status: ('A' for Active; 'I' for Inactive)
REMARK    1  A    between atoms: C_2  and  C_3
REMARK    2  A    between atoms: C_6  and  C_7
REMARK    3  A    between atoms: C_7  and  N_8
REMARK    4  A    between atoms: N_8  and  C_9
REMARK    5  A    between atoms: C_12  and  C_13
REMARK                            x       y       z     vdW  Elec       q    Type
REMARK                         _______ _______ _______ _____ _____    ______ ____
ROOT
ATOM      1  N   UNL     1      47.044   6.820  14.001  0.00  0.00    +0.000 N 
ATOM      2  H   UNL     1      46.461   6.983  14.815  0.00  0.00    +0.000 HD
ENDROOT
BRANCH   1   3
ATOM      3  C   UNL     1      46.413   6.121  12.966  0.00  0.00    +0.000 A 
ATOM      4  C   UNL     1      46.138   6.638  11.698  0.00  0.00    +0.000 A 
ATOM      5  C   UNL     1      45.445   5.864  10.747  0.00  0.00    +0.000 A 
ATOM      6  C   UNL     1      45.031   4.556  11.049  0.00  0.00    +0.000 A 
ATOM      7  C   UNL     1      45.318   4.029  12.305  0.00  0.00    +0.000 A 
ATOM      8  C   UNL     1      45.995   4.808  13.245  0.00  0.00    +0.000 A 
BRANCH   6   9
ATOM      9  C   UNL     1      44.239   3.794  10.049  0.00  0.00    +0.000 C 
ATOM     10  N   UNL     1      44.112   4.337   8.798  0.00  0.00    +0.000 N 
ATOM     11  O   UNL     1      43.717   2.723  10.325  0.00  0.00    +0.000 OA
ATOM     12  H   UNL     1      44.430   5.260   8.544  0.00  0.00    +0.000 HD
ATOM     13  H   UNL     1      43.552   3.824   8.129  0.00  0.00    +0.000 HD
ENDBRANCH   6   9
ENDBRANCH   1   3
BRANCH   1  14
ATOM     14  C   UNL     1      48.437   7.270  14.111  0.00  0.00    +0.000 C 
ATOM     15  C   UNL     1      49.267   7.748  12.933  0.00  0.00    +0.000 C 
ATOM     16  C   UNL     1      48.649   8.764  13.820  0.00  0.00    +0.000 C 
ATOM     17  F   UNL     1      47.573   9.478  13.316  0.00  0.00    +0.000 F 
BRANCH  14  21
ATOM     18  C   UNL     1      50.621   5.507  17.436  0.00  0.00    +0.000 A 
ATOM     19  C   UNL     1      49.264   5.234  17.274  0.00  0.00    +0.000 A 
ATOM     20  C   UNL     1      48.550   5.833  16.231  0.00  0.00    +0.000 A 
ATOM     21  C   UNL     1      49.174   6.712  15.326  0.00  0.00    +0.000 A 
ATOM     22  C   UNL     1      50.525   7.027  15.561  0.00  0.00    +0.000 A 
ATOM     23  C   UNL     1      51.251   6.418  16.587  0.00  0.00    +0.000 A 
BRANCH  18  25
ATOM     24  N   UNL     1      51.989   4.323  19.292  0.00  0.00    +0.000 NA
ATOM     25  C   UNL     1      51.370   4.843  18.457  0.00  0.00    +0.000 C 
ENDBRANCH  18  25
ENDBRANCH  14  21
ENDBRANCH   1  14
TORSDOF 5
ENDMDL
MODEL 7
REMARK VINA RESULT:    -5.827      3.540      5.482
REMARK INTER + INTRA:          -7.868
REMARK INTER:                  -7.285
REMARK INTRA:                  -0.583
REMARK UNBOUND:                -0.338
REMARK  Name = 
REMARK  5 active torsions:
REMARK  status: ('A' for Active; 'I' for Inactive)
REMARK    1  A    between atoms: C_2  and  C_3
REMARK    2  A    between atoms: C_6  and  C_7
REMARK    3  A    between atoms: C_7  and  N_8
REMARK    4  A    between atoms: N_8  and  C_9
REMARK    5  A    between atoms: C_12  and  C_13
REMARK                            x       y       z     vdW  Elec       q    Type
REMARK                         _______ _______ _______ _____ _____    ______ ____
ROOT
ATOM      1  N   UNL     1      46.899   7.540  12.926  0.00  0.00    +0.000 N 
ATOM      2  H   UNL     1      46.280   8.313  13.147  0.00  0.00    +0.000 HD
ENDROOT
BRANCH   1   3
ATOM      3  C   UNL     1      46.263   6.433  12.353  0.00  0.00    +0.000 A 
ATOM      4  C   UNL     1      45.943   6.301  10.999  0.00  0.00    +0.000 A 
ATOM      5  C   UNL     1      45.249   5.165  10.538  0.00  0.00    +0.000 A 
ATOM      6  C   UNL     1      44.879   4.140  11.424  0.00  0.00    +0.000 A 
ATOM      7  C   UNL     1      45.211   4.257  12.770  0.00  0.00    +0.000 A 
ATOM      8  C   UNL     1      45.890   5.392  13.221  0.00  0.00    +0.000 A 
BRANCH   6   9
ATOM      9  C   UNL     1      44.086   2.991  10.916  0.00  0.00    +0.000 C 
ATOM     10  N   UNL     1      44.634   2.239   9.911  0.00  0.00    +0.000 N 
ATOM     11  O   UNL     1      42.983   2.722  11.372  0.00  0.00    +0.000 OA
ATOM     12  H   UNL     1      45.487   2.474   9.426  0.00  0.00    +0.000 HD
ATOM     13  H   UNL     1      44.077   1.473   9.555  0.00  0.00    +0.000 HD
ENDBRANCH   6   9
ENDBRANCH   1   3
BRANCH   1  14
ATOM     14  C   UNL     1      48.301   7.708  13.326  0.00  0.00    +0.000 C 
ATOM     15  C   UNL     1      49.481   7.259  12.483  0.00  0.00    +0.000 C 
ATOM     16  C   UNL     1      49.099   8.692  12.456  0.00  0.00    +0.000 C 
ATOM     17  F   UNL     1      48.492   9.167  11.305  0.00  0.00    +0.000 F 
BRANCH  14  21
ATOM     18  C   UNL     1      48.665   7.958  17.655  0.00  0.00    +0.000 A 
ATOM     19  C   UNL     1      48.291   9.084  16.922  0.00  0.00    +0.000 A 
ATOM     20  C   UNL     1      48.215   9.017  15.528  0.00  0.00    +0.000 A 
ATOM     21  C   UNL     1      48.504   7.828  14.834  0.00  0.00    +0.000 A 
ATOM     22  C   UNL     1      48.952   6.731  15.594  0.00  0.00    +0.000 A 
ATOM     23  C   UNL     1      49.011   6.782  16.989  0.00  0.00    +0.000 A 
BRANCH  18  25
ATOM     24  N   UNL     1      48.700   8.054  20.245  0.00  0.00    +0.000 NA
ATOM     25  C   UNL     1      48.675   8.002  19.084  0.00  0.00    +0.000 C 
ENDBRANCH  18  25
ENDBRANCH  14  21
ENDBRANCH   1  14
TORSDOF 5
ENDMDL
MODEL 8
REMARK VINA RESULT:    -5.758      4.179      6.163
REMARK INTER + INTRA:          -7.779
REMARK INTER:                  -7.082
REMARK INTRA:                  -0.697
REMARK UNBOUND:                -0.338
REMARK  Name = 
REMARK  5 active torsions:
REMARK  status: ('A' for Active; 'I' for Inactive)
REMARK    1  A    between atoms: C_2  and  C_3
REMARK    2  A    between atoms: C_6  and  C_7
REMARK    3  A    between atoms: C_7  and  N_8
REMARK    4  A    between atoms: N_8  and  C_9
REMARK    5  A    between atoms: C_12  and  C_13
REMARK                            x       y       z     vdW  Elec       q    Type
REMARK                         _______ _______ _______ _____ _____    ______ ____
ROOT
ATOM      1  N   UNL     1      47.923   4.444  15.154  0.00  0.00    +0.000 N 
ATOM      2  H   UNL     1      48.862   4.611  14.806  0.00  0.00    +0.000 HD
ENDROOT
BRANCH   1   3
ATOM      3  C   UNL     1      46.923   4.510  14.178  0.00  0.00    +0.000 A 
ATOM      4  C   UNL     1      46.189   5.654  13.855  0.00  0.00    +0.000 A 
ATOM      5  C   UNL     1      45.162   5.594  12.892  0.00  0.00    +0.000 A 
ATOM      6  C   UNL     1      44.867   4.390  12.230  0.00  0.00    +0.000 A 
ATOM      7  C   UNL     1      45.607   3.252  12.535  0.00  0.00    +0.000 A 
ATOM      8  C   UNL     1      46.615   3.318  13.499  0.00  0.00    +0.000 A 
BRANCH   6   9
ATOM      9  C   UNL     1      43.731   4.346  11.274  0.00  0.00    +0.000 C 
ATOM     10  N   UNL     1      43.501   5.462  10.513  0.00  0.00    +0.000 N 
ATOM     11  O   UNL     1      43.023   3.355  11.164  0.00  0.00    +0.000 OA
ATOM     12  H   UNL     1      43.982   6.341  10.634  0.00  0.00    +0.000 HD
ATOM     13  H   UNL     1      42.711   5.433   9.882  0.00  0.00    +0.000 HD
ENDBRANCH   6   9
ENDBRANCH   1   3
BRANCH   1  14
ATOM     14  C   UNL     1      47.803   4.257  16.605  0.00  0.00    +0.000 C 
ATOM     15  C   UNL     1      47.016   3.130  17.249  0.00  0.00    +0.000 C 
ATOM     16  C   UNL     1      48.489   2.991  17.142  0.00  0.00    +0.000 C 
ATOM     17  F   UNL     1      48.976   2.083  16.216  0.00  0.00    +0.000 F 
BRANCH  14  21
ATOM     18  C   UNL     1      48.217   7.976  18.824  0.00  0.00    +0.000 A 
ATOM     19  C   UNL     1      48.899   7.806  17.620  0.00  0.00    +0.000 A 
ATOM     20  C   UNL     1      48.801   6.595  16.927  0.00  0.00    +0.000 A 
ATOM     21  C   UNL     1      48.019   5.532  17.415  0.00  0.00    +0.000 A 
ATOM     22  C   UNL     1      47.405   5.707  18.668  0.00  0.00    +0.000 A 
ATOM     23  C   UNL     1      47.480   6.919  19.359  0.00  0.00    +0.000 A 
BRANCH  18  25
ATOM     24  N   UNL     1      48.271  10.255  20.058  0.00  0.00    +0.000 NA
ATOM     25  C   UNL     1      48.258   9.236  19.500  0.00  0.00    +0.000 C 
ENDBRANCH  18  25
ENDBRANCH  14  21
ENDBRANCH   1  14
TORSDOF 5
ENDMDL
