MODEL 1
REMARK VINA RESULT:    -6.732      0.000      0.000
REMARK INTER + INTRA:         -11.776
REMARK INTER:                 -10.078
REMARK INTRA:                  -1.698
REMARK UNBOUND:                -1.698
REMARK  Name = 
REMARK  9 active torsions:
REMARK  status: ('A' for Active; 'I' for Inactive)
REMARK    1  A    between atoms: N_1  and  C_2
REMARK    2  A    between atoms: C_2  and  C_3
REMARK    3  A    between atoms: C_3  and  N_4
REMARK    4  A    between atoms: N_4  and  C_5
REMARK    5  A    between atoms: C_5  and  C_6
REMARK    6  A    between atoms: C_9  and  C_10
REMARK    7  A    between atoms: C_11  and  C_12
REMARK    8  A    between atoms: C_12  and  C_13
REMARK    9  A    between atoms: C_20  and  C_22
REMARK                            x       y       z     vdW  Elec       q    Type
REMARK                         _______ _______ _______ _____ _____    ______ ____
ROOT
ATOM      1  N   UNL     1      48.744   9.002  14.032  0.00  0.00    +0.000 N 
ATOM      2  C   UNL     1      49.515   9.089  15.223  0.00  0.00    +0.000 C 
ATOM      3  O   UNL     1      50.723   9.298  15.113  0.00  0.00    +0.000 OA
ENDROOT
BRANCH   2   4
ATOM      4  C   UNL     1      48.943   8.883  16.591  0.00  0.00    +0.000 A 
ATOM      5  C   UNL     1      48.508   9.855  17.472  0.00  0.00    +0.000 A 
ATOM      6  S   UNL     1      47.784   9.298  18.905  0.00  0.00    +0.000 S 
ATOM      7  C   UNL     1      47.977   7.694  18.410  0.00  0.00    +0.000 A 
ATOM      8  N   UNL     1      47.478   6.697  19.185  0.00  0.00    +0.000 NA
ATOM      9  C   UNL     1      47.639   5.522  18.696  0.00  0.00    +0.000 A 
ATOM     10  N   UNL     1      48.286   5.250  17.519  0.00  0.00    +0.000 N 
ATOM     11  C   UNL     1      48.933   6.216  16.770  0.00  0.00    +0.000 A 
ATOM     12  O   UNL     1      49.717   5.879  15.890  0.00  0.00    +0.000 OA
ATOM     13  C   UNL     1      48.663   7.586  17.202  0.00  0.00    +0.000 A 
ATOM     14  H   UNL     1      48.458   4.297  17.241  0.00  0.00    +0.000 HD
ENDBRANCH   2   4
BRANCH   1  15
ATOM     15  C   UNL     1      49.475   9.325  12.779  0.00  0.00    +0.000 C 
BRANCH  15  16
ATOM     16  C   UNL     1      50.062   8.187  11.906  0.00  0.00    +0.000 C 
BRANCH  16  17
ATOM     17  N   UNL     1      51.437   7.781  12.219  0.00  0.00    +0.000 NA
ATOM     18  H   UNL     1      51.651   8.030  13.185  0.00  0.00    +0.000 HD
ATOM     19  H   UNL     1      52.097   8.282  11.628  0.00  0.00    +0.000 HD
ENDBRANCH  16  17
ENDBRANCH  15  16
ENDBRANCH   1  15
BRANCH   1  20
ATOM     20  C   UNL     1      47.285   8.985  13.974  0.00  0.00    +0.000 C 
BRANCH  20  21
ATOM     21  C   UNL     1      46.713   7.809  13.195  0.00  0.00    +0.000 A 
ATOM     22  C   UNL     1      47.060   6.469  13.433  0.00  0.00    +0.000 A 
ATOM     23  C   UNL     1      46.510   5.427  12.675  0.00  0.00    +0.000 A 
ATOM     24  C   UNL     1      45.643   5.698  11.614  0.00  0.00    +0.000 A 
ATOM     25  C   UNL     1      45.278   7.027  11.383  0.00  0.00    +0.000 A 
ATOM     26  C   UNL     1      45.779   8.061  12.183  0.00  0.00    +0.000 A 
BRANCH  24  27
ATOM     27  C   UNL     1      45.211   4.660  10.667  0.00  0.00    +0.000 C 
ATOM     28  C   UNL     1      45.280   4.763   9.330  0.00  0.00    +0.000 C 
BRANCH  28  29
ATOM     29  C   UNL     1      44.764   3.725   8.373  0.00  0.00    +0.000 C 
BRANCH  29  30
ATOM     30  C   UNL     1      45.841   2.943   7.692  0.00  0.00    +0.000 A 
ATOM     31  C   UNL     1      46.710   3.298   6.676  0.00  0.00    +0.000 A 
ATOM     32  C   UNL     1      47.539   2.182   6.410  0.00  0.00    +0.000 A 
ATOM     33  C   UNL     1      47.154   1.174   7.263  0.00  0.00    +0.000 A 
ATOM     34  N   UNL     1      46.122   1.641   8.034  0.00  0.00    +0.000 N 
ATOM     35  H   UNL     1      45.629   1.106   8.738  0.00  0.00    +0.000 HD
ENDBRANCH  29  30
ENDBRANCH  28  29
ENDBRANCH  24  27
ENDBRANCH  20  21
ENDBRANCH   1  20
TORSDOF 9
ENDMDL
MODEL 2
REMARK VINA RESULT:    -6.630      3.928      8.526
REMARK INTER + INTRA:         -11.623
REMARK INTER:                 -10.413
REMARK INTRA:                  -1.209
REMARK UNBOUND:                -1.698
REMARK  Name = 
REMARK  9 active torsions:
REMARK  status: ('A' for Active; 'I' for Inactive)
REMARK    1  A    between atoms: N_1  and  C_2
REMARK    2  A    between atoms: C_2  and  C_3
REMARK    3  A    between atoms: C_3  and  N_4
REMARK    4  A    between atoms: N_4  and  C_5
REMARK    5  A    between atoms: C_5  and  C_6
REMARK    6  A    between atoms: C_9  and  C_10
REMARK    7  A    between atoms: C_11  and  C_12
REMARK    8  A    between atoms: C_12  and  C_13
REMARK    9  A    between atoms: C_20  and  C_22
REMARK                            x       y       z     vdW  Elec       q    Type
REMARK                         _______ _______ _______ _____ _____    ______ ____
ROOT
ATOM      1  N   UNL     1      45.245   7.168  11.590  0.00  0.00    +0.000 N 
ATOM      2  C   UNL     1      44.077   6.422  11.274  0.00  0.00    +0.000 C 
ATOM      3  O   UNL     1      43.031   7.043  11.091  0.00  0.00    +0.000 OA
ENDROOT
BRANCH   2   4
ATOM      4  C   UNL     1      44.046   4.927  11.208  0.00  0.00    +0.000 A 
ATOM      5  C   UNL     1      43.430   4.062  12.092  0.00  0.00    +0.000 A 
ATOM      6  S   UNL     1      43.462   2.415  11.674  0.00  0.00    +0.000 S 
ATOM      7  C   UNL     1      44.284   2.767  10.241  0.00  0.00    +0.000 A 
ATOM      8  N   UNL     1      44.552   1.764   9.367  0.00  0.00    +0.000 NA
ATOM      9  C   UNL     1      45.138   2.146   8.292  0.00  0.00    +0.000 A 
ATOM     10  N   UNL     1      45.513   3.437   8.026  0.00  0.00    +0.000 N 
ATOM     11  C   UNL     1      45.391   4.465   8.944  0.00  0.00    +0.000 A 
ATOM     12  O   UNL     1      45.986   5.520   8.759  0.00  0.00    +0.000 OA
ATOM     13  C   UNL     1      44.603   4.119  10.126  0.00  0.00    +0.000 A 
ATOM     14  H   UNL     1      46.053   3.651   7.203  0.00  0.00    +0.000 HD
ENDBRANCH   2   4
BRANCH   1  15
ATOM     15  C   UNL     1      45.094   8.644  11.517  0.00  0.00    +0.000 C 
BRANCH  15  16
ATOM     16  C   UNL     1      45.412   9.520  12.756  0.00  0.00    +0.000 C 
BRANCH  16  17
ATOM     17  N   UNL     1      46.621  10.345  12.666  0.00  0.00    +0.000 NA
ATOM     18  H   UNL     1      46.473  11.219  13.171  0.00  0.00    +0.000 HD
ATOM     19  H   UNL     1      46.813  10.589  11.697  0.00  0.00    +0.000 HD
ENDBRANCH  16  17
ENDBRANCH  15  16
ENDBRANCH   1  15
BRANCH   1  20
ATOM     20  C   UNL     1      46.603   6.631  11.616  0.00  0.00    +0.000 C 
BRANCH  20  21
ATOM     21  C   UNL     1      47.082   6.236  13.006  0.00  0.00    +0.000 A 
ATOM     22  C   UNL     1      47.997   6.987  13.762  0.00  0.00    +0.000 A 
ATOM     23  C   UNL     1      48.411   6.567  15.034  0.00  0.00    +0.000 A 
ATOM     24  C   UNL     1      47.969   5.351  15.562  0.00  0.00    +0.000 A 
ATOM     25  C   UNL     1      47.044   4.608  14.824  0.00  0.00    +0.000 A 
ATOM     26  C   UNL     1      46.583   5.062  13.582  0.00  0.00    +0.000 A 
BRANCH  24  27
ATOM     27  C   UNL     1      48.537   4.776  16.790  0.00  0.00    +0.000 C 
ATOM     28  C   UNL     1      49.773   5.022  17.253  0.00  0.00    +0.000 C 
BRANCH  28  29
ATOM     29  C   UNL     1      50.367   4.367  18.469  0.00  0.00    +0.000 C 
BRANCH  29  30
ATOM     30  C   UNL     1      51.168   3.141  18.163  0.00  0.00    +0.000 A 
ATOM     31  C   UNL     1      50.864   2.034  17.392  0.00  0.00    +0.000 A 
ATOM     32  C   UNL     1      51.981   1.165  17.428  0.00  0.00    +0.000 A 
ATOM     33  C   UNL     1      52.935   1.758  18.221  0.00  0.00    +0.000 A 
ATOM     34  N   UNL     1      52.434   2.953  18.666  0.00  0.00    +0.000 N 
ATOM     35  H   UNL     1      52.914   3.595  19.284  0.00  0.00    +0.000 HD
ENDBRANCH  29  30
ENDBRANCH  28  29
ENDBRANCH  24  27
ENDBRANCH  20  21
ENDBRANCH   1  20
TORSDOF 9
ENDMDL
MODEL 3
REMARK VINA RESULT:    -6.607      3.666      9.112
REMARK INTER + INTRA:         -11.587
REMARK INTER:                  -9.934
REMARK INTRA:                  -1.653
REMARK UNBOUND:                -1.698
REMARK  Name = 
REMARK  9 active torsions:
REMARK  status: ('A' for Active; 'I' for Inactive)
REMARK    1  A    between atoms: N_1  and  C_2
REMARK    2  A    between atoms: C_2  and  C_3
REMARK    3  A    between atoms: C_3  and  N_4
REMARK    4  A    between atoms: N_4  and  C_5
REMARK    5  A    between atoms: C_5  and  C_6
REMARK    6  A    between atoms: C_9  and  C_10
REMARK    7  A    between atoms: C_11  and  C_12
REMARK    8  A    between atoms: C_12  and  C_13
REMARK    9  A    between atoms: C_20  and  C_22
REMARK                            x       y       z     vdW  Elec       q    Type
REMARK                         _______ _______ _______ _____ _____    ______ ____
ROOT
ATOM      1  N   UNL     1      46.008   7.183  11.880  0.00  0.00    +0.000 N 
ATOM      2  C   UNL     1      44.747   6.669  11.473  0.00  0.00    +0.000 C 
ATOM      3  O   UNL     1      43.860   7.475  11.194  0.00  0.00    +0.000 OA
ENDROOT
BRANCH   2   4
ATOM      4  C   UNL     1      44.431   5.206  11.422  0.00  0.00    +0.000 A 
ATOM      5  C   UNL     1      43.768   4.458  12.377  0.00  0.00    +0.000 A 
ATOM      6  S   UNL     1      43.445   2.840  11.970  0.00  0.00    +0.000 S 
ATOM      7  C   UNL     1      44.151   3.054  10.449  0.00  0.00    +0.000 A 
ATOM      8  N   UNL     1      44.127   2.030   9.558  0.00  0.00    +0.000 NA
ATOM      9  C   UNL     1      44.648   2.312   8.421  0.00  0.00    +0.000 A 
ATOM     10  N   UNL     1      45.225   3.515   8.105  0.00  0.00    +0.000 N 
ATOM     11  C   UNL     1      45.401   4.534   9.023  0.00  0.00    +0.000 A 
ATOM     12  O   UNL     1      46.158   5.463   8.764  0.00  0.00    +0.000 OA
ATOM     13  C   UNL     1      44.701   4.324  10.289  0.00  0.00    +0.000 A 
ATOM     14  H   UNL     1      45.700   3.636   7.224  0.00  0.00    +0.000 HD
ENDBRANCH   2   4
BRANCH   1  15
ATOM     15  C   UNL     1      46.154   8.658  11.778  0.00  0.00    +0.000 C 
BRANCH  15  16
ATOM     16  C   UNL     1      45.522   9.577  12.854  0.00  0.00    +0.000 C 
BRANCH  16  17
ATOM     17  N   UNL     1      44.229  10.178  12.507  0.00  0.00    +0.000 NA
ATOM     18  H   UNL     1      43.480   9.531  12.751  0.00  0.00    +0.000 HD
ATOM     19  H   UNL     1      44.170  10.338  11.503  0.00  0.00    +0.000 HD
ENDBRANCH  16  17
ENDBRANCH  15  16
ENDBRANCH   1  15
BRANCH   1  20
ATOM     20  C   UNL     1      47.229   6.395  12.028  0.00  0.00    +0.000 C 
BRANCH  20  21
ATOM     21  C   UNL     1      47.522   5.979  13.463  0.00  0.00    +0.000 A 
ATOM     22  C   UNL     1      46.952   4.855  14.084  0.00  0.00    +0.000 A 
ATOM     23  C   UNL     1      47.249   4.527  15.414  0.00  0.00    +0.000 A 
ATOM     24  C   UNL     1      48.079   5.348  16.182  0.00  0.00    +0.000 A 
ATOM     25  C   UNL     1      48.664   6.457  15.566  0.00  0.00    +0.000 A 
ATOM     26  C   UNL     1      48.416   6.746  14.219  0.00  0.00    +0.000 A 
BRANCH  24  27
ATOM     27  C   UNL     1      48.248   5.158  17.630  0.00  0.00    +0.000 C 
ATOM     28  C   UNL     1      47.576   5.833  18.577  0.00  0.00    +0.000 C 
BRANCH  28  29
ATOM     29  C   UNL     1      47.816   5.684  20.053  0.00  0.00    +0.000 C 
BRANCH  29  30
ATOM     30  C   UNL     1      49.260   5.742  20.440  0.00  0.00    +0.000 A 
ATOM     31  C   UNL     1      50.139   6.808  20.489  0.00  0.00    +0.000 A 
ATOM     32  C   UNL     1      51.389   6.315  20.932  0.00  0.00    +0.000 A 
ATOM     33  C   UNL     1      51.245   4.962  21.138  0.00  0.00    +0.000 A 
ATOM     34  N   UNL     1      49.953   4.621  20.834  0.00  0.00    +0.000 N 
ATOM     35  H   UNL     1      49.570   3.686  20.876  0.00  0.00    +0.000 HD
ENDBRANCH  29  30
ENDBRANCH  28  29
ENDBRANCH  24  27
ENDBRANCH  20  21
ENDBRANCH   1  20
TORSDOF 9
ENDMDL
MODEL 4
REMARK VINA RESULT:    -6.347      1.361      2.003
REMARK INTER + INTRA:         -11.198
REMARK INTER:                  -9.537
REMARK INTRA:                  -1.661
REMARK UNBOUND:                -1.698
REMARK  Name = 
REMARK  9 active torsions:
REMARK  status: ('A' for Active; 'I' for Inactive)
REMARK    1  A    between atoms: N_1  and  C_2
REMARK    2  A    between atoms: C_2  and  C_3
REMARK    3  A    between atoms: C_3  and  N_4
REMARK    4  A    between atoms: N_4  and  C_5
REMARK    5  A    between atoms: C_5  and  C_6
REMARK    6  A    between atoms: C_9  and  C_10
REMARK    7  A    between atoms: C_11  and  C_12
REMARK    8  A    between atoms: C_12  and  C_13
REMARK    9  A    between atoms: C_20  and  C_22
REMARK                            x       y       z     vdW  Elec       q    Type
REMARK                         _______ _______ _______ _____ _____    ______ ____
ROOT
ATOM      1  N   UNL     1      48.715   8.906  14.157  0.00  0.00    +0.000 N 
ATOM      2  C   UNL     1      49.533   8.449  15.225  0.00  0.00    +0.000 C 
ATOM      3  O   UNL     1      50.728   8.737  15.198  0.00  0.00    +0.000 OA
ENDROOT
BRANCH   2   4
ATOM      4  C   UNL     1      49.024   7.593  16.343  0.00  0.00    +0.000 A 
ATOM      5  C   UNL     1      49.108   6.218  16.451  0.00  0.00    +0.000 A 
ATOM      6  S   UNL     1      48.552   5.545  17.909  0.00  0.00    +0.000 S 
ATOM      7  C   UNL     1      48.192   7.082  18.512  0.00  0.00    +0.000 A 
ATOM      8  N   UNL     1      47.739   7.204  19.786  0.00  0.00    +0.000 NA
ATOM      9  C   UNL     1      47.540   8.415  20.158  0.00  0.00    +0.000 A 
ATOM     10  N   UNL     1      47.720   9.515  19.360  0.00  0.00    +0.000 N 
ATOM     11  C   UNL     1      48.041   9.431  18.017  0.00  0.00    +0.000 A 
ATOM     12  O   UNL     1      47.918  10.417  17.299  0.00  0.00    +0.000 OA
ATOM     13  C   UNL     1      48.418   8.089  17.576  0.00  0.00    +0.000 A 
ATOM     14  H   UNL     1      47.455  10.430  19.687  0.00  0.00    +0.000 HD
ENDBRANCH   2   4
BRANCH   1  15
ATOM     15  C   UNL     1      49.384   9.818  13.192  0.00  0.00    +0.000 C 
BRANCH  15  16
ATOM     16  C   UNL     1      49.759   9.311  11.777  0.00  0.00    +0.000 C 
BRANCH  16  17
ATOM     17  N   UNL     1      49.908   7.858  11.633  0.00  0.00    +0.000 NA
ATOM     18  H   UNL     1      49.839   7.607  10.647  0.00  0.00    +0.000 HD
ATOM     19  H   UNL     1      49.154   7.375  12.117  0.00  0.00    +0.000 HD
ENDBRANCH  16  17
ENDBRANCH  15  16
ENDBRANCH   1  15
BRANCH   1  20
ATOM     20  C   UNL     1      47.255   8.857  14.134  0.00  0.00    +0.000 C 
BRANCH  20  21
ATOM     21  C   UNL     1      46.691   7.751  13.254  0.00  0.00    +0.000 A 
ATOM     22  C   UNL     1      47.041   6.396  13.377  0.00  0.00    +0.000 A 
ATOM     23  C   UNL     1      46.497   5.421  12.530  0.00  0.00    +0.000 A 
ATOM     24  C   UNL     1      45.634   5.781  11.492  0.00  0.00    +0.000 A 
ATOM     25  C   UNL     1      45.266   7.124  11.374  0.00  0.00    +0.000 A 
ATOM     26  C   UNL     1      45.760   8.086  12.263  0.00  0.00    +0.000 A 
BRANCH  24  27
ATOM     27  C   UNL     1      45.209   4.827  10.457  0.00  0.00    +0.000 C 
ATOM     28  C   UNL     1      45.574   4.883   9.165  0.00  0.00    +0.000 C 
BRANCH  28  29
ATOM     29  C   UNL     1      45.070   3.946   8.103  0.00  0.00    +0.000 C 
BRANCH  29  30
ATOM     30  C   UNL     1      46.107   2.994   7.597  0.00  0.00    +0.000 A 
ATOM     31  C   UNL     1      46.368   1.679   7.936  0.00  0.00    +0.000 A 
ATOM     32  C   UNL     1      47.457   1.239   7.147  0.00  0.00    +0.000 A 
ATOM     33  C   UNL     1      47.838   2.294   6.351  0.00  0.00    +0.000 A 
ATOM     34  N   UNL     1      47.018   3.355   6.632  0.00  0.00    +0.000 N 
ATOM     35  H   UNL     1      47.081   4.272   6.207  0.00  0.00    +0.000 HD
ENDBRANCH  29  30
ENDBRANCH  28  29
ENDBRANCH  24  27
ENDBRANCH  20  21
ENDBRANCH   1  20
TORSDOF 9
ENDMDL
MODEL 5
REMARK VINA RESULT:    -6.291      3.131      4.455
REMARK INTER + INTRA:         -11.115
REMARK INTER:                  -9.797
REMARK INTRA:                  -1.318
REMARK UNBOUND:                -1.698
REMARK  Name = 
REMARK  9 active torsions:
REMARK  status: ('A' for Active; 'I' for Inactive)
REMARK    1  A    between atoms: N_1  and  C_2
REMARK    2  A    between atoms: C_2  and  C_3
REMARK    3  A    between atoms: C_3  and  N_4
REMARK    4  A    between atoms: N_4  and  C_5
REMARK    5  A    between atoms: C_5  and  C_6
REMARK    6  A    between atoms: C_9  and  C_10
REMARK    7  A    between atoms: C_11  and  C_12
REMARK    8  A    between atoms: C_12  and  C_13
REMARK    9  A    between atoms: C_20  and  C_22
REMARK                            x       y       z     vdW  Elec       q    Type
REMARK                         _______ _______ _______ _____ _____    ______ ____
ROOT
ATOM      1  N   UNL     1      49.418   6.675  17.436  0.00  0.00    +0.000 N 
ATOM      2  C   UNL     1      49.968   5.815  18.426  0.00  0.00    +0.000 C 
ATOM      3  O   UNL     1      49.393   5.747  19.512  0.00  0.00    +0.000 OA
ENDROOT
BRANCH   2   4
ATOM      4  C   UNL     1      51.232   5.038  18.232  0.00  0.00    +0.000 A 
ATOM      5  C   UNL     1      52.527   5.480  18.429  0.00  0.00    +0.000 A 
ATOM      6  S   UNL     1      53.752   4.316  18.251  0.00  0.00    +0.000 S 
ATOM      7  C   UNL     1      52.604   3.118  17.930  0.00  0.00    +0.000 A 
ATOM      8  N   UNL     1      53.015   1.836  17.758  0.00  0.00    +0.000 NA
ATOM      9  C   UNL     1      52.062   1.001  17.565  0.00  0.00    +0.000 A 
ATOM     10  N   UNL     1      50.735   1.336  17.492  0.00  0.00    +0.000 N 
ATOM     11  C   UNL     1      50.282   2.643  17.518  0.00  0.00    +0.000 A 
ATOM     12  O   UNL     1      49.132   2.896  17.176  0.00  0.00    +0.000 OA
ATOM     13  C   UNL     1      51.306   3.622  17.878  0.00  0.00    +0.000 A 
ATOM     14  H   UNL     1      50.047   0.643  17.245  0.00  0.00    +0.000 HD
ENDBRANCH   2   4
BRANCH   1  15
ATOM     15  C   UNL     1      48.111   7.289  17.785  0.00  0.00    +0.000 C 
BRANCH  15  16
ATOM     16  C   UNL     1      47.998   8.823  17.969  0.00  0.00    +0.000 C 
BRANCH  16  17
ATOM     17  N   UNL     1      47.573   9.582  16.787  0.00  0.00    +0.000 NA
ATOM     18  H   UNL     1      46.628   9.300  16.526  0.00  0.00    +0.000 HD
ATOM     19  H   UNL     1      48.177   9.373  15.995  0.00  0.00    +0.000 HD
ENDBRANCH  16  17
ENDBRANCH  15  16
ENDBRANCH   1  15
BRANCH   1  20
ATOM     20  C   UNL     1      49.826   6.711  16.034  0.00  0.00    +0.000 C 
BRANCH  20  21
ATOM     21  C   UNL     1      48.686   6.467  15.056  0.00  0.00    +0.000 A 
ATOM     22  C   UNL     1      47.880   5.316  15.063  0.00  0.00    +0.000 A 
ATOM     23  C   UNL     1      46.851   5.141  14.128  0.00  0.00    +0.000 A 
ATOM     24  C   UNL     1      46.636   6.083  13.120  0.00  0.00    +0.000 A 
ATOM     25  C   UNL     1      47.421   7.239  13.117  0.00  0.00    +0.000 A 
ATOM     26  C   UNL     1      48.406   7.442  14.091  0.00  0.00    +0.000 A 
BRANCH  24  27
ATOM     27  C   UNL     1      45.713   5.839  12.001  0.00  0.00    +0.000 C 
ATOM     28  C   UNL     1      44.843   4.818  11.932  0.00  0.00    +0.000 C 
BRANCH  28  29
ATOM     29  C   UNL     1      43.960   4.538  10.748  0.00  0.00    +0.000 C 
BRANCH  29  30
ATOM     30  C   UNL     1      44.618   3.716   9.685  0.00  0.00    +0.000 A 
ATOM     31  C   UNL     1      45.119   4.074   8.447  0.00  0.00    +0.000 A 
ATOM     32  C   UNL     1      45.646   2.908   7.842  0.00  0.00    +0.000 A 
ATOM     33  C   UNL     1      45.451   1.868   8.720  0.00  0.00    +0.000 A 
ATOM     34  N   UNL     1      44.823   2.364   9.833  0.00  0.00    +0.000 N 
ATOM     35  H   UNL     1      44.539   1.818  10.637  0.00  0.00    +0.000 HD
ENDBRANCH  29  30
ENDBRANCH  28  29
ENDBRANCH  24  27
ENDBRANCH  20  21
ENDBRANCH   1  20
TORSDOF 9
ENDMDL
MODEL 6
REMARK VINA RESULT:    -6.249      2.457      3.878
REMARK INTER + INTRA:         -11.053
REMARK INTER:                  -9.301
REMARK INTRA:                  -1.751
REMARK UNBOUND:                -1.698
REMARK  Name = 
REMARK  9 active torsions:
REMARK  status: ('A' for Active; 'I' for Inactive)
REMARK    1  A    between atoms: N_1  and  C_2
REMARK    2  A    between atoms: C_2  and  C_3
REMARK    3  A    between atoms: C_3  and  N_4
REMARK    4  A    between atoms: N_4  and  C_5
REMARK    5  A    between atoms: C_5  and  C_6
REMARK    6  A    between atoms: C_9  and  C_10
REMARK    7  A    between atoms: C_11  and  C_12
REMARK    8  A    between atoms: C_12  and  C_13
REMARK    9  A    between atoms: C_20  and  C_22
REMARK                            x       y       z     vdW  Elec       q    Type
REMARK                         _______ _______ _______ _____ _____    ______ ____
ROOT
ATOM      1  N   UNL     1      48.876   8.487  16.945  0.00  0.00    +0.000 N 
ATOM      2  C   UNL     1      49.088   7.417  17.856  0.00  0.00    +0.000 C 
ATOM      3  O   UNL     1      48.447   7.419  18.905  0.00  0.00    +0.000 OA
ENDROOT
BRANCH   2   4
ATOM      4  C   UNL     1      50.088   6.327  17.626  0.00  0.00    +0.000 A 
ATOM      5  C   UNL     1      51.465   6.424  17.693  0.00  0.00    +0.000 A 
ATOM      6  S   UNL     1      52.329   4.973  17.511  0.00  0.00    +0.000 S 
ATOM      7  C   UNL     1      50.888   4.102  17.366  0.00  0.00    +0.000 A 
ATOM      8  N   UNL     1      50.939   2.749  17.261  0.00  0.00    +0.000 NA
ATOM      9  C   UNL     1      49.790   2.184  17.203  0.00  0.00    +0.000 A 
ATOM     10  N   UNL     1      48.593   2.851  17.204  0.00  0.00    +0.000 N 
ATOM     11  C   UNL     1      48.494   4.230  17.165  0.00  0.00    +0.000 A 
ATOM     12  O   UNL     1      47.422   4.757  16.892  0.00  0.00    +0.000 OA
ATOM     13  C   UNL     1      49.763   4.925  17.374  0.00  0.00    +0.000 A 
ATOM     14  H   UNL     1      47.730   2.350  17.061  0.00  0.00    +0.000 HD
ENDBRANCH   2   4
BRANCH   1  15
ATOM     15  C   UNL     1      47.778   9.420  17.308  0.00  0.00    +0.000 C 
BRANCH  15  16
ATOM     16  C   UNL     1      48.090  10.716  18.099  0.00  0.00    +0.000 C 
BRANCH  16  17
ATOM     17  N   UNL     1      48.328  10.549  19.537  0.00  0.00    +0.000 NA
ATOM     18  H   UNL     1      47.600  11.036  20.060  0.00  0.00    +0.000 HD
ATOM     19  H   UNL     1      49.217  10.969  19.801  0.00  0.00    +0.000 HD
ENDBRANCH  16  17
ENDBRANCH  15  16
ENDBRANCH   1  15
BRANCH   1  20
ATOM     20  C   UNL     1      49.370   8.533  15.571  0.00  0.00    +0.000 C 
BRANCH  20  21
ATOM     21  C   UNL     1      48.384   7.994  14.544  0.00  0.00    +0.000 A 
ATOM     22  C   UNL     1      47.465   8.794  13.845  0.00  0.00    +0.000 A 
ATOM     23  C   UNL     1      46.572   8.240  12.919  0.00  0.00    +0.000 A 
ATOM     24  C   UNL     1      46.529   6.860  12.708  0.00  0.00    +0.000 A 
ATOM     25  C   UNL     1      47.452   6.059  13.385  0.00  0.00    +0.000 A 
ATOM     26  C   UNL     1      48.387   6.623  14.262  0.00  0.00    +0.000 A 
BRANCH  24  27
ATOM     27  C   UNL     1      45.473   6.220  11.909  0.00  0.00    +0.000 C 
ATOM     28  C   UNL     1      44.925   5.024  12.177  0.00  0.00    +0.000 C 
BRANCH  28  29
ATOM     29  C   UNL     1      43.902   4.348  11.307  0.00  0.00    +0.000 C 
BRANCH  29  30
ATOM     30  C   UNL     1      44.478   3.709  10.083  0.00  0.00    +0.000 A 
ATOM     31  C   UNL     1      44.717   4.225   8.823  0.00  0.00    +0.000 A 
ATOM     32  C   UNL     1      45.284   3.195   8.036  0.00  0.00    +0.000 A 
ATOM     33  C   UNL     1      45.373   2.076   8.831  0.00  0.00    +0.000 A 
ATOM     34  N   UNL     1      44.879   2.393  10.069  0.00  0.00    +0.000 N 
ATOM     35  H   UNL     1      44.804   1.755  10.850  0.00  0.00    +0.000 HD
ENDBRANCH  29  30
ENDBRANCH  28  29
ENDBRANCH  24  27
ENDBRANCH  20  21
ENDBRANCH   1  20
TORSDOF 9
ENDMDL
MODEL 7
REMARK VINA RESULT:    -6.241      2.685      4.081
REMARK INTER + INTRA:         -11.041
REMARK INTER:                  -9.427
REMARK INTRA:                  -1.614
REMARK UNBOUND:                -1.698
REMARK  Name = 
REMARK  9 active torsions:
REMARK  status: ('A' for Active; 'I' for Inactive)
REMARK    1  A    between atoms: N_1  and  C_2
REMARK    2  A    between atoms: C_2  and  C_3
REMARK    3  A    between atoms: C_3  and  N_4
REMARK    4  A    between atoms: N_4  and  C_5
REMARK    5  A    between atoms: C_5  and  C_6
REMARK    6  A    between atoms: C_9  and  C_10
REMARK    7  A    between atoms: C_11  and  C_12
REMARK    8  A    between atoms: C_12  and  C_13
REMARK    9  A    between atoms: C_20  and  C_22
REMARK                            x       y       z     vdW  Elec       q    Type
REMARK                         _______ _______ _______ _____ _____    ______ ____
ROOT
ATOM      1  N   UNL     1      48.666   7.872  17.299  0.00  0.00    +0.000 N 
ATOM      2  C   UNL     1      48.051   6.828  18.041  0.00  0.00    +0.000 C 
ATOM      3  O   UNL     1      47.345   7.142  18.998  0.00  0.00    +0.000 OA
ENDROOT
BRANCH   2   4
ATOM      4  C   UNL     1      48.263   5.375  17.750  0.00  0.00    +0.000 A 
ATOM      5  C   UNL     1      47.331   4.470  17.278  0.00  0.00    +0.000 A 
ATOM      6  S   UNL     1      47.912   2.913  16.920  0.00  0.00    +0.000 S 
ATOM      7  C   UNL     1      49.482   3.373  17.346  0.00  0.00    +0.000 A 
ATOM      8  N   UNL     1      50.498   2.487  17.186  0.00  0.00    +0.000 NA
ATOM      9  C   UNL     1      51.652   2.950  17.495  0.00  0.00    +0.000 A 
ATOM     10  N   UNL     1      51.880   4.210  17.985  0.00  0.00    +0.000 N 
ATOM     11  C   UNL     1      50.865   5.095  18.298  0.00  0.00    +0.000 A 
ATOM     12  O   UNL     1      51.108   6.084  18.980  0.00  0.00    +0.000 OA
ATOM     13  C   UNL     1      49.543   4.676  17.834  0.00  0.00    +0.000 A 
ATOM     14  H   UNL     1      52.801   4.477  18.296  0.00  0.00    +0.000 HD
ENDBRANCH   2   4
BRANCH   1  15
ATOM     15  C   UNL     1      48.261   9.249  17.685  0.00  0.00    +0.000 C 
BRANCH  15  16
ATOM     16  C   UNL     1      49.087  10.467  17.201  0.00  0.00    +0.000 C 
BRANCH  16  17
ATOM     17  N   UNL     1      48.386  11.411  16.323  0.00  0.00    +0.000 NA
ATOM     18  H   UNL     1      48.813  11.393  15.397  0.00  0.00    +0.000 HD
ATOM     19  H   UNL     1      48.480  12.361  16.677  0.00  0.00    +0.000 HD
ENDBRANCH  16  17
ENDBRANCH  15  16
ENDBRANCH   1  15
BRANCH   1  20
ATOM     20  C   UNL     1      49.343   7.706  16.015  0.00  0.00    +0.000 C 
BRANCH  20  21
ATOM     21  C   UNL     1      48.396   7.472  14.847  0.00  0.00    +0.000 A 
ATOM     22  C   UNL     1      47.576   8.468  14.291  0.00  0.00    +0.000 A 
ATOM     23  C   UNL     1      46.714   8.191  13.222  0.00  0.00    +0.000 A 
ATOM     24  C   UNL     1      46.600   6.894  12.716  0.00  0.00    +0.000 A 
ATOM     25  C   UNL     1      47.425   5.901  13.251  0.00  0.00    +0.000 A 
ATOM     26  C   UNL     1      48.333   6.195  14.275  0.00  0.00    +0.000 A 
BRANCH  24  27
ATOM     27  C   UNL     1      45.563   6.519  11.744  0.00  0.00    +0.000 C 
ATOM     28  C   UNL     1      44.497   5.747  12.016  0.00  0.00    +0.000 C 
BRANCH  28  29
ATOM     29  C   UNL     1      43.487   5.308  10.994  0.00  0.00    +0.000 C 
BRANCH  29  30
ATOM     30  C   UNL     1      43.979   4.229  10.083  0.00  0.00    +0.000 A 
ATOM     31  C   UNL     1      44.309   2.912  10.340  0.00  0.00    +0.000 A 
ATOM     32  C   UNL     1      44.712   2.322   9.118  0.00  0.00    +0.000 A 
ATOM     33  C   UNL     1      44.622   3.292   8.147  0.00  0.00    +0.000 A 
ATOM     34  N   UNL     1      44.182   4.447   8.740  0.00  0.00    +0.000 N 
ATOM     35  H   UNL     1      44.041   5.331   8.267  0.00  0.00    +0.000 HD
ENDBRANCH  29  30
ENDBRANCH  28  29
ENDBRANCH  24  27
ENDBRANCH  20  21
ENDBRANCH   1  20
TORSDOF 9
ENDMDL
MODEL 8
REMARK VINA RESULT:    -5.998      2.442      3.872
REMARK INTER + INTRA:         -10.676
REMARK INTER:                  -9.759
REMARK INTRA:                  -0.918
REMARK UNBOUND:                -1.698
REMARK  Name = 
REMARK  9 active torsions:
REMARK  status: ('A' for Active; 'I' for Inactive)
REMARK    1  A    between atoms: N_1  and  C_2
REMARK    2  A    between atoms: C_2  and  C_3
REMARK    3  A    between atoms: C_3  and  N_4
REMARK    4  A    between atoms: N_4  and  C_5
REMARK    5  A    between atoms: C_5  and  C_6
REMARK    6  A    between atoms: C_9  and  C_10
REMARK    7  A    between atoms: C_11  and  C_12
REMARK    8  A    between atoms: C_12  and  C_13
REMARK    9  A    between atoms: C_20  and  C_22
REMARK                            x       y       z     vdW  Elec       q    Type
REMARK                         _______ _______ _______ _____ _____    ______ ____
ROOT
ATOM      1  N   UNL     1      48.194   5.216  17.494  0.00  0.00    +0.000 N 
ATOM      2  C   UNL     1      48.083   5.913  18.728  0.00  0.00    +0.000 C 
ATOM      3  O   UNL     1      47.763   5.268  19.726  0.00  0.00    +0.000 OA
ENDROOT
BRANCH   2   4
ATOM      4  C   UNL     1      48.280   7.391  18.861  0.00  0.00    +0.000 A 
ATOM      5  C   UNL     1      47.302   8.367  18.893  0.00  0.00    +0.000 A 
ATOM      6  S   UNL     1      47.836   9.954  19.186  0.00  0.00    +0.000 S 
ATOM      7  C   UNL     1      49.433   9.418  19.326  0.00  0.00    +0.000 A 
ATOM      8  N   UNL     1      50.404  10.307  19.658  0.00  0.00    +0.000 NA
ATOM      9  C   UNL     1      51.570   9.790  19.782  0.00  0.00    +0.000 A 
ATOM     10  N   UNL     1      51.862   8.468  19.569  0.00  0.00    +0.000 N 
ATOM     11  C   UNL     1      50.938   7.556  19.092  0.00  0.00    +0.000 A 
ATOM     12  O   UNL     1      51.318   6.472  18.664  0.00  0.00    +0.000 OA
ATOM     13  C   UNL     1      49.564   8.055  19.069  0.00  0.00    +0.000 A 
ATOM     14  H   UNL     1      52.817   8.147  19.593  0.00  0.00    +0.000 HD
ENDBRANCH   2   4
BRANCH   1  15
ATOM     15  C   UNL     1      48.051   3.740  17.584  0.00  0.00    +0.000 C 
BRANCH  15  16
ATOM     16  C   UNL     1      49.298   2.829  17.457  0.00  0.00    +0.000 C 
BRANCH  16  17
ATOM     17  N   UNL     1      49.400   2.050  16.218  0.00  0.00    +0.000 NA
ATOM     18  H   UNL     1      48.475   1.956  15.800  0.00  0.00    +0.000 HD
ATOM     19  H   UNL     1      49.734   1.109  16.419  0.00  0.00    +0.000 HD
ENDBRANCH  16  17
ENDBRANCH  15  16
ENDBRANCH   1  15
BRANCH   1  20
ATOM     20  C   UNL     1      48.774   5.762  16.270  0.00  0.00    +0.000 C 
BRANCH  20  21
ATOM     21  C   UNL     1      47.887   5.599  15.043  0.00  0.00    +0.000 A 
ATOM     22  C   UNL     1      46.972   4.547  14.873  0.00  0.00    +0.000 A 
ATOM     23  C   UNL     1      46.189   4.442  13.715  0.00  0.00    +0.000 A 
ATOM     24  C   UNL     1      46.343   5.351  12.666  0.00  0.00    +0.000 A 
ATOM     25  C   UNL     1      47.238   6.411  12.835  0.00  0.00    +0.000 A 
ATOM     26  C   UNL     1      47.971   6.551  14.020  0.00  0.00    +0.000 A 
BRANCH  24  27
ATOM     27  C   UNL     1      45.699   5.157  11.358  0.00  0.00    +0.000 C 
ATOM     28  C   UNL     1      44.850   4.160  11.060  0.00  0.00    +0.000 C 
BRANCH  28  29
ATOM     29  C   UNL     1      44.261   3.930   9.697  0.00  0.00    +0.000 C 
BRANCH  29  30
ATOM     30  C   UNL     1      45.189   3.245   8.745  0.00  0.00    +0.000 A 
ATOM     31  C   UNL     1      45.871   3.728   7.644  0.00  0.00    +0.000 A 
ATOM     32  C   UNL     1      46.623   2.660   7.100  0.00  0.00    +0.000 A 
ATOM     33  C   UNL     1      46.380   1.551   7.877  0.00  0.00    +0.000 A 
ATOM     34  N   UNL     1      45.507   1.912   8.870  0.00  0.00    +0.000 N 
ATOM     35  H   UNL     1      45.137   1.291   9.578  0.00  0.00    +0.000 HD
ENDBRANCH  29  30
ENDBRANCH  28  29
ENDBRANCH  24  27
ENDBRANCH  20  21
ENDBRANCH   1  20
TORSDOF 9
ENDMDL
MODEL 9
REMARK VINA RESULT:    -5.902      2.582      4.046
REMARK INTER + INTRA:         -10.533
REMARK INTER:                  -9.335
REMARK INTRA:                  -1.198
REMARK UNBOUND:                -1.698
REMARK  Name = 
REMARK  9 active torsions:
REMARK  status: ('A' for Active; 'I' for Inactive)
REMARK    1  A    between atoms: N_1  and  C_2
REMARK    2  A    between atoms: C_2  and  C_3
REMARK    3  A    between atoms: C_3  and  N_4
REMARK    4  A    between atoms: N_4  and  C_5
REMARK    5  A    between atoms: C_5  and  C_6
REMARK    6  A    between atoms: C_9  and  C_10
REMARK    7  A    between atoms: C_11  and  C_12
REMARK    8  A    between atoms: C_12  and  C_13
REMARK    9  A    between atoms: C_20  and  C_22
REMARK                            x       y       z     vdW  Elec       q    Type
REMARK                         _______ _______ _______ _____ _____    ______ ____
ROOT
ATOM      1  N   UNL     1      49.926   4.959  17.755  0.00  0.00    +0.000 N 
ATOM      2  C   UNL     1      50.683   6.160  17.825  0.00  0.00    +0.000 C 
ATOM      3  O   UNL     1      51.908   6.074  17.742  0.00  0.00    +0.000 OA
ENDROOT
BRANCH   2   4
ATOM      4  C   UNL     1      50.071   7.507  18.049  0.00  0.00    +0.000 A 
ATOM      5  C   UNL     1      50.107   8.597  17.199  0.00  0.00    +0.000 A 
ATOM      6  S   UNL     1      49.202   9.952  17.677  0.00  0.00    +0.000 S 
ATOM      7  C   UNL     1      48.665   9.139  19.058  0.00  0.00    +0.000 A 
ATOM      8  N   UNL     1      47.770   9.746  19.879  0.00  0.00    +0.000 NA
ATOM      9  C   UNL     1      47.395   9.026  20.871  0.00  0.00    +0.000 A 
ATOM     10  N   UNL     1      47.861   7.765  21.138  0.00  0.00    +0.000 N 
ATOM     11  C   UNL     1      48.875   7.164  20.415  0.00  0.00    +0.000 A 
ATOM     12  O   UNL     1      49.434   6.168  20.862  0.00  0.00    +0.000 OA
ATOM     13  C   UNL     1      49.239   7.876  19.192  0.00  0.00    +0.000 A 
ATOM     14  H   UNL     1      47.594   7.292  21.987  0.00  0.00    +0.000 HD
ENDBRANCH   2   4
BRANCH   1  15
ATOM     15  C   UNL     1      50.707   3.735  17.438  0.00  0.00    +0.000 C 
BRANCH  15  16
ATOM     16  C   UNL     1      50.013   2.350  17.435  0.00  0.00    +0.000 C 
BRANCH  16  17
ATOM     17  N   UNL     1      49.692   1.795  16.115  0.00  0.00    +0.000 NA
ATOM     18  H   UNL     1      50.506   1.877  15.506  0.00  0.00    +0.000 HD
ATOM     19  H   UNL     1      48.939   2.325  15.681  0.00  0.00    +0.000 HD
ENDBRANCH  16  17
ENDBRANCH  15  16
ENDBRANCH   1  15
BRANCH   1  20
ATOM     20  C   UNL     1      48.475   4.887  17.608  0.00  0.00    +0.000 C 
BRANCH  20  21
ATOM     21  C   UNL     1      47.994   5.023  16.171  0.00  0.00    +0.000 A 
ATOM     22  C   UNL     1      48.297   6.118  15.344  0.00  0.00    +0.000 A 
ATOM     23  C   UNL     1      47.816   6.194  14.030  0.00  0.00    +0.000 A 
ATOM     24  C   UNL     1      46.966   5.208  13.523  0.00  0.00    +0.000 A 
ATOM     25  C   UNL     1      46.676   4.106  14.333  0.00  0.00    +0.000 A 
ATOM     26  C   UNL     1      47.210   4.001  15.622  0.00  0.00    +0.000 A 
BRANCH  24  27
ATOM     27  C   UNL     1      46.275   5.353  12.234  0.00  0.00    +0.000 C 
ATOM     28  C   UNL     1      45.043   4.888  11.965  0.00  0.00    +0.000 C 
BRANCH  28  29
ATOM     29  C   UNL     1      44.380   4.976  10.619  0.00  0.00    +0.000 C 
BRANCH  29  30
ATOM     30  C   UNL     1      44.889   3.977   9.629  0.00  0.00    +0.000 A 
ATOM     31  C   UNL     1      45.491   4.153   8.397  0.00  0.00    +0.000 A 
ATOM     32  C   UNL     1      45.786   2.871   7.875  0.00  0.00    +0.000 A 
ATOM     33  C   UNL     1      45.354   1.946   8.796  0.00  0.00    +0.000 A 
ATOM     34  N   UNL     1      44.807   2.623   9.855  0.00  0.00    +0.000 N 
ATOM     35  H   UNL     1      44.392   2.194  10.672  0.00  0.00    +0.000 HD
ENDBRANCH  29  30
ENDBRANCH  28  29
ENDBRANCH  24  27
ENDBRANCH  20  21
ENDBRANCH   1  20
TORSDOF 9
ENDMDL
