MODEL 1
REMARK VINA RESULT:    -6.713      0.000      0.000
REMARK INTER + INTRA:          -7.931
REMARK INTER:                  -7.498
REMARK INTRA:                  -0.433
REMARK UNBOUND:                -0.433
REMARK  Name = 
REMARK  2 active torsions:
REMARK  status: ('A' for Active; 'I' for Inactive)
REMARK    1  A    between atoms: C_7  and  C_8
REMARK    2  A    between atoms: C_8  and  N_9
REMARK                            x       y       z     vdW  Elec       q    Type
REMARK                         _______ _______ _______ _____ _____    ______ ____
ROOT
ATOM      1  N   UNL     1      50.148   7.157  12.557  0.00  0.00    +0.000 NA
ATOM      2  C   UNL     1      49.144   7.949  12.703  0.00  0.00    +0.000 C 
ATOM      3  N   UNL     1      49.326   9.235  13.074  0.00  0.00    +0.000 N 
ATOM      4  N   UNL     1      47.839   7.567  12.562  0.00  0.00    +0.000 N 
ATOM      5  C   UNL     1      46.788   8.480  12.103  0.00  0.00    +0.000 C 
ATOM      6  C   UNL     1      45.535   8.217  12.931  0.00  0.00    +0.000 C 
ATOM      7  C   UNL     1      45.049   6.765  12.772  0.00  0.00    +0.000 C 
ATOM      8  C   UNL     1      46.212   5.805  13.091  0.00  0.00    +0.000 C 
ATOM      9  C   UNL     1      47.513   6.151  12.355  0.00  0.00    +0.000 C 
ATOM     10  H   UNL     1      51.013   7.675  12.709  0.00  0.00    +0.000 HD
ATOM     11  H   UNL     1      50.242   9.446  13.447  0.00  0.00    +0.000 HD
ATOM     12  H   UNL     1      48.603   9.557  13.705  0.00  0.00    +0.000 HD
ENDROOT
BRANCH   7  13
ATOM     13  C   UNL     1      44.442   6.473  11.380  0.00  0.00    +0.000 C 
BRANCH  13  14
ATOM     14  N   UNL     1      44.315   5.051  11.078  0.00  0.00    +0.000 N 
ATOM     15  C   UNL     1      43.603   4.169  11.853  0.00  0.00    +0.000 A 
ATOM     16  C   UNL     1      43.610   2.947  11.224  0.00  0.00    +0.000 A 
ATOM     17  C   UNL     1      44.391   3.072  10.046  0.00  0.00    +0.000 A 
ATOM     18  C   UNL     1      44.747   2.171   9.023  0.00  0.00    +0.000 A 
ATOM     19  C   UNL     1      45.579   2.600   7.985  0.00  0.00    +0.000 A 
ATOM     20  C   UNL     1      46.063   3.903   7.964  0.00  0.00    +0.000 A 
ATOM     21  C   UNL     1      45.715   4.821   8.962  0.00  0.00    +0.000 A 
ATOM     22  C   UNL     1      44.858   4.390   9.992  0.00  0.00    +0.000 A 
ENDBRANCH  13  14
ENDBRANCH   7  13
TORSDOF 2
ENDMDL
MODEL 2
REMARK VINA RESULT:    -6.277      2.685      6.091
REMARK INTER + INTRA:          -7.444
REMARK INTER:                  -6.884
REMARK INTRA:                  -0.560
REMARK UNBOUND:                -0.433
REMARK  Name = 
REMARK  2 active torsions:
REMARK  status: ('A' for Active; 'I' for Inactive)
REMARK    1  A    between atoms: C_7  and  C_8
REMARK    2  A    between atoms: C_8  and  N_9
REMARK                            x       y       z     vdW  Elec       q    Type
REMARK                         _______ _______ _______ _____ _____    ______ ____
ROOT
ATOM      1  N   UNL     1      48.190   2.724   6.062  0.00  0.00    +0.000 NA
ATOM      2  C   UNL     1      47.346   1.996   6.706  0.00  0.00    +0.000 C 
ATOM      3  N   UNL     1      47.208   0.682   6.422  0.00  0.00    +0.000 N 
ATOM      4  N   UNL     1      46.493   2.473   7.662  0.00  0.00    +0.000 N 
ATOM      5  C   UNL     1      46.027   1.659   8.789  0.00  0.00    +0.000 C 
ATOM      6  C   UNL     1      44.550   1.963   9.014  0.00  0.00    +0.000 C 
ATOM      7  C   UNL     1      44.324   3.451   9.336  0.00  0.00    +0.000 C 
ATOM      8  C   UNL     1      44.968   4.311   8.231  0.00  0.00    +0.000 C 
ATOM      9  C   UNL     1      46.416   3.917   7.913  0.00  0.00    +0.000 C 
ATOM     10  H   UNL     1      48.711   2.141   5.408  0.00  0.00    +0.000 HD
ATOM     11  H   UNL     1      47.620   0.390   5.546  0.00  0.00    +0.000 HD
ATOM     12  H   UNL     1      46.245   0.377   6.480  0.00  0.00    +0.000 HD
ENDROOT
BRANCH   7  13
ATOM     13  C   UNL     1      44.834   3.858  10.737  0.00  0.00    +0.000 C 
BRANCH  13  14
ATOM     14  N   UNL     1      44.524   5.236  11.102  0.00  0.00    +0.000 N 
ATOM     15  C   UNL     1      43.247   5.742  11.151  0.00  0.00    +0.000 A 
ATOM     16  C   UNL     1      43.317   7.030  11.626  0.00  0.00    +0.000 A 
ATOM     17  C   UNL     1      44.686   7.341  11.832  0.00  0.00    +0.000 A 
ATOM     18  C   UNL     1      45.357   8.490  12.298  0.00  0.00    +0.000 A 
ATOM     19  C   UNL     1      46.753   8.496  12.359  0.00  0.00    +0.000 A 
ATOM     20  C   UNL     1      47.481   7.383  11.952  0.00  0.00    +0.000 A 
ATOM     21  C   UNL     1      46.838   6.225  11.497  0.00  0.00    +0.000 A 
ATOM     22  C   UNL     1      45.431   6.215  11.460  0.00  0.00    +0.000 A 
ENDBRANCH  13  14
ENDBRANCH   7  13
TORSDOF 2
ENDMDL
MODEL 3
REMARK VINA RESULT:    -6.118      1.467      2.097
REMARK INTER + INTRA:          -7.267
REMARK INTER:                  -6.840
REMARK INTRA:                  -0.427
REMARK UNBOUND:                -0.433
REMARK  Name = 
REMARK  2 active torsions:
REMARK  status: ('A' for Active; 'I' for Inactive)
REMARK    1  A    between atoms: C_7  and  C_8
REMARK    2  A    between atoms: C_8  and  N_9
REMARK                            x       y       z     vdW  Elec       q    Type
REMARK                         _______ _______ _______ _____ _____    ______ ____
ROOT
ATOM      1  N   UNL     1      48.838   9.387  15.780  0.00  0.00    +0.000 NA
ATOM      2  C   UNL     1      48.884   8.210  15.262  0.00  0.00    +0.000 C 
ATOM      3  N   UNL     1      49.824   7.320  15.648  0.00  0.00    +0.000 N 
ATOM      4  N   UNL     1      48.057   7.778  14.261  0.00  0.00    +0.000 N 
ATOM      5  C   UNL     1      47.658   6.377  14.109  0.00  0.00    +0.000 C 
ATOM      6  C   UNL     1      47.674   6.038  12.622  0.00  0.00    +0.000 C 
ATOM      7  C   UNL     1      46.702   6.930  11.831  0.00  0.00    +0.000 C 
ATOM      8  C   UNL     1      47.016   8.410  12.129  0.00  0.00    +0.000 C 
ATOM      9  C   UNL     1      47.129   8.723  13.627  0.00  0.00    +0.000 C 
ATOM     10  H   UNL     1      49.548   9.466  16.506  0.00  0.00    +0.000 HD
ATOM     11  H   UNL     1      50.596   7.715  16.169  0.00  0.00    +0.000 HD
ATOM     12  H   UNL     1      50.165   6.763  14.876  0.00  0.00    +0.000 HD
ENDROOT
BRANCH   7  13
ATOM     13  C   UNL     1      45.215   6.604  12.100  0.00  0.00    +0.000 C 
BRANCH  13  14
ATOM     14  N   UNL     1      44.851   5.221  11.808  0.00  0.00    +0.000 N 
ATOM     15  C   UNL     1      44.307   4.365  12.735  0.00  0.00    +0.000 A 
ATOM     16  C   UNL     1      43.996   3.189  12.097  0.00  0.00    +0.000 A 
ATOM     17  C   UNL     1      44.406   3.309  10.743  0.00  0.00    +0.000 A 
ATOM     18  C   UNL     1      44.345   2.441   9.634  0.00  0.00    +0.000 A 
ATOM     19  C   UNL     1      44.877   2.852   8.409  0.00  0.00    +0.000 A 
ATOM     20  C   UNL     1      45.472   4.102   8.282  0.00  0.00    +0.000 A 
ATOM     21  C   UNL     1      45.534   4.987   9.365  0.00  0.00    +0.000 A 
ATOM     22  C   UNL     1      44.977   4.578  10.591  0.00  0.00    +0.000 A 
ENDBRANCH  13  14
ENDBRANCH   7  13
TORSDOF 2
ENDMDL
MODEL 4
REMARK VINA RESULT:    -5.997      1.678      6.077
REMARK INTER + INTRA:          -7.132
REMARK INTER:                  -6.836
REMARK INTRA:                  -0.296
REMARK UNBOUND:                -0.433
REMARK  Name = 
REMARK  2 active torsions:
REMARK  status: ('A' for Active; 'I' for Inactive)
REMARK    1  A    between atoms: C_7  and  C_8
REMARK    2  A    between atoms: C_8  and  N_9
REMARK                            x       y       z     vdW  Elec       q    Type
REMARK                         _______ _______ _______ _____ _____    ______ ____
ROOT
ATOM      1  N   UNL     1      45.052   3.245   8.309  0.00  0.00    +0.000 NA
ATOM      2  C   UNL     1      44.769   2.986   9.538  0.00  0.00    +0.000 C 
ATOM      3  N   UNL     1      44.266   1.784   9.893  0.00  0.00    +0.000 N 
ATOM      4  N   UNL     1      44.886   3.888  10.558  0.00  0.00    +0.000 N 
ATOM      5  C   UNL     1      45.187   3.494  11.937  0.00  0.00    +0.000 C 
ATOM      6  C   UNL     1      44.332   4.344  12.871  0.00  0.00    +0.000 C 
ATOM      7  C   UNL     1      44.628   5.844  12.697  0.00  0.00    +0.000 C 
ATOM      8  C   UNL     1      44.476   6.220  11.210  0.00  0.00    +0.000 C 
ATOM      9  C   UNL     1      45.233   5.283  10.260  0.00  0.00    +0.000 C 
ATOM     10  H   UNL     1      44.887   2.415   7.741  0.00  0.00    +0.000 HD
ATOM     11  H   UNL     1      43.918   1.223   9.127  0.00  0.00    +0.000 HD
ATOM     12  H   UNL     1      43.568   1.861  10.621  0.00  0.00    +0.000 HD
ENDROOT
BRANCH   7  13
ATOM     13  C   UNL     1      46.011   6.262  13.247  0.00  0.00    +0.000 C 
BRANCH  13  14
ATOM     14  N   UNL     1      46.439   7.590  12.821  0.00  0.00    +0.000 N 
ATOM     15  C   UNL     1      45.637   8.704  12.881  0.00  0.00    +0.000 A 
ATOM     16  C   UNL     1      46.387   9.791  12.501  0.00  0.00    +0.000 A 
ATOM     17  C   UNL     1      47.681   9.322  12.152  0.00  0.00    +0.000 A 
ATOM     18  C   UNL     1      48.851   9.963  11.698  0.00  0.00    +0.000 A 
ATOM     19  C   UNL     1      49.984   9.200  11.402  0.00  0.00    +0.000 A 
ATOM     20  C   UNL     1      49.958   7.817  11.542  0.00  0.00    +0.000 A 
ATOM     21  C   UNL     1      48.812   7.158  12.002  0.00  0.00    +0.000 A 
ATOM     22  C   UNL     1      47.681   7.932  12.321  0.00  0.00    +0.000 A 
ENDBRANCH  13  14
ENDBRANCH   7  13
TORSDOF 2
ENDMDL
MODEL 5
REMARK VINA RESULT:    -5.880      2.157      6.371
REMARK INTER + INTRA:          -7.001
REMARK INTER:                  -6.894
REMARK INTRA:                  -0.107
REMARK UNBOUND:                -0.433
REMARK  Name = 
REMARK  2 active torsions:
REMARK  status: ('A' for Active; 'I' for Inactive)
REMARK    1  A    between atoms: C_7  and  C_8
REMARK    2  A    between atoms: C_8  and  N_9
REMARK                            x       y       z     vdW  Elec       q    Type
REMARK                         _______ _______ _______ _____ _____    ______ ____
ROOT
ATOM      1  N   UNL     1      43.148   2.170  11.708  0.00  0.00    +0.000 NA
ATOM      2  C   UNL     1      43.835   2.989  10.992  0.00  0.00    +0.000 C 
ATOM      3  N   UNL     1      44.084   2.730   9.690  0.00  0.00    +0.000 N 
ATOM      4  N   UNL     1      44.413   4.131  11.474  0.00  0.00    +0.000 N 
ATOM      5  C   UNL     1      44.621   5.326  10.651  0.00  0.00    +0.000 C 
ATOM      6  C   UNL     1      45.987   5.907  10.995  0.00  0.00    +0.000 C 
ATOM      7  C   UNL     1      46.077   6.294  12.482  0.00  0.00    +0.000 C 
ATOM      8  C   UNL     1      45.690   5.078  13.345  0.00  0.00    +0.000 C 
ATOM      9  C   UNL     1      44.377   4.412  12.915  0.00  0.00    +0.000 C 
ATOM     10  H   UNL     1      42.821   1.401  11.124  0.00  0.00    +0.000 HD
ATOM     11  H   UNL     1      43.907   1.776   9.403  0.00  0.00    +0.000 HD
ATOM     12  H   UNL     1      45.013   3.016   9.413  0.00  0.00    +0.000 HD
ENDROOT
BRANCH   7  13
ATOM     13  C   UNL     1      45.229   7.535  12.843  0.00  0.00    +0.000 C 
BRANCH  13  14
ATOM     14  N   UNL     1      45.723   8.778  12.260  0.00  0.00    +0.000 N 
ATOM     15  C   UNL     1      44.904   9.773  11.782  0.00  0.00    +0.000 A 
ATOM     16  C   UNL     1      45.695  10.831  11.405  0.00  0.00    +0.000 A 
ATOM     17  C   UNL     1      47.047  10.457  11.615  0.00  0.00    +0.000 A 
ATOM     18  C   UNL     1      48.276  11.118  11.414  0.00  0.00    +0.000 A 
ATOM     19  C   UNL     1      49.471  10.452  11.695  0.00  0.00    +0.000 A 
ATOM     20  C   UNL     1      49.455   9.141  12.159  0.00  0.00    +0.000 A 
ATOM     21  C   UNL     1      48.248   8.466  12.378  0.00  0.00    +0.000 A 
ATOM     22  C   UNL     1      47.046   9.149  12.115  0.00  0.00    +0.000 A 
ENDBRANCH  13  14
ENDBRANCH   7  13
TORSDOF 2
ENDMDL
MODEL 6
REMARK VINA RESULT:    -5.736      3.433      7.011
REMARK INTER + INTRA:          -6.840
REMARK INTER:                  -6.517
REMARK INTRA:                  -0.322
REMARK UNBOUND:                -0.433
REMARK  Name = 
REMARK  2 active torsions:
REMARK  status: ('A' for Active; 'I' for Inactive)
REMARK    1  A    between atoms: C_7  and  C_8
REMARK    2  A    between atoms: C_8  and  N_9
REMARK                            x       y       z     vdW  Elec       q    Type
REMARK                         _______ _______ _______ _____ _____    ______ ____
ROOT
ATOM      1  N   UNL     1      42.912   3.983  11.885  0.00  0.00    +0.000 NA
ATOM      2  C   UNL     1      43.721   4.884  11.450  0.00  0.00    +0.000 C 
ATOM      3  N   UNL     1      43.506   5.490  10.261  0.00  0.00    +0.000 N 
ATOM      4  N   UNL     1      44.868   5.261  12.091  0.00  0.00    +0.000 N 
ATOM      5  C   UNL     1      45.425   6.613  11.996  0.00  0.00    +0.000 C 
ATOM      6  C   UNL     1      46.940   6.495  11.880  0.00  0.00    +0.000 C 
ATOM      7  C   UNL     1      47.545   5.784  13.103  0.00  0.00    +0.000 C 
ATOM      8  C   UNL     1      46.835   4.430  13.303  0.00  0.00    +0.000 C 
ATOM      9  C   UNL     1      45.305   4.532  13.289  0.00  0.00    +0.000 C 
ATOM     10  H   UNL     1      42.133   3.884  11.236  0.00  0.00    +0.000 HD
ATOM     11  H   UNL     1      42.834   5.029   9.663  0.00  0.00    +0.000 HD
ATOM     12  H   UNL     1      44.367   5.665   9.760  0.00  0.00    +0.000 HD
ENDROOT
BRANCH   7  13
ATOM     13  C   UNL     1      47.503   6.638  14.390  0.00  0.00    +0.000 C 
BRANCH  13  14
ATOM     14  N   UNL     1      48.513   6.270  15.377  0.00  0.00    +0.000 N 
ATOM     15  C   UNL     1      49.736   6.887  15.481  0.00  0.00    +0.000 A 
ATOM     16  C   UNL     1      50.386   6.364  16.573  0.00  0.00    +0.000 A 
ATOM     17  C   UNL     1      49.553   5.359  17.131  0.00  0.00    +0.000 A 
ATOM     18  C   UNL     1      49.688   4.498  18.239  0.00  0.00    +0.000 A 
ATOM     19  C   UNL     1      48.679   3.573  18.518  0.00  0.00    +0.000 A 
ATOM     20  C   UNL     1      47.554   3.490  17.706  0.00  0.00    +0.000 A 
ATOM     21  C   UNL     1      47.391   4.342  16.607  0.00  0.00    +0.000 A 
ATOM     22  C   UNL     1      48.399   5.288  16.343  0.00  0.00    +0.000 A 
ENDBRANCH  13  14
ENDBRANCH   7  13
TORSDOF 2
ENDMDL
MODEL 7
REMARK VINA RESULT:    -5.604      1.862      6.754
REMARK INTER + INTRA:          -6.693
REMARK INTER:                  -6.222
REMARK INTRA:                  -0.471
REMARK UNBOUND:                -0.433
REMARK  Name = 
REMARK  2 active torsions:
REMARK  status: ('A' for Active; 'I' for Inactive)
REMARK    1  A    between atoms: C_7  and  C_8
REMARK    2  A    between atoms: C_8  and  N_9
REMARK                            x       y       z     vdW  Elec       q    Type
REMARK                         _______ _______ _______ _____ _____    ______ ____
ROOT
ATOM      1  N   UNL     1      43.863   3.505   9.446  0.00  0.00    +0.000 NA
ATOM      2  C   UNL     1      44.096   3.394  10.707  0.00  0.00    +0.000 C 
ATOM      3  N   UNL     1      43.444   2.476  11.453  0.00  0.00    +0.000 N 
ATOM      4  N   UNL     1      44.948   4.205  11.404  0.00  0.00    +0.000 N 
ATOM      5  C   UNL     1      45.689   3.752  12.584  0.00  0.00    +0.000 C 
ATOM      6  C   UNL     1      45.678   4.878  13.613  0.00  0.00    +0.000 C 
ATOM      7  C   UNL     1      46.338   6.153  13.060  0.00  0.00    +0.000 C 
ATOM      8  C   UNL     1      45.666   6.531  11.724  0.00  0.00    +0.000 C 
ATOM      9  C   UNL     1      45.560   5.362  10.738  0.00  0.00    +0.000 C 
ATOM     10  H   UNL     1      43.199   2.787   9.160  0.00  0.00    +0.000 HD
ATOM     11  H   UNL     1      42.626   2.073  11.014  0.00  0.00    +0.000 HD
ATOM     12  H   UNL     1      43.217   2.823  12.375  0.00  0.00    +0.000 HD
ENDROOT
BRANCH   7  13
ATOM     13  C   UNL     1      47.871   6.031  12.905  0.00  0.00    +0.000 C 
BRANCH  13  14
ATOM     14  N   UNL     1      48.615   7.130  13.512  0.00  0.00    +0.000 N 
ATOM     15  C   UNL     1      49.110   7.098  14.793  0.00  0.00    +0.000 A 
ATOM     16  C   UNL     1      49.839   8.245  14.997  0.00  0.00    +0.000 A 
ATOM     17  C   UNL     1      49.750   9.029  13.817  0.00  0.00    +0.000 A 
ATOM     18  C   UNL     1      50.282  10.280  13.446  0.00  0.00    +0.000 A 
ATOM     19  C   UNL     1      49.979  10.813  12.190  0.00  0.00    +0.000 A 
ATOM     20  C   UNL     1      49.149  10.122  11.313  0.00  0.00    +0.000 A 
ATOM     21  C   UNL     1      48.618   8.872  11.653  0.00  0.00    +0.000 A 
ATOM     22  C   UNL     1      48.945   8.329  12.910  0.00  0.00    +0.000 A 
ENDBRANCH  13  14
ENDBRANCH   7  13
TORSDOF 2
ENDMDL
MODEL 8
REMARK VINA RESULT:    -5.539      1.482      2.253
REMARK INTER + INTRA:          -6.620
REMARK INTER:                  -6.168
REMARK INTRA:                  -0.451
REMARK UNBOUND:                -0.433
REMARK  Name = 
REMARK  2 active torsions:
REMARK  status: ('A' for Active; 'I' for Inactive)
REMARK    1  A    between atoms: C_7  and  C_8
REMARK    2  A    between atoms: C_8  and  N_9
REMARK                            x       y       z     vdW  Elec       q    Type
REMARK                         _______ _______ _______ _____ _____    ______ ____
ROOT
ATOM      1  N   UNL     1      49.646  11.062  13.803  0.00  0.00    +0.000 NA
ATOM      2  C   UNL     1      49.488   9.885  14.298  0.00  0.00    +0.000 C 
ATOM      3  N   UNL     1      50.103   9.530  15.447  0.00  0.00    +0.000 N 
ATOM      4  N   UNL     1      48.759   8.894  13.702  0.00  0.00    +0.000 N 
ATOM      5  C   UNL     1      48.059   7.855  14.463  0.00  0.00    +0.000 C 
ATOM      6  C   UNL     1      48.238   6.529  13.731  0.00  0.00    +0.000 C 
ATOM      7  C   UNL     1      47.660   6.589  12.307  0.00  0.00    +0.000 C 
ATOM      8  C   UNL     1      48.273   7.792  11.562  0.00  0.00    +0.000 C 
ATOM      9  C   UNL     1      48.210   9.103  12.357  0.00  0.00    +0.000 C 
ATOM     10  H   UNL     1      50.224  11.620  14.431  0.00  0.00    +0.000 HD
ATOM     11  H   UNL     1      50.851  10.145  15.738  0.00  0.00    +0.000 HD
ATOM     12  H   UNL     1      50.420   8.569  15.430  0.00  0.00    +0.000 HD
ENDROOT
BRANCH   7  13
ATOM     13  C   UNL     1      46.115   6.635  12.275  0.00  0.00    +0.000 C 
BRANCH  13  14
ATOM     14  N   UNL     1      45.491   5.342  12.015  0.00  0.00    +0.000 N 
ATOM     15  C   UNL     1      44.947   4.548  12.996  0.00  0.00    +0.000 A 
ATOM     16  C   UNL     1      44.360   3.464  12.389  0.00  0.00    +0.000 A 
ATOM     17  C   UNL     1      44.591   3.572  10.993  0.00  0.00    +0.000 A 
ATOM     18  C   UNL     1      44.234   2.771   9.890  0.00  0.00    +0.000 A 
ATOM     19  C   UNL     1      44.649   3.139   8.608  0.00  0.00    +0.000 A 
ATOM     20  C   UNL     1      45.419   4.282   8.417  0.00  0.00    +0.000 A 
ATOM     21  C   UNL     1      45.776   5.100   9.495  0.00  0.00    +0.000 A 
ATOM     22  C   UNL     1      45.337   4.738  10.782  0.00  0.00    +0.000 A 
ENDBRANCH  13  14
ENDBRANCH   7  13
TORSDOF 2
ENDMDL
MODEL 9
REMARK VINA RESULT:    -5.454      2.169      6.902
REMARK INTER + INTRA:          -6.525
REMARK INTER:                  -5.997
REMARK INTRA:                  -0.528
REMARK UNBOUND:                -0.433
REMARK  Name = 
REMARK  2 active torsions:
REMARK  status: ('A' for Active; 'I' for Inactive)
REMARK    1  A    between atoms: C_7  and  C_8
REMARK    2  A    between atoms: C_8  and  N_9
REMARK                            x       y       z     vdW  Elec       q    Type
REMARK                         _______ _______ _______ _____ _____    ______ ____
ROOT
ATOM      1  N   UNL     1      44.022   2.390  10.220  0.00  0.00    +0.000 NA
ATOM      2  C   UNL     1      44.207   2.911  11.382  0.00  0.00    +0.000 C 
ATOM      3  N   UNL     1      43.702   2.325  12.491  0.00  0.00    +0.000 N 
ATOM      4  N   UNL     1      44.854   4.096  11.599  0.00  0.00    +0.000 N 
ATOM      5  C   UNL     1      45.606   4.379  12.824  0.00  0.00    +0.000 C 
ATOM      6  C   UNL     1      45.330   5.823  13.227  0.00  0.00    +0.000 C 
ATOM      7  C   UNL     1      45.764   6.808  12.128  0.00  0.00    +0.000 C 
ATOM      8  C   UNL     1      45.102   6.403  10.796  0.00  0.00    +0.000 C 
ATOM      9  C   UNL     1      45.270   4.917  10.455  0.00  0.00    +0.000 C 
ATOM     10  H   UNL     1      43.521   1.508  10.319  0.00  0.00    +0.000 HD
ATOM     11  H   UNL     1      42.999   1.619  12.318  0.00  0.00    +0.000 HD
ATOM     12  H   UNL     1      43.367   3.003  13.162  0.00  0.00    +0.000 HD
ENDROOT
BRANCH   7  13
ATOM     13  C   UNL     1      47.298   6.925  11.983  0.00  0.00    +0.000 C 
BRANCH  13  14
ATOM     14  N   UNL     1      47.894   7.961  12.821  0.00  0.00    +0.000 N 
ATOM     15  C   UNL     1      48.038   9.269  12.426  0.00  0.00    +0.000 A 
ATOM     16  C   UNL     1      48.536   9.982  13.490  0.00  0.00    +0.000 A 
ATOM     17  C   UNL     1      48.747   9.073  14.559  0.00  0.00    +0.000 A 
ATOM     18  C   UNL     1      49.232   9.224  15.874  0.00  0.00    +0.000 A 
ATOM     19  C   UNL     1      49.355   8.100  16.696  0.00  0.00    +0.000 A 
ATOM     20  C   UNL     1      49.013   6.839  16.221  0.00  0.00    +0.000 A 
ATOM     21  C   UNL     1      48.519   6.664  14.923  0.00  0.00    +0.000 A 
ATOM     22  C   UNL     1      48.375   7.802  14.107  0.00  0.00    +0.000 A 
ENDBRANCH  13  14
ENDBRANCH   7  13
TORSDOF 2
ENDMDL
