MODEL 1
REMARK VINA RESULT:    -8.309      0.000      0.000
REMARK INTER + INTRA:         -11.230
REMARK INTER:                 -11.466
REMARK INTRA:                   0.236
REMARK UNBOUND:                 0.236
REMARK  Name = 
REMARK  7 active torsions:
REMARK  status: ('A' for Active; 'I' for Inactive)
REMARK    1  A    between atoms: N_1  and  C_2
REMARK    2  A    between atoms: C_2  and  C_3
REMARK    3  A    between atoms: C_2  and  C_19
REMARK    4  A    between atoms: C_3  and  N_4
REMARK    5  A    between atoms: N_7  and  C_8
REMARK    6  A    between atoms: C_8  and  C_9
REMARK    7  A    between atoms: C_10  and  C_11
REMARK                            x       y       z     vdW  Elec       q    Type
REMARK                         _______ _______ _______ _____ _____    ______ ____
ROOT
ATOM      1  C   UNL     1      45.750   4.715  14.369  0.00  0.00    +0.000 C 
ENDROOT
BRANCH   1   2
ATOM      2  N   UNL     1      44.975   3.860  13.425  0.00  0.00    +0.000 NA
ATOM      3  C   UNL     1      45.717   3.746  12.139  0.00  0.00    +0.000 C 
ATOM      4  C   UNL     1      45.714   5.039  11.276  0.00  0.00    +0.000 C 
ATOM      5  N   UNL     1      44.383   5.649  11.037  0.00  0.00    +0.000 NA
ATOM      6  C   UNL     1      43.652   5.722  12.320  0.00  0.00    +0.000 C 
ATOM      7  C   UNL     1      43.636   4.380  13.089  0.00  0.00    +0.000 C 
BRANCH   5   8
ATOM      8  C   UNL     1      43.563   4.918  10.065  0.00  0.00    +0.000 C 
BRANCH   8   9
ATOM      9  C   UNL     1      44.324   3.847   9.364  0.00  0.00    +0.000 C 
ATOM     10  C   UNL     1      45.229   4.123   8.414  0.00  0.00    +0.000 C 
BRANCH  10  11
ATOM     11  C   UNL     1      45.966   3.101   7.672  0.00  0.00    +0.000 A 
ATOM     12  C   UNL     1      46.534   3.356   6.422  0.00  0.00    +0.000 A 
ATOM     13  C   UNL     1      47.222   2.331   5.790  0.00  0.00    +0.000 A 
ATOM     14  N   UNL     1      47.392   1.106   6.321  0.00  0.00    +0.000 NA
ATOM     15  C   UNL     1      46.856   0.892   7.541  0.00  0.00    +0.000 A 
ATOM     16  C   UNL     1      46.151   1.848   8.251  0.00  0.00    +0.000 A 
ENDBRANCH  10  11
ENDBRANCH   8   9
ENDBRANCH   5   8
ENDBRANCH   1   2
BRANCH   1  17
ATOM     17  C   UNL     1      47.289   4.475  14.519  0.00  0.00    +0.000 C 
BRANCH  17  18
ATOM     18  C   UNL     1      47.930   5.365  15.566  0.00  0.00    +0.000 A 
ATOM     19  C   UNL     1      48.645   6.506  15.242  0.00  0.00    +0.000 A 
ATOM     20  S   UNL     1      49.433   7.212  16.581  0.00  0.00    +0.000 S 
ATOM     21  C   UNL     1      48.837   6.018  17.640  0.00  0.00    +0.000 A 
ATOM     22  N   UNL     1      49.207   5.989  18.949  0.00  0.00    +0.000 NA
ATOM     23  C   UNL     1      48.695   5.015  19.623  0.00  0.00    +0.000 A 
ATOM     24  N   UNL     1      47.822   4.085  19.120  0.00  0.00    +0.000 N 
ATOM     25  C   UNL     1      47.395   4.090  17.811  0.00  0.00    +0.000 A 
ATOM     26  O   UNL     1      46.564   3.279  17.416  0.00  0.00    +0.000 OA
ATOM     27  C   UNL     1      47.995   5.132  16.995  0.00  0.00    +0.000 A 
ATOM     28  H   UNL     1      47.430   3.367  19.712  0.00  0.00    +0.000 HD
ENDBRANCH  17  18
BRANCH  17  29
ATOM     29  N   UNL     1      47.735   3.125  14.872  0.00  0.00    +0.000 NA
ATOM     30  H   UNL     1      46.965   2.619  15.297  0.00  0.00    +0.000 HD
ATOM     31  H   UNL     1      48.479   3.205  15.566  0.00  0.00    +0.000 HD
ENDBRANCH  17  29
ENDBRANCH   1  17
TORSDOF 7
ENDMDL
MODEL 2
REMARK VINA RESULT:    -8.221      1.690      2.377
REMARK INTER + INTRA:         -11.108
REMARK INTER:                 -10.751
REMARK INTRA:                  -0.357
REMARK UNBOUND:                 0.236
REMARK  Name = 
REMARK  7 active torsions:
REMARK  status: ('A' for Active; 'I' for Inactive)
REMARK    1  A    between atoms: N_1  and  C_2
REMARK    2  A    between atoms: C_2  and  C_3
REMARK    3  A    between atoms: C_2  and  C_19
REMARK    4  A    between atoms: C_3  and  N_4
REMARK    5  A    between atoms: N_7  and  C_8
REMARK    6  A    between atoms: C_8  and  C_9
REMARK    7  A    between atoms: C_10  and  C_11
REMARK                            x       y       z     vdW  Elec       q    Type
REMARK                         _______ _______ _______ _____ _____    ______ ____
ROOT
ATOM      1  C   UNL     1      46.218   5.022  14.465  0.00  0.00    +0.000 C 
ENDROOT
BRANCH   1   2
ATOM      2  N   UNL     1      46.126   5.386  13.023  0.00  0.00    +0.000 NA
ATOM      3  C   UNL     1      44.809   6.031  12.758  0.00  0.00    +0.000 C 
ATOM      4  C   UNL     1      43.597   5.059  12.790  0.00  0.00    +0.000 C 
ATOM      5  N   UNL     1      43.733   3.835  11.963  0.00  0.00    +0.000 NA
ATOM      6  C   UNL     1      45.059   3.230  12.216  0.00  0.00    +0.000 C 
ATOM      7  C   UNL     1      46.223   4.242  12.097  0.00  0.00    +0.000 C 
BRANCH   5   8
ATOM      8  C   UNL     1      43.589   4.075  10.522  0.00  0.00    +0.000 C 
BRANCH   8   9
ATOM      9  C   UNL     1      44.537   3.264   9.709  0.00  0.00    +0.000 C 
ATOM     10  C   UNL     1      45.061   3.719   8.562  0.00  0.00    +0.000 C 
BRANCH  10  11
ATOM     11  C   UNL     1      45.960   2.939   7.714  0.00  0.00    +0.000 A 
ATOM     12  C   UNL     1      46.548   3.474   6.566  0.00  0.00    +0.000 A 
ATOM     13  C   UNL     1      47.394   2.666   5.821  0.00  0.00    +0.000 A 
ATOM     14  N   UNL     1      47.698   1.396   6.151  0.00  0.00    +0.000 NA
ATOM     15  C   UNL     1      47.138   0.910   7.279  0.00  0.00    +0.000 A 
ATOM     16  C   UNL     1      46.281   1.635   8.087  0.00  0.00    +0.000 A 
ENDBRANCH  10  11
ENDBRANCH   8   9
ENDBRANCH   5   8
ENDBRANCH   1   2
BRANCH   1  17
ATOM     17  C   UNL     1      47.551   4.405  15.007  0.00  0.00    +0.000 C 
BRANCH  17  18
ATOM     18  C   UNL     1      47.923   4.916  16.386  0.00  0.00    +0.000 A 
ATOM     19  C   UNL     1      47.417   4.363  17.551  0.00  0.00    +0.000 A 
ATOM     20  S   UNL     1      47.828   5.246  18.951  0.00  0.00    +0.000 S 
ATOM     21  C   UNL     1      48.704   6.393  18.047  0.00  0.00    +0.000 A 
ATOM     22  N   UNL     1      49.258   7.485  18.641  0.00  0.00    +0.000 NA
ATOM     23  C   UNL     1      49.870   8.278  17.827  0.00  0.00    +0.000 A 
ATOM     24  N   UNL     1      50.010   8.066  16.479  0.00  0.00    +0.000 N 
ATOM     25  C   UNL     1      49.493   6.962  15.838  0.00  0.00    +0.000 A 
ATOM     26  O   UNL     1      49.695   6.776  14.643  0.00  0.00    +0.000 OA
ATOM     27  C   UNL     1      48.739   6.071  16.703  0.00  0.00    +0.000 A 
ATOM     28  H   UNL     1      50.533   8.708  15.903  0.00  0.00    +0.000 HD
ENDBRANCH  17  18
BRANCH  17  29
ATOM     29  N   UNL     1      47.625   2.948  15.130  0.00  0.00    +0.000 NA
ATOM     30  H   UNL     1      46.687   2.572  15.221  0.00  0.00    +0.000 HD
ATOM     31  H   UNL     1      48.137   2.724  15.984  0.00  0.00    +0.000 HD
ENDBRANCH  17  29
ENDBRANCH   1  17
TORSDOF 7
ENDMDL
MODEL 3
REMARK VINA RESULT:    -8.004      3.680      4.763
REMARK INTER + INTRA:         -10.810
REMARK INTER:                 -10.987
REMARK INTRA:                   0.177
REMARK UNBOUND:                 0.236
REMARK  Name = 
REMARK  7 active torsions:
REMARK  status: ('A' for Active; 'I' for Inactive)
REMARK    1  A    between atoms: N_1  and  C_2
REMARK    2  A    between atoms: C_2  and  C_3
REMARK    3  A    between atoms: C_2  and  C_19
REMARK    4  A    between atoms: C_3  and  N_4
REMARK    5  A    between atoms: N_7  and  C_8
REMARK    6  A    between atoms: C_8  and  C_9
REMARK    7  A    between atoms: C_10  and  C_11
REMARK                            x       y       z     vdW  Elec       q    Type
REMARK                         _______ _______ _______ _____ _____    ______ ____
ROOT
ATOM      1  C   UNL     1      45.447   7.482  12.771  0.00  0.00    +0.000 C 
ENDROOT
BRANCH   1   2
ATOM      2  N   UNL     1      44.940   7.027  11.444  0.00  0.00    +0.000 NA
ATOM      3  C   UNL     1      43.507   6.640  11.569  0.00  0.00    +0.000 C 
ATOM      4  C   UNL     1      43.263   5.310  12.337  0.00  0.00    +0.000 C 
ATOM      5  N   UNL     1      44.061   4.147  11.876  0.00  0.00    +0.000 NA
ATOM      6  C   UNL     1      45.472   4.563  11.727  0.00  0.00    +0.000 C 
ATOM      7  C   UNL     1      45.642   5.854  10.892  0.00  0.00    +0.000 C 
BRANCH   5   8
ATOM      8  C   UNL     1      43.598   3.577  10.605  0.00  0.00    +0.000 C 
BRANCH   8   9
ATOM      9  C   UNL     1      44.698   2.944   9.828  0.00  0.00    +0.000 C 
ATOM     10  C   UNL     1      44.943   3.265   8.550  0.00  0.00    +0.000 C 
BRANCH  10  11
ATOM     11  C   UNL     1      45.985   2.636   7.739  0.00  0.00    +0.000 A 
ATOM     12  C   UNL     1      46.458   1.350   8.006  0.00  0.00    +0.000 A 
ATOM     13  C   UNL     1      47.445   0.827   7.183  0.00  0.00    +0.000 A 
ATOM     14  N   UNL     1      47.962   1.482   6.126  0.00  0.00    +0.000 NA
ATOM     15  C   UNL     1      47.470   2.713   5.873  0.00  0.00    +0.000 A 
ATOM     16  C   UNL     1      46.489   3.322   6.636  0.00  0.00    +0.000 A 
ENDBRANCH  10  11
ENDBRANCH   8   9
ENDBRANCH   5   8
ENDBRANCH   1   2
BRANCH   1  17
ATOM     17  C   UNL     1      45.653   9.014  13.018  0.00  0.00    +0.000 C 
BRANCH  17  18
ATOM     18  C   UNL     1      46.937   9.545  12.411  0.00  0.00    +0.000 A 
ATOM     19  C   UNL     1      46.982  10.698  11.644  0.00  0.00    +0.000 A 
ATOM     20  S   UNL     1      48.500  10.963  10.913  0.00  0.00    +0.000 S 
ATOM     21  C   UNL     1      49.151   9.549  11.605  0.00  0.00    +0.000 A 
ATOM     22  N   UNL     1      50.414   9.138  11.312  0.00  0.00    +0.000 NA
ATOM     23  C   UNL     1      50.762   8.038  11.891  0.00  0.00    +0.000 A 
ATOM     24  N   UNL     1      49.977   7.327  12.763  0.00  0.00    +0.000 N 
ATOM     25  C   UNL     1      48.705   7.719  13.113  0.00  0.00    +0.000 A 
ATOM     26  O   UNL     1      48.059   7.090  13.945  0.00  0.00    +0.000 OA
ATOM     27  C   UNL     1      48.244   8.919  12.436  0.00  0.00    +0.000 A 
ATOM     28  H   UNL     1      50.323   6.492  13.211  0.00  0.00    +0.000 HD
ENDBRANCH  17  18
BRANCH  17  29
ATOM     29  N   UNL     1      44.618   9.927  12.528  0.00  0.00    +0.000 NA
ATOM     30  H   UNL     1      45.058  10.759  12.150  0.00  0.00    +0.000 HD
ATOM     31  H   UNL     1      44.038  10.208  13.319  0.00  0.00    +0.000 HD
ENDBRANCH  17  29
ENDBRANCH   1  17
TORSDOF 7
ENDMDL
MODEL 4
REMARK VINA RESULT:    -7.763      1.648      2.235
REMARK INTER + INTRA:         -10.477
REMARK INTER:                 -10.139
REMARK INTRA:                  -0.338
REMARK UNBOUND:                 0.236
REMARK  Name = 
REMARK  7 active torsions:
REMARK  status: ('A' for Active; 'I' for Inactive)
REMARK    1  A    between atoms: N_1  and  C_2
REMARK    2  A    between atoms: C_2  and  C_3
REMARK    3  A    between atoms: C_2  and  C_19
REMARK    4  A    between atoms: C_3  and  N_4
REMARK    5  A    between atoms: N_7  and  C_8
REMARK    6  A    between atoms: C_8  and  C_9
REMARK    7  A    between atoms: C_10  and  C_11
REMARK                            x       y       z     vdW  Elec       q    Type
REMARK                         _______ _______ _______ _____ _____    ______ ____
ROOT
ATOM      1  C   UNL     1      46.751   7.321  13.277  0.00  0.00    +0.000 C 
ENDROOT
BRANCH   1   2
ATOM      2  N   UNL     1      46.325   7.201  11.853  0.00  0.00    +0.000 NA
ATOM      3  C   UNL     1      44.868   7.495  11.747  0.00  0.00    +0.000 C 
ATOM      4  C   UNL     1      43.943   6.386  12.322  0.00  0.00    +0.000 C 
ATOM      5  N   UNL     1      44.214   5.009  11.841  0.00  0.00    +0.000 NA
ATOM      6  C   UNL     1      45.668   4.751  11.924  0.00  0.00    +0.000 C 
ATOM      7  C   UNL     1      46.522   5.861  11.268  0.00  0.00    +0.000 C 
BRANCH   5   8
ATOM      8  C   UNL     1      43.767   4.764  10.465  0.00  0.00    +0.000 C 
BRANCH   8   9
ATOM      9  C   UNL     1      44.614   3.764   9.758  0.00  0.00    +0.000 C 
ATOM     10  C   UNL     1      45.112   3.992   8.534  0.00  0.00    +0.000 C 
BRANCH  10  11
ATOM     11  C   UNL     1      45.912   3.022   7.789  0.00  0.00    +0.000 A 
ATOM     12  C   UNL     1      46.575   3.358   6.607  0.00  0.00    +0.000 A 
ATOM     13  C   UNL     1      47.317   2.377   5.965  0.00  0.00    +0.000 A 
ATOM     14  N   UNL     1      47.452   1.119   6.427  0.00  0.00    +0.000 NA
ATOM     15  C   UNL     1      46.823   0.826   7.585  0.00  0.00    +0.000 A 
ATOM     16  C   UNL     1      46.058   1.733   8.297  0.00  0.00    +0.000 A 
ENDBRANCH  10  11
ENDBRANCH   8   9
ENDBRANCH   5   8
ENDBRANCH   1   2
BRANCH   1  17
ATOM     17  C   UNL     1      48.255   7.620  13.593  0.00  0.00    +0.000 C 
BRANCH  17  18
ATOM     18  C   UNL     1      48.527   7.787  15.076  0.00  0.00    +0.000 A 
ATOM     19  C   UNL     1      48.864   9.005  15.643  0.00  0.00    +0.000 A 
ATOM     20  S   UNL     1      49.318   8.884  17.283  0.00  0.00    +0.000 S 
ATOM     21  C   UNL     1      49.073   7.198  17.291  0.00  0.00    +0.000 A 
ATOM     22  N   UNL     1      49.363   6.449  18.389  0.00  0.00    +0.000 NA
ATOM     23  C   UNL     1      49.149   5.185  18.240  0.00  0.00    +0.000 A 
ATOM     24  N   UNL     1      48.640   4.602  17.108  0.00  0.00    +0.000 N 
ATOM     25  C   UNL     1      48.303   5.321  15.984  0.00  0.00    +0.000 A 
ATOM     26  O   UNL     1      47.790   4.771  15.014  0.00  0.00    +0.000 OA
ATOM     27  C   UNL     1      48.587   6.743  16.079  0.00  0.00    +0.000 A 
ATOM     28  H   UNL     1      48.462   3.610  17.070  0.00  0.00    +0.000 HD
ENDBRANCH  17  18
BRANCH  17  29
ATOM     29  N   UNL     1      49.251   6.640  13.152  0.00  0.00    +0.000 NA
ATOM     30  H   UNL     1      48.781   5.878  12.674  0.00  0.00    +0.000 HD
ATOM     31  H   UNL     1      49.710   6.257  13.978  0.00  0.00    +0.000 HD
ENDBRANCH  17  29
ENDBRANCH   1  17
TORSDOF 7
ENDMDL
MODEL 5
REMARK VINA RESULT:    -7.636      1.721      2.297
REMARK INTER + INTRA:         -10.302
REMARK INTER:                 -10.235
REMARK INTRA:                  -0.067
REMARK UNBOUND:                 0.236
REMARK  Name = 
REMARK  7 active torsions:
REMARK  status: ('A' for Active; 'I' for Inactive)
REMARK    1  A    between atoms: N_1  and  C_2
REMARK    2  A    between atoms: C_2  and  C_3
REMARK    3  A    between atoms: C_2  and  C_19
REMARK    4  A    between atoms: C_3  and  N_4
REMARK    5  A    between atoms: N_7  and  C_8
REMARK    6  A    between atoms: C_8  and  C_9
REMARK    7  A    between atoms: C_10  and  C_11
REMARK                            x       y       z     vdW  Elec       q    Type
REMARK                         _______ _______ _______ _____ _____    ______ ____
ROOT
ATOM      1  C   UNL     1      46.747   4.649  14.900  0.00  0.00    +0.000 C 
ENDROOT
BRANCH   1   2
ATOM      2  N   UNL     1      46.930   5.047  13.475  0.00  0.00    +0.000 NA
ATOM      3  C   UNL     1      46.041   6.202  13.166  0.00  0.00    +0.000 C 
ATOM      4  C   UNL     1      44.530   5.848  13.077  0.00  0.00    +0.000 C 
ATOM      5  N   UNL     1      44.189   4.701  12.198  0.00  0.00    +0.000 NA
ATOM      6  C   UNL     1      45.105   3.579  12.499  0.00  0.00    +0.000 C 
ATOM      7  C   UNL     1      46.595   3.992  12.500  0.00  0.00    +0.000 C 
BRANCH   5   8
ATOM      8  C   UNL     1      44.271   5.009  10.766  0.00  0.00    +0.000 C 
BRANCH   8   9
ATOM      9  C   UNL     1      45.212   4.111  10.041  0.00  0.00    +0.000 C 
ATOM     10  C   UNL     1      45.085   3.856   8.731  0.00  0.00    +0.000 C 
BRANCH  10  11
ATOM     11  C   UNL     1      45.961   2.948   7.991  0.00  0.00    +0.000 A 
ATOM     12  C   UNL     1      46.049   1.589   8.297  0.00  0.00    +0.000 A 
ATOM     13  C   UNL     1      46.901   0.797   7.541  0.00  0.00    +0.000 A 
ATOM     14  N   UNL     1      47.637   1.260   6.513  0.00  0.00    +0.000 NA
ATOM     15  C   UNL     1      47.515   2.572   6.220  0.00  0.00    +0.000 A 
ATOM     16  C   UNL     1      46.695   3.443   6.916  0.00  0.00    +0.000 A 
ENDBRANCH  10  11
ENDBRANCH   8   9
ENDBRANCH   5   8
ENDBRANCH   1   2
BRANCH   1  17
ATOM     17  C   UNL     1      47.952   4.011  15.668  0.00  0.00    +0.000 C 
BRANCH  17  18
ATOM     18  C   UNL     1      48.044   4.466  17.112  0.00  0.00    +0.000 A 
ATOM     19  C   UNL     1      47.025   5.159  17.745  0.00  0.00    +0.000 A 
ATOM     20  S   UNL     1      47.459   5.731  19.293  0.00  0.00    +0.000 S 
ATOM     21  C   UNL     1      49.021   5.064  19.170  0.00  0.00    +0.000 A 
ATOM     22  N   UNL     1      49.950   5.263  20.145  0.00  0.00    +0.000 NA
ATOM     23  C   UNL     1      51.095   4.718  19.904  0.00  0.00    +0.000 A 
ATOM     24  N   UNL     1      51.390   3.964  18.797  0.00  0.00    +0.000 N 
ATOM     25  C   UNL     1      50.475   3.710  17.800  0.00  0.00    +0.000 A 
ATOM     26  O   UNL     1      50.758   2.978  16.857  0.00  0.00    +0.000 OA
ATOM     27  C   UNL     1      49.189   4.357  17.994  0.00  0.00    +0.000 A 
ATOM     28  H   UNL     1      52.297   3.535  18.687  0.00  0.00    +0.000 HD
ENDBRANCH  17  18
BRANCH  17  29
ATOM     29  N   UNL     1      48.010   2.549  15.747  0.00  0.00    +0.000 NA
ATOM     30  H   UNL     1      48.949   2.239  15.518  0.00  0.00    +0.000 HD
ATOM     31  H   UNL     1      47.374   2.165  15.048  0.00  0.00    +0.000 HD
ENDBRANCH  17  29
ENDBRANCH   1  17
TORSDOF 7
ENDMDL
MODEL 6
REMARK VINA RESULT:    -7.474      2.972      4.082
REMARK INTER + INTRA:         -10.078
REMARK INTER:                  -9.913
REMARK INTRA:                  -0.164
REMARK UNBOUND:                 0.236
REMARK  Name = 
REMARK  7 active torsions:
REMARK  status: ('A' for Active; 'I' for Inactive)
REMARK    1  A    between atoms: N_1  and  C_2
REMARK    2  A    between atoms: C_2  and  C_3
REMARK    3  A    between atoms: C_2  and  C_19
REMARK    4  A    between atoms: C_3  and  N_4
REMARK    5  A    between atoms: N_7  and  C_8
REMARK    6  A    between atoms: C_8  and  C_9
REMARK    7  A    between atoms: C_10  and  C_11
REMARK                            x       y       z     vdW  Elec       q    Type
REMARK                         _______ _______ _______ _____ _____    ______ ____
ROOT
ATOM      1  C   UNL     1      46.132   6.714  13.332  0.00  0.00    +0.000 C 
ENDROOT
BRANCH   1   2
ATOM      2  N   UNL     1      45.694   6.342  11.957  0.00  0.00    +0.000 NA
ATOM      3  C   UNL     1      44.210   6.435  11.869  0.00  0.00    +0.000 C 
ATOM      4  C   UNL     1      43.447   5.312  12.626  0.00  0.00    +0.000 C 
ATOM      5  N   UNL     1      43.883   3.925  12.328  0.00  0.00    +0.000 NA
ATOM      6  C   UNL     1      45.359   3.864  12.388  0.00  0.00    +0.000 C 
ATOM      7  C   UNL     1      46.049   4.968  11.554  0.00  0.00    +0.000 C 
BRANCH   5   8
ATOM      8  C   UNL     1      43.441   3.435  11.018  0.00  0.00    +0.000 C 
BRANCH   8   9
ATOM      9  C   UNL     1      44.558   2.869  10.212  0.00  0.00    +0.000 C 
ATOM     10  C   UNL     1      44.664   3.084   8.893  0.00  0.00    +0.000 C 
BRANCH  10  11
ATOM     11  C   UNL     1      45.720   2.512   8.059  0.00  0.00    +0.000 A 
ATOM     12  C   UNL     1      46.443   3.282   7.146  0.00  0.00    +0.000 A 
ATOM     13  C   UNL     1      47.433   2.662   6.398  0.00  0.00    +0.000 A 
ATOM     14  N   UNL     1      47.752   1.359   6.515  0.00  0.00    +0.000 NA
ATOM     15  C   UNL     1      47.057   0.641   7.423  0.00  0.00    +0.000 A 
ATOM     16  C   UNL     1      46.051   1.168   8.214  0.00  0.00    +0.000 A 
ENDBRANCH  10  11
ENDBRANCH   8   9
ENDBRANCH   5   8
ENDBRANCH   1   2
BRANCH   1  17
ATOM     17  C   UNL     1      47.514   6.195  13.852  0.00  0.00    +0.000 C 
BRANCH  17  18
ATOM     18  C   UNL     1      48.439   7.312  14.297  0.00  0.00    +0.000 A 
ATOM     19  C   UNL     1      48.684   7.595  15.630  0.00  0.00    +0.000 A 
ATOM     20  S   UNL     1      49.592   9.021  15.862  0.00  0.00    +0.000 S 
ATOM     21  C   UNL     1      49.692   9.304  14.185  0.00  0.00    +0.000 A 
ATOM     22  N   UNL     1      50.282  10.427  13.694  0.00  0.00    +0.000 NA
ATOM     23  C   UNL     1      50.263  10.517  12.407  0.00  0.00    +0.000 A 
ATOM     24  N   UNL     1      49.740   9.573  11.561  0.00  0.00    +0.000 N 
ATOM     25  C   UNL     1      49.161   8.407  12.009  0.00  0.00    +0.000 A 
ATOM     26  O   UNL     1      48.762   7.557  11.218  0.00  0.00    +0.000 OA
ATOM     27  C   UNL     1      49.100   8.290  13.456  0.00  0.00    +0.000 A 
ATOM     28  H   UNL     1      49.789   9.687  10.560  0.00  0.00    +0.000 HD
ENDBRANCH  17  18
BRANCH  17  29
ATOM     29  N   UNL     1      47.509   5.261  14.981  0.00  0.00    +0.000 NA
ATOM     30  H   UNL     1      48.024   5.669  15.754  0.00  0.00    +0.000 HD
ATOM     31  H   UNL     1      47.994   4.410  14.695  0.00  0.00    +0.000 HD
ENDBRANCH  17  29
ENDBRANCH   1  17
TORSDOF 7
ENDMDL
MODEL 7
REMARK VINA RESULT:    -7.388      2.149      2.381
REMARK INTER + INTRA:          -9.959
REMARK INTER:                 -10.088
REMARK INTRA:                   0.129
REMARK UNBOUND:                 0.236
REMARK  Name = 
REMARK  7 active torsions:
REMARK  status: ('A' for Active; 'I' for Inactive)
REMARK    1  A    between atoms: N_1  and  C_2
REMARK    2  A    between atoms: C_2  and  C_3
REMARK    3  A    between atoms: C_2  and  C_19
REMARK    4  A    between atoms: C_3  and  N_4
REMARK    5  A    between atoms: N_7  and  C_8
REMARK    6  A    between atoms: C_8  and  C_9
REMARK    7  A    between atoms: C_10  and  C_11
REMARK                            x       y       z     vdW  Elec       q    Type
REMARK                         _______ _______ _______ _____ _____    ______ ____
ROOT
ATOM      1  C   UNL     1      46.838   4.778  15.149  0.00  0.00    +0.000 C 
ENDROOT
BRANCH   1   2
ATOM      2  N   UNL     1      47.209   4.830  13.705  0.00  0.00    +0.000 NA
ATOM      3  C   UNL     1      47.310   6.252  13.273  0.00  0.00    +0.000 C 
ATOM      4  C   UNL     1      45.946   6.988  13.151  0.00  0.00    +0.000 C 
ATOM      5  N   UNL     1      44.909   6.291  12.350  0.00  0.00    +0.000 NA
ATOM      6  C   UNL     1      44.849   4.875  12.773  0.00  0.00    +0.000 C 
ATOM      7  C   UNL     1      46.235   4.189  12.802  0.00  0.00    +0.000 C 
BRANCH   5   8
ATOM      8  C   UNL     1      45.144   6.344  10.903  0.00  0.00    +0.000 C 
BRANCH   8   9
ATOM      9  C   UNL     1      45.575   5.032  10.345  0.00  0.00    +0.000 C 
ATOM     10  C   UNL     1      45.575   4.784   9.028  0.00  0.00    +0.000 C 
BRANCH  10  11
ATOM     11  C   UNL     1      45.949   3.498   8.443  0.00  0.00    +0.000 A 
ATOM     12  C   UNL     1      46.884   3.396   7.410  0.00  0.00    +0.000 A 
ATOM     13  C   UNL     1      47.186   2.135   6.917  0.00  0.00    +0.000 A 
ATOM     14  N   UNL     1      46.643   0.997   7.389  0.00  0.00    +0.000 NA
ATOM     15  C   UNL     1      45.762   1.119   8.404  0.00  0.00    +0.000 A 
ATOM     16  C   UNL     1      45.393   2.331   8.963  0.00  0.00    +0.000 A 
ENDBRANCH  10  11
ENDBRANCH   8   9
ENDBRANCH   5   8
ENDBRANCH   1   2
BRANCH   1  17
ATOM     17  C   UNL     1      47.610   3.796  16.093  0.00  0.00    +0.000 C 
BRANCH  17  18
ATOM     18  C   UNL     1      48.676   4.486  16.922  0.00  0.00    +0.000 A 
ATOM     19  C   UNL     1      48.625   5.834  17.237  0.00  0.00    +0.000 A 
ATOM     20  S   UNL     1      50.041   6.403  18.000  0.00  0.00    +0.000 S 
ATOM     21  C   UNL     1      50.767   4.864  17.940  0.00  0.00    +0.000 A 
ATOM     22  N   UNL     1      52.045   4.671  18.365  0.00  0.00    +0.000 NA
ATOM     23  C   UNL     1      52.469   3.458  18.238  0.00  0.00    +0.000 A 
ATOM     24  N   UNL     1      51.724   2.412  17.757  0.00  0.00    +0.000 N 
ATOM     25  C   UNL     1      50.418   2.551  17.344  0.00  0.00    +0.000 A 
ATOM     26  O   UNL     1      49.765   1.579  16.981  0.00  0.00    +0.000 OA
ATOM     27  C   UNL     1      49.916   3.913  17.408  0.00  0.00    +0.000 A 
ATOM     28  H   UNL     1      52.105   1.478  17.717  0.00  0.00    +0.000 HD
ENDBRANCH  17  18
BRANCH  17  29
ATOM     29  N   UNL     1      46.827   3.038  17.071  0.00  0.00    +0.000 NA
ATOM     30  H   UNL     1      47.292   2.155  17.259  0.00  0.00    +0.000 HD
ATOM     31  H   UNL     1      45.916   2.833  16.662  0.00  0.00    +0.000 HD
ENDBRANCH  17  29
ENDBRANCH   1  17
TORSDOF 7
ENDMDL
MODEL 8
REMARK VINA RESULT:    -6.676      5.310      7.889
REMARK INTER + INTRA:          -8.977
REMARK INTER:                  -8.426
REMARK INTRA:                  -0.550
REMARK UNBOUND:                 0.236
REMARK  Name = 
REMARK  7 active torsions:
REMARK  status: ('A' for Active; 'I' for Inactive)
REMARK    1  A    between atoms: N_1  and  C_2
REMARK    2  A    between atoms: C_2  and  C_3
REMARK    3  A    between atoms: C_2  and  C_19
REMARK    4  A    between atoms: C_3  and  N_4
REMARK    5  A    between atoms: N_7  and  C_8
REMARK    6  A    between atoms: C_8  and  C_9
REMARK    7  A    between atoms: C_10  and  C_11
REMARK                            x       y       z     vdW  Elec       q    Type
REMARK                         _______ _______ _______ _____ _____    ______ ____
ROOT
ATOM      1  C   UNL     1      45.931   6.952  12.913  0.00  0.00    +0.000 C 
ENDROOT
BRANCH   1   2
ATOM      2  N   UNL     1      46.792   8.158  13.080  0.00  0.00    +0.000 NA
ATOM      3  C   UNL     1      47.441   8.486  11.781  0.00  0.00    +0.000 C 
ATOM      4  C   UNL     1      48.566   7.502  11.355  0.00  0.00    +0.000 C 
ATOM      5  N   UNL     1      49.603   7.228  12.381  0.00  0.00    +0.000 NA
ATOM      6  C   UNL     1      48.937   6.938  13.669  0.00  0.00    +0.000 C 
ATOM      7  C   UNL     1      47.881   7.998  14.061  0.00  0.00    +0.000 C 
BRANCH   5   8
ATOM      8  C   UNL     1      50.549   8.333  12.575  0.00  0.00    +0.000 C 
BRANCH   8   9
ATOM      9  C   UNL     1      51.432   8.544  11.394  0.00  0.00    +0.000 C 
ATOM     10  C   UNL     1      51.807   7.534  10.596  0.00  0.00    +0.000 C 
BRANCH  10  11
ATOM     11  C   UNL     1      52.705   7.692   9.453  0.00  0.00    +0.000 A 
ATOM     12  C   UNL     1      53.101   8.947   8.988  0.00  0.00    +0.000 A 
ATOM     13  C   UNL     1      53.961   9.007   7.901  0.00  0.00    +0.000 A 
ATOM     14  N   UNL     1      54.453   7.920   7.277  0.00  0.00    +0.000 NA
ATOM     15  C   UNL     1      54.077   6.718   7.761  0.00  0.00    +0.000 A 
ATOM     16  C   UNL     1      53.222   6.554   8.837  0.00  0.00    +0.000 A 
ENDBRANCH  10  11
ENDBRANCH   8   9
ENDBRANCH   5   8
ENDBRANCH   1   2
BRANCH   1  17
ATOM     17  C   UNL     1      45.145   6.763  11.572  0.00  0.00    +0.000 C 
BRANCH  17  18
ATOM     18  C   UNL     1      44.561   5.372  11.417  0.00  0.00    +0.000 A 
ATOM     19  C   UNL     1      43.768   4.781  12.387  0.00  0.00    +0.000 A 
ATOM     20  S   UNL     1      43.412   3.144  12.061  0.00  0.00    +0.000 S 
ATOM     21  C   UNL     1      44.300   3.175  10.608  0.00  0.00    +0.000 A 
ATOM     22  N   UNL     1      44.468   2.050   9.861  0.00  0.00    +0.000 NA
ATOM     23  C   UNL     1      45.183   2.221   8.800  0.00  0.00    +0.000 A 
ATOM     24  N   UNL     1      45.718   3.417   8.397  0.00  0.00    +0.000 N 
ATOM     25  C   UNL     1      45.550   4.587   9.102  0.00  0.00    +0.000 A 
ATOM     26  O   UNL     1      45.990   5.649   8.675  0.00  0.00    +0.000 OA
ATOM     27  C   UNL     1      44.805   4.434  10.341  0.00  0.00    +0.000 A 
ATOM     28  H   UNL     1      46.238   3.490   7.535  0.00  0.00    +0.000 HD
ENDBRANCH  17  18
BRANCH  17  29
ATOM     29  N   UNL     1      44.015   7.659  11.316  0.00  0.00    +0.000 NA
ATOM     30  H   UNL     1      44.052   7.976  10.352  0.00  0.00    +0.000 HD
ATOM     31  H   UNL     1      44.110   8.476  11.919  0.00  0.00    +0.000 HD
ENDBRANCH  17  29
ENDBRANCH   1  17
TORSDOF 7
ENDMDL
MODEL 9
REMARK VINA RESULT:    -6.539      3.196      5.538
REMARK INTER + INTRA:          -8.788
REMARK INTER:                  -7.722
REMARK INTRA:                  -1.066
REMARK UNBOUND:                 0.236
REMARK  Name = 
REMARK  7 active torsions:
REMARK  status: ('A' for Active; 'I' for Inactive)
REMARK    1  A    between atoms: N_1  and  C_2
REMARK    2  A    between atoms: C_2  and  C_3
REMARK    3  A    between atoms: C_2  and  C_19
REMARK    4  A    between atoms: C_3  and  N_4
REMARK    5  A    between atoms: N_7  and  C_8
REMARK    6  A    between atoms: C_8  and  C_9
REMARK    7  A    between atoms: C_10  and  C_11
REMARK                            x       y       z     vdW  Elec       q    Type
REMARK                         _______ _______ _______ _____ _____    ______ ____
ROOT
ATOM      1  C   UNL     1      50.842   8.179  16.816  0.00  0.00    +0.000 C 
ENDROOT
BRANCH   1   2
ATOM      2  N   UNL     1      49.826   8.925  16.020  0.00  0.00    +0.000 NA
ATOM      3  C   UNL     1      48.621   8.069  15.830  0.00  0.00    +0.000 C 
ATOM      4  C   UNL     1      48.818   6.890  14.837  0.00  0.00    +0.000 C 
ATOM      5  N   UNL     1      49.394   7.250  13.517  0.00  0.00    +0.000 NA
ATOM      6  C   UNL     1      50.567   8.126  13.729  0.00  0.00    +0.000 C 
ATOM      7  C   UNL     1      50.275   9.317  14.672  0.00  0.00    +0.000 C 
BRANCH   5   8
ATOM      8  C   UNL     1      48.448   7.932  12.626  0.00  0.00    +0.000 C 
BRANCH   8   9
ATOM      9  C   UNL     1      47.089   7.325  12.662  0.00  0.00    +0.000 C 
ATOM     10  C   UNL     1      46.707   6.383  11.788  0.00  0.00    +0.000 C 
BRANCH  10  11
ATOM     11  C   UNL     1      45.369   5.793  11.762  0.00  0.00    +0.000 A 
ATOM     12  C   UNL     1      44.514   5.846  12.864  0.00  0.00    +0.000 A 
ATOM     13  C   UNL     1      43.259   5.266  12.753  0.00  0.00    +0.000 A 
ATOM     14  N   UNL     1      42.808   4.668  11.633  0.00  0.00    +0.000 NA
ATOM     15  C   UNL     1      43.644   4.652  10.573  0.00  0.00    +0.000 A 
ATOM     16  C   UNL     1      44.914   5.201  10.586  0.00  0.00    +0.000 A 
ENDBRANCH  10  11
ENDBRANCH   8   9
ENDBRANCH   5   8
ENDBRANCH   1   2
BRANCH   1  17
ATOM     17  C   UNL     1      50.401   7.490  18.151  0.00  0.00    +0.000 C 
BRANCH  17  18
ATOM     18  C   UNL     1      50.460   5.977  18.086  0.00  0.00    +0.000 A 
ATOM     19  C   UNL     1      51.644   5.281  17.900  0.00  0.00    +0.000 A 
ATOM     20  S   UNL     1      51.412   3.608  17.658  0.00  0.00    +0.000 S 
ATOM     21  C   UNL     1      49.721   3.758  17.802  0.00  0.00    +0.000 A 
ATOM     22  N   UNL     1      48.901   2.688  17.615  0.00  0.00    +0.000 NA
ATOM     23  C   UNL     1      47.644   2.958  17.732  0.00  0.00    +0.000 A 
ATOM     24  N   UNL     1      47.130   4.188  18.053  0.00  0.00    +0.000 N 
ATOM     25  C   UNL     1      47.921   5.292  18.281  0.00  0.00    +0.000 A 
ATOM     26  O   UNL     1      47.427   6.360  18.629  0.00  0.00    +0.000 OA
ATOM     27  C   UNL     1      49.342   5.054  18.097  0.00  0.00    +0.000 A 
ATOM     28  H   UNL     1      46.137   4.324  18.165  0.00  0.00    +0.000 HD
ENDBRANCH  17  18
BRANCH  17  29
ATOM     29  N   UNL     1      51.144   7.828  19.368  0.00  0.00    +0.000 NA
ATOM     30  H   UNL     1      51.978   7.252  19.421  0.00  0.00    +0.000 HD
ATOM     31  H   UNL     1      50.557   7.607  20.173  0.00  0.00    +0.000 HD
ENDBRANCH  17  29
ENDBRANCH   1  17
TORSDOF 7
ENDMDL
