MODEL 1
REMARK VINA RESULT:    -7.792      0.000      0.000
REMARK INTER + INTRA:         -10.482
REMARK INTER:                  -9.842
REMARK INTRA:                  -0.640
REMARK UNBOUND:                -0.640
REMARK  Name = 
REMARK  6 active torsions:
REMARK  status: ('A' for Active; 'I' for Inactive)
REMARK    1  A    between atoms: C_1  and  O_2
REMARK    2  A    between atoms: O_2  and  C_3
REMARK    3  A    between atoms: C_5  and  C_6
REMARK    4  A    between atoms: C_6  and  N_7
REMARK    5  A    between atoms: C_12  and  C_13
REMARK    6  A    between atoms: C_21  and  O_22
REMARK                            x       y       z     vdW  Elec       q    Type
REMARK                         _______ _______ _______ _____ _____    ______ ____
ROOT
ATOM      1  N   UNL     1      44.365   3.972  10.475  0.00  0.00    +0.000 N 
ATOM      2  C   UNL     1      43.837   3.035  11.334  0.00  0.00    +0.000 A 
ATOM      3  C   UNL     1      44.367   3.253  12.584  0.00  0.00    +0.000 A 
ATOM      4  C   UNL     1      45.257   4.356  12.490  0.00  0.00    +0.000 A 
ATOM      5  C   UNL     1      46.087   5.005  13.413  0.00  0.00    +0.000 A 
ATOM      6  C   UNL     1      46.841   6.064  12.929  0.00  0.00    +0.000 A 
ATOM      7  N   UNL     1      46.815   6.512  11.642  0.00  0.00    +0.000 NA
ATOM      8  C   UNL     1      46.007   5.888  10.754  0.00  0.00    +0.000 A 
ATOM      9  C   UNL     1      45.232   4.802  11.164  0.00  0.00    +0.000 A 
ENDROOT
BRANCH   6  10
ATOM     10  C   UNL     1      47.777   6.771  13.865  0.00  0.00    +0.000 C 
ATOM     11  N   UNL     1      47.383   8.015  14.278  0.00  0.00    +0.000 N 
ATOM     12  O   UNL     1      48.837   6.281  14.239  0.00  0.00    +0.000 OA
ATOM     13  H   UNL     1      46.508   8.403  13.946  0.00  0.00    +0.000 HD
ATOM     14  H   UNL     1      47.982   8.544  14.895  0.00  0.00    +0.000 HD
ENDBRANCH   6  10
BRANCH   1  15
ATOM     15  C   UNL     1      44.137   3.961   9.031  0.00  0.00    +0.000 C 
BRANCH  15  18
ATOM     16  C   UNL     1      46.734   1.450   7.777  0.00  0.00    +0.000 A 
ATOM     17  C   UNL     1      45.641   2.013   8.448  0.00  0.00    +0.000 A 
ATOM     18  C   UNL     1      45.293   3.363   8.268  0.00  0.00    +0.000 A 
ATOM     19  C   UNL     1      46.041   4.140   7.371  0.00  0.00    +0.000 A 
ATOM     20  C   UNL     1      47.122   3.585   6.683  0.00  0.00    +0.000 A 
ATOM     21  C   UNL     1      47.469   2.252   6.895  0.00  0.00    +0.000 A 
BRANCH  16  23
ATOM     22  C   UNL     1      46.375  -0.860   7.302  0.00  0.00    +0.000 C 
ATOM     23  O   UNL     1      47.155   0.154   7.920  0.00  0.00    +0.000 OA
ENDBRANCH  16  23
BRANCH  21  24
ATOM     24  O   UNL     1      48.542   1.714   6.235  0.00  0.00    +0.000 OA
ATOM     25  H   UNL     1      48.347   1.679   5.287  0.00  0.00    +0.000 HD
ENDBRANCH  21  24
ENDBRANCH  15  18
ENDBRANCH   1  15
TORSDOF 5
ENDMDL
MODEL 2
REMARK VINA RESULT:    -7.788      1.600      2.072
REMARK INTER + INTRA:         -10.476
REMARK INTER:                  -9.897
REMARK INTRA:                  -0.579
REMARK UNBOUND:                -0.640
REMARK  Name = 
REMARK  6 active torsions:
REMARK  status: ('A' for Active; 'I' for Inactive)
REMARK    1  A    between atoms: C_1  and  O_2
REMARK    2  A    between atoms: O_2  and  C_3
REMARK    3  A    between atoms: C_5  and  C_6
REMARK    4  A    between atoms: C_6  and  N_7
REMARK    5  A    between atoms: C_12  and  C_13
REMARK    6  A    between atoms: C_21  and  O_22
REMARK                            x       y       z     vdW  Elec       q    Type
REMARK                         _______ _______ _______ _____ _____    ______ ____
ROOT
ATOM      1  N   UNL     1      45.041   4.666  10.428  0.00  0.00    +0.000 N 
ATOM      2  C   UNL     1      44.980   6.027  10.235  0.00  0.00    +0.000 A 
ATOM      3  C   UNL     1      45.483   6.641  11.357  0.00  0.00    +0.000 A 
ATOM      4  C   UNL     1      45.859   5.625  12.275  0.00  0.00    +0.000 A 
ATOM      5  C   UNL     1      46.395   5.646  13.569  0.00  0.00    +0.000 A 
ATOM      6  C   UNL     1      46.618   4.414  14.167  0.00  0.00    +0.000 A 
ATOM      7  N   UNL     1      46.367   3.209  13.580  0.00  0.00    +0.000 NA
ATOM      8  C   UNL     1      45.856   3.192  12.327  0.00  0.00    +0.000 A 
ATOM      9  C   UNL     1      45.588   4.393  11.670  0.00  0.00    +0.000 A 
ENDROOT
BRANCH   6  10
ATOM     10  C   UNL     1      47.155   4.377  15.567  0.00  0.00    +0.000 C 
ATOM     11  N   UNL     1      47.918   5.449  15.944  0.00  0.00    +0.000 N 
ATOM     12  O   UNL     1      46.939   3.446  16.337  0.00  0.00    +0.000 OA
ATOM     13  H   UNL     1      48.091   6.200  15.287  0.00  0.00    +0.000 HD
ATOM     14  H   UNL     1      48.320   5.470  16.870  0.00  0.00    +0.000 HD
ENDBRANCH   6  10
BRANCH   1  15
ATOM     15  C   UNL     1      44.464   3.693   9.501  0.00  0.00    +0.000 C 
BRANCH  15  18
ATOM     16  C   UNL     1      46.849   1.331   7.670  0.00  0.00    +0.000 A 
ATOM     17  C   UNL     1      45.885   1.825   8.556  0.00  0.00    +0.000 A 
ATOM     18  C   UNL     1      45.475   3.169   8.511  0.00  0.00    +0.000 A 
ATOM     19  C   UNL     1      46.025   4.010   7.531  0.00  0.00    +0.000 A 
ATOM     20  C   UNL     1      46.974   3.524   6.630  0.00  0.00    +0.000 A 
ATOM     21  C   UNL     1      47.389   2.195   6.709  0.00  0.00    +0.000 A 
BRANCH  16  23
ATOM     22  C   UNL     1      46.424  -0.984   7.281  0.00  0.00    +0.000 C 
ATOM     23  O   UNL     1      47.323   0.045   7.669  0.00  0.00    +0.000 OA
ENDBRANCH  16  23
BRANCH  21  24
ATOM     24  O   UNL     1      48.335   1.724   5.838  0.00  0.00    +0.000 OA
ATOM     25  H   UNL     1      48.745   0.931   6.214  0.00  0.00    +0.000 HD
ENDBRANCH  21  24
ENDBRANCH  15  18
ENDBRANCH   1  15
TORSDOF 5
ENDMDL
MODEL 3
REMARK VINA RESULT:    -7.516      2.074      6.519
REMARK INTER + INTRA:         -10.134
REMARK INTER:                  -9.592
REMARK INTRA:                  -0.542
REMARK UNBOUND:                -0.640
REMARK  Name = 
REMARK  6 active torsions:
REMARK  status: ('A' for Active; 'I' for Inactive)
REMARK    1  A    between atoms: C_1  and  O_2
REMARK    2  A    between atoms: O_2  and  C_3
REMARK    3  A    between atoms: C_5  and  C_6
REMARK    4  A    between atoms: C_6  and  N_7
REMARK    5  A    between atoms: C_12  and  C_13
REMARK    6  A    between atoms: C_21  and  O_22
REMARK                            x       y       z     vdW  Elec       q    Type
REMARK                         _______ _______ _______ _____ _____    ______ ____
ROOT
ATOM      1  N   UNL     1      44.300   4.297  10.294  0.00  0.00    +0.000 N 
ATOM      2  C   UNL     1      43.758   3.130  10.780  0.00  0.00    +0.000 A 
ATOM      3  C   UNL     1      44.281   2.082  10.059  0.00  0.00    +0.000 A 
ATOM      4  C   UNL     1      45.168   2.624   9.091  0.00  0.00    +0.000 A 
ATOM      5  C   UNL     1      45.954   2.057   8.080  0.00  0.00    +0.000 A 
ATOM      6  C   UNL     1      46.696   2.936   7.305  0.00  0.00    +0.000 A 
ATOM      7  N   UNL     1      46.720   4.288   7.473  0.00  0.00    +0.000 NA
ATOM      8  C   UNL     1      45.965   4.834   8.455  0.00  0.00    +0.000 A 
ATOM      9  C   UNL     1      45.178   4.012   9.263  0.00  0.00    +0.000 A 
ENDROOT
BRANCH   6  10
ATOM     10  C   UNL     1      47.526   2.386   6.182  0.00  0.00    +0.000 C 
ATOM     11  N   UNL     1      47.455   3.066   4.997  0.00  0.00    +0.000 N 
ATOM     12  O   UNL     1      48.223   1.384   6.302  0.00  0.00    +0.000 OA
ATOM     13  H   UNL     1      46.863   3.884   4.920  0.00  0.00    +0.000 HD
ATOM     14  H   UNL     1      47.979   2.731   4.202  0.00  0.00    +0.000 HD
ENDBRANCH   6  10
BRANCH   1  15
ATOM     15  C   UNL     1      43.871   5.627  10.727  0.00  0.00    +0.000 C 
BRANCH  15  18
ATOM     16  C   UNL     1      46.701   6.110  13.251  0.00  0.00    +0.000 A 
ATOM     17  C   UNL     1      45.789   5.515  12.372  0.00  0.00    +0.000 A 
ATOM     18  C   UNL     1      44.873   6.289  11.639  0.00  0.00    +0.000 A 
ATOM     19  C   UNL     1      44.908   7.686  11.775  0.00  0.00    +0.000 A 
ATOM     20  C   UNL     1      45.825   8.292  12.636  0.00  0.00    +0.000 A 
ATOM     21  C   UNL     1      46.707   7.505  13.375  0.00  0.00    +0.000 A 
BRANCH  16  23
ATOM     22  C   UNL     1      47.099   4.401  14.867  0.00  0.00    +0.000 C 
ATOM     23  O   UNL     1      47.604   5.425  14.022  0.00  0.00    +0.000 OA
ENDBRANCH  16  23
BRANCH  21  24
ATOM     24  O   UNL     1      47.593   8.099  14.235  0.00  0.00    +0.000 OA
ATOM     25  H   UNL     1      48.314   8.496  13.724  0.00  0.00    +0.000 HD
ENDBRANCH  21  24
ENDBRANCH  15  18
ENDBRANCH   1  15
TORSDOF 5
ENDMDL
MODEL 4
REMARK VINA RESULT:    -7.285      2.570      6.902
REMARK INTER + INTRA:          -9.842
REMARK INTER:                  -9.286
REMARK INTRA:                  -0.555
REMARK UNBOUND:                -0.640
REMARK  Name = 
REMARK  6 active torsions:
REMARK  status: ('A' for Active; 'I' for Inactive)
REMARK    1  A    between atoms: C_1  and  O_2
REMARK    2  A    between atoms: O_2  and  C_3
REMARK    3  A    between atoms: C_5  and  C_6
REMARK    4  A    between atoms: C_6  and  N_7
REMARK    5  A    between atoms: C_12  and  C_13
REMARK    6  A    between atoms: C_21  and  O_22
REMARK                            x       y       z     vdW  Elec       q    Type
REMARK                         _______ _______ _______ _____ _____    ______ ____
ROOT
ATOM      1  N   UNL     1      44.026   4.360  10.619  0.00  0.00    +0.000 N 
ATOM      2  C   UNL     1      43.518   3.197  11.151  0.00  0.00    +0.000 A 
ATOM      3  C   UNL     1      44.069   2.138  10.469  0.00  0.00    +0.000 A 
ATOM      4  C   UNL     1      44.939   2.667   9.479  0.00  0.00    +0.000 A 
ATOM      5  C   UNL     1      45.739   2.083   8.488  0.00  0.00    +0.000 A 
ATOM      6  C   UNL     1      46.455   2.953   7.678  0.00  0.00    +0.000 A 
ATOM      7  N   UNL     1      46.441   4.310   7.794  0.00  0.00    +0.000 NA
ATOM      8  C   UNL     1      45.673   4.872   8.757  0.00  0.00    +0.000 A 
ATOM      9  C   UNL     1      44.910   4.060   9.597  0.00  0.00    +0.000 A 
ENDROOT
BRANCH   6  10
ATOM     10  C   UNL     1      47.298   2.383   6.575  0.00  0.00    +0.000 C 
ATOM     11  N   UNL     1      47.216   3.022   5.368  0.00  0.00    +0.000 N 
ATOM     12  O   UNL     1      48.016   1.400   6.729  0.00  0.00    +0.000 OA
ATOM     13  H   UNL     1      46.607   3.825   5.263  0.00  0.00    +0.000 HD
ATOM     14  H   UNL     1      47.749   2.672   4.585  0.00  0.00    +0.000 HD
ENDBRANCH   6  10
BRANCH   1  15
ATOM     15  C   UNL     1      43.560   5.693  11.001  0.00  0.00    +0.000 C 
BRANCH  15  18
ATOM     16  C   UNL     1      45.756   8.627  12.090  0.00  0.00    +0.000 A 
ATOM     17  C   UNL     1      44.752   7.874  11.470  0.00  0.00    +0.000 A 
ATOM     18  C   UNL     1      44.623   6.495  11.711  0.00  0.00    +0.000 A 
ATOM     19  C   UNL     1      45.501   5.882  12.618  0.00  0.00    +0.000 A 
ATOM     20  C   UNL     1      46.495   6.627  13.256  0.00  0.00    +0.000 A 
ATOM     21  C   UNL     1      46.625   7.988  12.984  0.00  0.00    +0.000 A 
BRANCH  16  23
ATOM     22  C   UNL     1      44.826  10.782  11.666  0.00  0.00    +0.000 C 
ATOM     23  O   UNL     1      45.967   9.966  11.887  0.00  0.00    +0.000 OA
ENDBRANCH  16  23
BRANCH  21  24
ATOM     24  O   UNL     1      47.613   8.713  13.594  0.00  0.00    +0.000 OA
ATOM     25  H   UNL     1      48.244   9.017  12.925  0.00  0.00    +0.000 HD
ENDBRANCH  21  24
ENDBRANCH  15  18
ENDBRANCH   1  15
TORSDOF 5
ENDMDL
MODEL 5
REMARK VINA RESULT:    -6.308      2.274      3.868
REMARK INTER + INTRA:          -8.608
REMARK INTER:                  -8.425
REMARK INTRA:                  -0.183
REMARK UNBOUND:                -0.640
REMARK  Name = 
REMARK  6 active torsions:
REMARK  status: ('A' for Active; 'I' for Inactive)
REMARK    1  A    between atoms: C_1  and  O_2
REMARK    2  A    between atoms: O_2  and  C_3
REMARK    3  A    between atoms: C_5  and  C_6
REMARK    4  A    between atoms: C_6  and  N_7
REMARK    5  A    between atoms: C_12  and  C_13
REMARK    6  A    between atoms: C_21  and  O_22
REMARK                            x       y       z     vdW  Elec       q    Type
REMARK                         _______ _______ _______ _____ _____    ______ ____
ROOT
ATOM      1  N   UNL     1      46.240   6.461  12.017  0.00  0.00    +0.000 N 
ATOM      2  C   UNL     1      47.184   7.434  11.783  0.00  0.00    +0.000 A 
ATOM      3  C   UNL     1      48.118   7.376  12.790  0.00  0.00    +0.000 A 
ATOM      4  C   UNL     1      47.733   6.338  13.679  0.00  0.00    +0.000 A 
ATOM      5  C   UNL     1      48.270   5.842  14.873  0.00  0.00    +0.000 A 
ATOM      6  C   UNL     1      47.582   4.801  15.477  0.00  0.00    +0.000 A 
ATOM      7  N   UNL     1      46.446   4.231  14.984  0.00  0.00    +0.000 NA
ATOM      8  C   UNL     1      45.932   4.707  13.826  0.00  0.00    +0.000 A 
ATOM      9  C   UNL     1      46.561   5.766  13.171  0.00  0.00    +0.000 A 
ENDROOT
BRANCH   6  10
ATOM     10  C   UNL     1      48.092   4.257  16.780  0.00  0.00    +0.000 C 
ATOM     11  N   UNL     1      47.171   4.149  17.786  0.00  0.00    +0.000 N 
ATOM     12  O   UNL     1      49.263   3.932  16.950  0.00  0.00    +0.000 OA
ATOM     13  H   UNL     1      46.212   4.435  17.624  0.00  0.00    +0.000 HD
ATOM     14  H   UNL     1      47.462   3.806  18.689  0.00  0.00    +0.000 HD
ENDBRANCH   6  10
BRANCH   1  15
ATOM     15  C   UNL     1      45.017   6.316  11.229  0.00  0.00    +0.000 C 
BRANCH  15  18
ATOM     16  C   UNL     1      45.367   3.611   8.549  0.00  0.00    +0.000 A 
ATOM     17  C   UNL     1      45.466   4.829   9.232  0.00  0.00    +0.000 A 
ATOM     18  C   UNL     1      44.937   4.984  10.525  0.00  0.00    +0.000 A 
ATOM     19  C   UNL     1      44.333   3.879  11.145  0.00  0.00    +0.000 A 
ATOM     20  C   UNL     1      44.244   2.654  10.480  0.00  0.00    +0.000 A 
ATOM     21  C   UNL     1      44.750   2.528   9.187  0.00  0.00    +0.000 A 
BRANCH  16  23
ATOM     22  C   UNL     1      47.217   3.135   7.122  0.00  0.00    +0.000 C 
ATOM     23  O   UNL     1      45.829   3.388   7.278  0.00  0.00    +0.000 OA
ENDBRANCH  16  23
BRANCH  21  24
ATOM     24  O   UNL     1      44.644   1.332   8.529  0.00  0.00    +0.000 OA
ATOM     25  H   UNL     1      45.460   1.170   8.031  0.00  0.00    +0.000 HD
ENDBRANCH  21  24
ENDBRANCH  15  18
ENDBRANCH   1  15
TORSDOF 5
ENDMDL
MODEL 6
REMARK VINA RESULT:    -5.977      3.407      5.542
REMARK INTER + INTRA:          -8.190
REMARK INTER:                  -7.762
REMARK INTRA:                  -0.428
REMARK UNBOUND:                -0.640
REMARK  Name = 
REMARK  6 active torsions:
REMARK  status: ('A' for Active; 'I' for Inactive)
REMARK    1  A    between atoms: C_1  and  O_2
REMARK    2  A    between atoms: O_2  and  C_3
REMARK    3  A    between atoms: C_5  and  C_6
REMARK    4  A    between atoms: C_6  and  N_7
REMARK    5  A    between atoms: C_12  and  C_13
REMARK    6  A    between atoms: C_21  and  O_22
REMARK                            x       y       z     vdW  Elec       q    Type
REMARK                         _______ _______ _______ _____ _____    ______ ____
ROOT
ATOM      1  N   UNL     1      47.870   6.700  13.023  0.00  0.00    +0.000 N 
ATOM      2  C   UNL     1      48.457   7.813  13.578  0.00  0.00    +0.000 A 
ATOM      3  C   UNL     1      48.701   7.552  14.905  0.00  0.00    +0.000 A 
ATOM      4  C   UNL     1      48.241   6.237  15.180  0.00  0.00    +0.000 A 
ATOM      5  C   UNL     1      48.200   5.452  16.339  0.00  0.00    +0.000 A 
ATOM      6  C   UNL     1      47.646   4.187  16.211  0.00  0.00    +0.000 A 
ATOM      7  N   UNL     1      47.162   3.665  15.050  0.00  0.00    +0.000 NA
ATOM      8  C   UNL     1      47.208   4.423  13.929  0.00  0.00    +0.000 A 
ATOM      9  C   UNL     1      47.735   5.713  13.985  0.00  0.00    +0.000 A 
ENDROOT
BRANCH   6  10
ATOM     10  C   UNL     1      47.542   3.318  17.430  0.00  0.00    +0.000 C 
ATOM     11  N   UNL     1      48.587   3.395  18.310  0.00  0.00    +0.000 N 
ATOM     12  O   UNL     1      46.588   2.574  17.635  0.00  0.00    +0.000 OA
ATOM     13  H   UNL     1      49.368   4.008  18.113  0.00  0.00    +0.000 HD
ATOM     14  H   UNL     1      48.578   2.819  19.140  0.00  0.00    +0.000 HD
ENDBRANCH   6  10
BRANCH   1  15
ATOM     15  C   UNL     1      47.342   6.661  11.660  0.00  0.00    +0.000 C 
BRANCH  15  18
ATOM     16  C   UNL     1      44.075   4.878  10.781  0.00  0.00    +0.000 A 
ATOM     17  C   UNL     1      45.434   5.203  10.862  0.00  0.00    +0.000 A 
ATOM     18  C   UNL     1      45.877   6.303  11.618  0.00  0.00    +0.000 A 
ATOM     19  C   UNL     1      44.931   7.060  12.326  0.00  0.00    +0.000 A 
ATOM     20  C   UNL     1      43.574   6.735  12.267  0.00  0.00    +0.000 A 
ATOM     21  C   UNL     1      43.152   5.657  11.491  0.00  0.00    +0.000 A 
BRANCH  16  23
ATOM     22  C   UNL     1      44.433   2.765   9.735  0.00  0.00    +0.000 C 
ATOM     23  O   UNL     1      43.562   3.843  10.044  0.00  0.00    +0.000 OA
ENDBRANCH  16  23
BRANCH  21  24
ATOM     24  O   UNL     1      41.819   5.351  11.416  0.00  0.00    +0.000 OA
ATOM     25  H   UNL     1      41.562   5.272  10.485  0.00  0.00    +0.000 HD
ENDBRANCH  21  24
ENDBRANCH  15  18
ENDBRANCH   1  15
TORSDOF 5
ENDMDL
MODEL 7
REMARK VINA RESULT:    -5.871      4.135      8.349
REMARK INTER + INTRA:          -8.056
REMARK INTER:                  -7.410
REMARK INTRA:                  -0.646
REMARK UNBOUND:                -0.640
REMARK  Name = 
REMARK  6 active torsions:
REMARK  status: ('A' for Active; 'I' for Inactive)
REMARK    1  A    between atoms: C_1  and  O_2
REMARK    2  A    between atoms: O_2  and  C_3
REMARK    3  A    between atoms: C_5  and  C_6
REMARK    4  A    between atoms: C_6  and  N_7
REMARK    5  A    between atoms: C_12  and  C_13
REMARK    6  A    between atoms: C_21  and  O_22
REMARK                            x       y       z     vdW  Elec       q    Type
REMARK                         _______ _______ _______ _____ _____    ______ ____
ROOT
ATOM      1  N   UNL     1      47.498   7.093  13.744  0.00  0.00    +0.000 N 
ATOM      2  C   UNL     1      46.978   8.285  13.296  0.00  0.00    +0.000 A 
ATOM      3  C   UNL     1      45.788   8.022  12.660  0.00  0.00    +0.000 A 
ATOM      4  C   UNL     1      45.571   6.619  12.711  0.00  0.00    +0.000 A 
ATOM      5  C   UNL     1      44.563   5.781  12.219  0.00  0.00    +0.000 A 
ATOM      6  C   UNL     1      44.713   4.424  12.461  0.00  0.00    +0.000 A 
ATOM      7  N   UNL     1      45.750   3.867  13.147  0.00  0.00    +0.000 NA
ATOM      8  C   UNL     1      46.721   4.679  13.628  0.00  0.00    +0.000 A 
ATOM      9  C   UNL     1      46.647   6.055  13.406  0.00  0.00    +0.000 A 
ENDROOT
BRANCH   6  10
ATOM     10  C   UNL     1      43.681   3.476  11.923  0.00  0.00    +0.000 C 
ATOM     11  N   UNL     1      43.692   2.215  12.454  0.00  0.00    +0.000 N 
ATOM     12  O   UNL     1      42.876   3.795  11.054  0.00  0.00    +0.000 OA
ATOM     13  H   UNL     1      44.374   1.972  13.162  0.00  0.00    +0.000 HD
ATOM     14  H   UNL     1      43.031   1.530  12.117  0.00  0.00    +0.000 HD
ENDBRANCH   6  10
BRANCH   1  15
ATOM     15  C   UNL     1      48.825   6.966  14.345  0.00  0.00    +0.000 C 
BRANCH  15  18
ATOM     16  C   UNL     1      48.637   5.611  17.915  0.00  0.00    +0.000 A 
ATOM     17  C   UNL     1      48.723   5.678  16.520  0.00  0.00    +0.000 A 
ATOM     18  C   UNL     1      48.774   6.914  15.852  0.00  0.00    +0.000 A 
ATOM     19  C   UNL     1      48.775   8.093  16.613  0.00  0.00    +0.000 A 
ATOM     20  C   UNL     1      48.707   8.039  18.006  0.00  0.00    +0.000 A 
ATOM     21  C   UNL     1      48.629   6.804  18.649  0.00  0.00    +0.000 A 
BRANCH  16  23
ATOM     22  C   UNL     1      48.059   3.298  17.970  0.00  0.00    +0.000 C 
ATOM     23  O   UNL     1      48.553   4.450  18.638  0.00  0.00    +0.000 OA
ENDBRANCH  16  23
BRANCH  21  24
ATOM     24  O   UNL     1      48.543   6.751  20.015  0.00  0.00    +0.000 OA
ATOM     25  H   UNL     1      47.852   7.362  20.313  0.00  0.00    +0.000 HD
ENDBRANCH  21  24
ENDBRANCH  15  18
ENDBRANCH   1  15
TORSDOF 5
ENDMDL
MODEL 8
REMARK VINA RESULT:    -5.556      3.270      5.213
REMARK INTER + INTRA:          -7.658
REMARK INTER:                  -7.379
REMARK INTRA:                  -0.279
REMARK UNBOUND:                -0.640
REMARK  Name = 
REMARK  6 active torsions:
REMARK  status: ('A' for Active; 'I' for Inactive)
REMARK    1  A    between atoms: C_1  and  O_2
REMARK    2  A    between atoms: O_2  and  C_3
REMARK    3  A    between atoms: C_5  and  C_6
REMARK    4  A    between atoms: C_6  and  N_7
REMARK    5  A    between atoms: C_12  and  C_13
REMARK    6  A    between atoms: C_21  and  O_22
REMARK                            x       y       z     vdW  Elec       q    Type
REMARK                         _______ _______ _______ _____ _____    ______ ____
ROOT
ATOM      1  N   UNL     1      46.436   7.209  12.332  0.00  0.00    +0.000 N 
ATOM      2  C   UNL     1      47.149   6.100  12.725  0.00  0.00    +0.000 A 
ATOM      3  C   UNL     1      48.476   6.450  12.805  0.00  0.00    +0.000 A 
ATOM      4  C   UNL     1      48.585   7.818  12.442  0.00  0.00    +0.000 A 
ATOM      5  C   UNL     1      49.667   8.699  12.316  0.00  0.00    +0.000 A 
ATOM      6  C   UNL     1      49.370   9.992  11.911  0.00  0.00    +0.000 A 
ATOM      7  N   UNL     1      48.115  10.454  11.647  0.00  0.00    +0.000 NA
ATOM      8  C   UNL     1      47.070   9.603  11.776  0.00  0.00    +0.000 A 
ATOM      9  C   UNL     1      47.295   8.281  12.162  0.00  0.00    +0.000 A 
ENDROOT
BRANCH   6  10
ATOM     10  C   UNL     1      50.495  10.966  11.722  0.00  0.00    +0.000 C 
ATOM     11  N   UNL     1      50.766  11.325  10.430  0.00  0.00    +0.000 N 
ATOM     12  O   UNL     1      51.147  11.416  12.659  0.00  0.00    +0.000 OA
ATOM     13  H   UNL     1      50.221  10.931   9.672  0.00  0.00    +0.000 HD
ATOM     14  H   UNL     1      51.524  11.965  10.243  0.00  0.00    +0.000 HD
ENDBRANCH   6  10
BRANCH   1  15
ATOM     15  C   UNL     1      45.011   7.178  12.007  0.00  0.00    +0.000 C 
BRANCH  15  18
ATOM     16  C   UNL     1      44.006   3.761  10.614  0.00  0.00    +0.000 A 
ATOM     17  C   UNL     1      44.538   5.052  10.720  0.00  0.00    +0.000 A 
ATOM     18  C   UNL     1      44.468   5.772  11.924  0.00  0.00    +0.000 A 
ATOM     19  C   UNL     1      43.881   5.162  13.043  0.00  0.00    +0.000 A 
ATOM     20  C   UNL     1      43.362   3.868  12.955  0.00  0.00    +0.000 A 
ATOM     21  C   UNL     1      43.417   3.180  11.744  0.00  0.00    +0.000 A 
BRANCH  16  23
ATOM     22  C   UNL     1      45.190   2.280   9.168  0.00  0.00    +0.000 C 
ATOM     23  O   UNL     1      44.008   3.006   9.471  0.00  0.00    +0.000 OA
ENDBRANCH  16  23
BRANCH  21  24
ATOM     24  O   UNL     1      42.890   1.920  11.653  0.00  0.00    +0.000 OA
ATOM     25  H   UNL     1      42.630   1.750  10.735  0.00  0.00    +0.000 HD
ENDBRANCH  21  24
ENDBRANCH  15  18
ENDBRANCH   1  15
TORSDOF 5
ENDMDL
MODEL 9
REMARK VINA RESULT:    -5.391      3.959      8.944
REMARK INTER + INTRA:          -7.450
REMARK INTER:                  -6.832
REMARK INTRA:                  -0.618
REMARK UNBOUND:                -0.640
REMARK  Name = 
REMARK  6 active torsions:
REMARK  status: ('A' for Active; 'I' for Inactive)
REMARK    1  A    between atoms: C_1  and  O_2
REMARK    2  A    between atoms: O_2  and  C_3
REMARK    3  A    between atoms: C_5  and  C_6
REMARK    4  A    between atoms: C_6  and  N_7
REMARK    5  A    between atoms: C_12  and  C_13
REMARK    6  A    between atoms: C_21  and  O_22
REMARK                            x       y       z     vdW  Elec       q    Type
REMARK                         _______ _______ _______ _____ _____    ______ ____
ROOT
ATOM      1  N   UNL     1      47.809   6.825  13.729  0.00  0.00    +0.000 N 
ATOM      2  C   UNL     1      47.465   7.999  13.100  0.00  0.00    +0.000 A 
ATOM      3  C   UNL     1      46.346   7.764  12.337  0.00  0.00    +0.000 A 
ATOM      4  C   UNL     1      45.993   6.398  12.495  0.00  0.00    +0.000 A 
ATOM      5  C   UNL     1      44.980   5.595  11.955  0.00  0.00    +0.000 A 
ATOM      6  C   UNL     1      44.970   4.264  12.348  0.00  0.00    +0.000 A 
ATOM      7  N   UNL     1      45.855   3.704  13.219  0.00  0.00    +0.000 NA
ATOM      8  C   UNL     1      46.828   4.484  13.746  0.00  0.00    +0.000 A 
ATOM      9  C   UNL     1      46.913   5.828  13.382  0.00  0.00    +0.000 A 
ENDROOT
BRANCH   6  10
ATOM     10  C   UNL     1      43.930   3.350  11.770  0.00  0.00    +0.000 C 
ATOM     11  N   UNL     1      43.709   2.186  12.455  0.00  0.00    +0.000 N 
ATOM     12  O   UNL     1      43.313   3.612  10.742  0.00  0.00    +0.000 OA
ATOM     13  H   UNL     1      44.239   1.987  13.295  0.00  0.00    +0.000 HD
ATOM     14  H   UNL     1      43.032   1.525  12.102  0.00  0.00    +0.000 HD
ENDBRANCH   6  10
BRANCH   1  15
ATOM     15  C   UNL     1      49.031   6.659  14.514  0.00  0.00    +0.000 C 
BRANCH  15  18
ATOM     16  C   UNL     1      48.480   8.016  18.046  0.00  0.00    +0.000 A 
ATOM     17  C   UNL     1      48.680   7.948  16.663  0.00  0.00    +0.000 A 
ATOM     18  C   UNL     1      48.775   6.712  16.000  0.00  0.00    +0.000 A 
ATOM     19  C   UNL     1      48.630   5.533  16.747  0.00  0.00    +0.000 A 
ATOM     20  C   UNL     1      48.413   5.588  18.126  0.00  0.00    +0.000 A 
ATOM     21  C   UNL     1      48.349   6.823  18.769  0.00  0.00    +0.000 A 
BRANCH  16  23
ATOM     22  C   UNL     1      49.581   9.973  18.852  0.00  0.00    +0.000 C 
ATOM     23  O   UNL     1      48.407   9.178  18.769  0.00  0.00    +0.000 OA
ENDBRANCH  16  23
BRANCH  21  24
ATOM     24  O   UNL     1      48.157   6.877  20.123  0.00  0.00    +0.000 OA
ATOM     25  H   UNL     1      47.251   7.172  20.304  0.00  0.00    +0.000 HD
ENDBRANCH  21  24
ENDBRANCH  15  18
ENDBRANCH   1  15
TORSDOF 5
ENDMDL
