MODEL 1
REMARK VINA RESULT:    -8.486      0.000      0.000
REMARK INTER + INTRA:         -12.551
REMARK INTER:                 -11.463
REMARK INTRA:                  -1.087
REMARK UNBOUND:                -1.087
REMARK  Name = 
REMARK  6 active torsions:
REMARK  status: ('A' for Active; 'I' for Inactive)
REMARK    1  A    between atoms: C_5  and  C_6
REMARK    2  A    between atoms: C_6  and  N_7
REMARK    3  A    between atoms: N_7  and  C_8
REMARK    4  A    between atoms: C_12  and  C_13
REMARK    5  A    between atoms: C_19  and  C_20
REMARK    6  A    between atoms: C_24  and  C_25
REMARK                            x       y       z     vdW  Elec       q    Type
REMARK                         _______ _______ _______ _____ _____    ______ ____
ROOT
ATOM      1  F   UNL     1      47.885   5.749  14.181  0.00  0.00    +0.000 F 
ATOM      2  C   UNL     1      46.871   5.571  13.320  0.00  0.00    +0.000 A 
ATOM      3  C   UNL     1      46.081   4.434  13.489  0.00  0.00    +0.000 A 
ATOM      4  C   UNL     1      45.002   4.202  12.641  0.00  0.00    +0.000 A 
ATOM      5  C   UNL     1      44.715   5.102  11.608  0.00  0.00    +0.000 A 
ATOM      6  C   UNL     1      45.523   6.247  11.456  0.00  0.00    +0.000 A 
ATOM      7  C   UNL     1      46.625   6.508  12.300  0.00  0.00    +0.000 A 
ENDROOT
BRANCH   7   8
ATOM      8  C   UNL     1      47.481   7.705  12.096  0.00  0.00    +0.000 A 
ATOM      9  C   UNL     1      46.973   9.003  12.237  0.00  0.00    +0.000 A 
ATOM     10  C   UNL     1      47.799  10.093  12.007  0.00  0.00    +0.000 A 
ATOM     11  N   UNL     1      49.096   9.991  11.660  0.00  0.00    +0.000 NA
ATOM     12  C   UNL     1      49.614   8.739  11.530  0.00  0.00    +0.000 A 
ATOM     13  C   UNL     1      48.834   7.595  11.732  0.00  0.00    +0.000 A 
BRANCH  12  14
ATOM     14  C   UNL     1      51.079   8.565  11.151  0.00  0.00    +0.000 C 
ATOM     15  F   UNL     1      51.356   7.410  10.482  0.00  0.00    +0.000 F 
ATOM     16  F   UNL     1      51.537   9.573  10.352  0.00  0.00    +0.000 F 
ATOM     17  F   UNL     1      51.901   8.566  12.242  0.00  0.00    +0.000 F 
ENDBRANCH  12  14
ENDBRANCH   7   8
BRANCH   5  18
ATOM     18  C   UNL     1      43.555   4.846  10.670  0.00  0.00    +0.000 C 
BRANCH  18  19
ATOM     19  N   UNL     1      44.027   4.829   9.291  0.00  0.00    +0.000 N 
ATOM     20  H   UNL     1      44.530   5.681   9.052  0.00  0.00    +0.000 HD
BRANCH  19  21
ATOM     21  C   UNL     1      44.678   3.682   8.819  0.00  0.00    +0.000 A 
ATOM     22  C   UNL     1      44.484   2.442   9.438  0.00  0.00    +0.000 A 
ATOM     23  N   UNL     1      45.107   1.287   9.097  0.00  0.00    +0.000 NA
ATOM     24  C   UNL     1      46.022   1.360   8.109  0.00  0.00    +0.000 A 
ATOM     25  C   UNL     1      46.343   2.535   7.450  0.00  0.00    +0.000 A 
ATOM     26  C   UNL     1      45.657   3.704   7.822  0.00  0.00    +0.000 A 
BRANCH  25  27
ATOM     27  C   UNL     1      47.397   2.554   6.389  0.00  0.00    +0.000 C 
ATOM     28  F   UNL     1      47.062   3.290   5.294  0.00  0.00    +0.000 F 
ATOM     29  F   UNL     1      48.576   3.069   6.837  0.00  0.00    +0.000 F 
ATOM     30  F   UNL     1      47.692   1.307   5.925  0.00  0.00    +0.000 F 
ENDBRANCH  25  27
ENDBRANCH  19  21
ENDBRANCH  18  19
ENDBRANCH   5  18
TORSDOF 6
ENDMDL
MODEL 2
REMARK VINA RESULT:    -8.275      2.869      4.766
REMARK INTER + INTRA:         -12.264
REMARK INTER:                 -11.435
REMARK INTRA:                  -0.830
REMARK UNBOUND:                -1.087
REMARK  Name = 
REMARK  6 active torsions:
REMARK  status: ('A' for Active; 'I' for Inactive)
REMARK    1  A    between atoms: C_5  and  C_6
REMARK    2  A    between atoms: C_6  and  N_7
REMARK    3  A    between atoms: N_7  and  C_8
REMARK    4  A    between atoms: C_12  and  C_13
REMARK    5  A    between atoms: C_19  and  C_20
REMARK    6  A    between atoms: C_24  and  C_25
REMARK                            x       y       z     vdW  Elec       q    Type
REMARK                         _______ _______ _______ _____ _____    ______ ____
ROOT
ATOM      1  F   UNL     1      49.374   7.144  12.981  0.00  0.00    +0.000 F 
ATOM      2  C   UNL     1      48.122   6.740  12.717  0.00  0.00    +0.000 A 
ATOM      3  C   UNL     1      47.611   7.028  11.452  0.00  0.00    +0.000 A 
ATOM      4  C   UNL     1      46.325   6.618  11.110  0.00  0.00    +0.000 A 
ATOM      5  C   UNL     1      45.538   5.928  12.038  0.00  0.00    +0.000 A 
ATOM      6  C   UNL     1      46.074   5.645  13.311  0.00  0.00    +0.000 A 
ATOM      7  C   UNL     1      47.374   6.048  13.687  0.00  0.00    +0.000 A 
ENDROOT
BRANCH   7   8
ATOM      8  C   UNL     1      47.901   5.766  15.047  0.00  0.00    +0.000 A 
ATOM      9  C   UNL     1      48.639   6.720  15.760  0.00  0.00    +0.000 A 
ATOM     10  C   UNL     1      49.140   6.405  17.014  0.00  0.00    +0.000 A 
ATOM     11  N   UNL     1      48.950   5.218  17.620  0.00  0.00    +0.000 NA
ATOM     12  C   UNL     1      48.225   4.280  16.952  0.00  0.00    +0.000 A 
ATOM     13  C   UNL     1      47.704   4.525  15.676  0.00  0.00    +0.000 A 
BRANCH  12  14
ATOM     14  C   UNL     1      47.970   2.923  17.595  0.00  0.00    +0.000 C 
ATOM     15  F   UNL     1      46.657   2.557  17.639  0.00  0.00    +0.000 F 
ATOM     16  F   UNL     1      48.615   1.908  16.949  0.00  0.00    +0.000 F 
ATOM     17  F   UNL     1      48.412   2.870  18.886  0.00  0.00    +0.000 F 
ENDBRANCH  12  14
ENDBRANCH   7   8
BRANCH   5  18
ATOM     18  C   UNL     1      44.131   5.498  11.679  0.00  0.00    +0.000 C 
BRANCH  18  19
ATOM     19  N   UNL     1      43.998   5.399  10.231  0.00  0.00    +0.000 N 
ATOM     20  H   UNL     1      44.323   6.242   9.762  0.00  0.00    +0.000 HD
BRANCH  19  21
ATOM     21  C   UNL     1      44.445   4.234   9.594  0.00  0.00    +0.000 A 
ATOM     22  C   UNL     1      44.141   2.971  10.114  0.00  0.00    +0.000 A 
ATOM     23  N   UNL     1      44.572   1.789   9.610  0.00  0.00    +0.000 NA
ATOM     24  C   UNL     1      45.399   1.848   8.546  0.00  0.00    +0.000 A 
ATOM     25  C   UNL     1      45.816   3.036   7.967  0.00  0.00    +0.000 A 
ATOM     26  C   UNL     1      45.328   4.237   8.511  0.00  0.00    +0.000 A 
BRANCH  25  27
ATOM     27  C   UNL     1      46.766   3.032   6.813  0.00  0.00    +0.000 C 
ATOM     28  F   UNL     1      48.054   2.764   7.161  0.00  0.00    +0.000 F 
ATOM     29  F   UNL     1      46.435   2.107   5.870  0.00  0.00    +0.000 F 
ATOM     30  F   UNL     1      46.798   4.229   6.161  0.00  0.00    +0.000 F 
ENDBRANCH  25  27
ENDBRANCH  19  21
ENDBRANCH  18  19
ENDBRANCH   5  18
TORSDOF 6
ENDMDL
MODEL 3
REMARK VINA RESULT:    -7.967      3.517      8.119
REMARK INTER + INTRA:         -11.849
REMARK INTER:                 -10.594
REMARK INTRA:                  -1.255
REMARK UNBOUND:                -1.087
REMARK  Name = 
REMARK  6 active torsions:
REMARK  status: ('A' for Active; 'I' for Inactive)
REMARK    1  A    between atoms: C_5  and  C_6
REMARK    2  A    between atoms: C_6  and  N_7
REMARK    3  A    between atoms: N_7  and  C_8
REMARK    4  A    between atoms: C_12  and  C_13
REMARK    5  A    between atoms: C_19  and  C_20
REMARK    6  A    between atoms: C_24  and  C_25
REMARK                            x       y       z     vdW  Elec       q    Type
REMARK                         _______ _______ _______ _____ _____    ______ ____
ROOT
ATOM      1  F   UNL     1      44.036   7.987  11.069  0.00  0.00    +0.000 F 
ATOM      2  C   UNL     1      45.155   7.837  11.795  0.00  0.00    +0.000 A 
ATOM      3  C   UNL     1      45.846   8.994  12.150  0.00  0.00    +0.000 A 
ATOM      4  C   UNL     1      47.004   8.907  12.920  0.00  0.00    +0.000 A 
ATOM      5  C   UNL     1      47.484   7.657  13.326  0.00  0.00    +0.000 A 
ATOM      6  C   UNL     1      46.769   6.499  12.958  0.00  0.00    +0.000 A 
ATOM      7  C   UNL     1      45.593   6.556  12.179  0.00  0.00    +0.000 A 
ENDROOT
BRANCH   7   8
ATOM      8  C   UNL     1      44.879   5.317  11.777  0.00  0.00    +0.000 A 
ATOM      9  C   UNL     1      43.897   4.739  12.592  0.00  0.00    +0.000 A 
ATOM     10  C   UNL     1      43.276   3.565  12.194  0.00  0.00    +0.000 A 
ATOM     11  N   UNL     1      43.546   2.929  11.038  0.00  0.00    +0.000 NA
ATOM     12  C   UNL     1      44.488   3.480  10.224  0.00  0.00    +0.000 A 
ATOM     13  C   UNL     1      45.165   4.654  10.571  0.00  0.00    +0.000 A 
BRANCH  12  14
ATOM     14  C   UNL     1      44.825   2.809   8.899  0.00  0.00    +0.000 C 
ATOM     15  F   UNL     1      44.287   3.418   7.804  0.00  0.00    +0.000 F 
ATOM     16  F   UNL     1      46.169   2.753   8.668  0.00  0.00    +0.000 F 
ATOM     17  F   UNL     1      44.394   1.513   8.849  0.00  0.00    +0.000 F 
ENDBRANCH  12  14
ENDBRANCH   7   8
BRANCH   5  18
ATOM     18  C   UNL     1      48.753   7.554  14.145  0.00  0.00    +0.000 C 
BRANCH  18  19
ATOM     19  N   UNL     1      48.444   7.723  15.560  0.00  0.00    +0.000 N 
ATOM     20  H   UNL     1      47.531   8.149  15.700  0.00  0.00    +0.000 HD
BRANCH  19  21
ATOM     21  C   UNL     1      48.664   6.646  16.428  0.00  0.00    +0.000 A 
ATOM     22  C   UNL     1      49.422   6.807  17.594  0.00  0.00    +0.000 A 
ATOM     23  N   UNL     1      49.741   5.821  18.466  0.00  0.00    +0.000 NA
ATOM     24  C   UNL     1      49.329   4.575  18.152  0.00  0.00    +0.000 A 
ATOM     25  C   UNL     1      48.616   4.274  17.003  0.00  0.00    +0.000 A 
ATOM     26  C   UNL     1      48.290   5.332  16.137  0.00  0.00    +0.000 A 
BRANCH  25  27
ATOM     27  C   UNL     1      48.224   2.864  16.694  0.00  0.00    +0.000 C 
ATOM     28  F   UNL     1      49.252   1.976  16.781  0.00  0.00    +0.000 F 
ATOM     29  F   UNL     1      47.257   2.398  17.532  0.00  0.00    +0.000 F 
ATOM     30  F   UNL     1      47.720   2.728  15.435  0.00  0.00    +0.000 F 
ENDBRANCH  25  27
ENDBRANCH  19  21
ENDBRANCH  18  19
ENDBRANCH   5  18
TORSDOF 6
ENDMDL
MODEL 4
REMARK VINA RESULT:    -7.855      3.218      4.931
REMARK INTER + INTRA:         -11.697
REMARK INTER:                 -10.798
REMARK INTRA:                  -0.899
REMARK UNBOUND:                -1.087
REMARK  Name = 
REMARK  6 active torsions:
REMARK  status: ('A' for Active; 'I' for Inactive)
REMARK    1  A    between atoms: C_5  and  C_6
REMARK    2  A    between atoms: C_6  and  N_7
REMARK    3  A    between atoms: N_7  and  C_8
REMARK    4  A    between atoms: C_12  and  C_13
REMARK    5  A    between atoms: C_19  and  C_20
REMARK    6  A    between atoms: C_24  and  C_25
REMARK                            x       y       z     vdW  Elec       q    Type
REMARK                         _______ _______ _______ _____ _____    ______ ____
ROOT
ATOM      1  F   UNL     1      49.582   6.841  14.321  0.00  0.00    +0.000 F 
ATOM      2  C   UNL     1      48.431   6.593  13.678  0.00  0.00    +0.000 A 
ATOM      3  C   UNL     1      48.217   7.258  12.472  0.00  0.00    +0.000 A 
ATOM      4  C   UNL     1      47.050   7.029  11.746  0.00  0.00    +0.000 A 
ATOM      5  C   UNL     1      46.084   6.141  12.233  0.00  0.00    +0.000 A 
ATOM      6  C   UNL     1      46.320   5.477  13.454  0.00  0.00    +0.000 A 
ATOM      7  C   UNL     1      47.493   5.690  14.211  0.00  0.00    +0.000 A 
ENDROOT
BRANCH   7   8
ATOM      8  C   UNL     1      47.701   5.002  15.512  0.00  0.00    +0.000 A 
ATOM      9  C   UNL     1      47.471   3.628  15.660  0.00  0.00    +0.000 A 
ATOM     10  C   UNL     1      47.647   3.031  16.899  0.00  0.00    +0.000 A 
ATOM     11  N   UNL     1      48.049   3.694  18.000  0.00  0.00    +0.000 NA
ATOM     12  C   UNL     1      48.291   5.028  17.877  0.00  0.00    +0.000 A 
ATOM     13  C   UNL     1      48.118   5.697  16.660  0.00  0.00    +0.000 A 
BRANCH  12  14
ATOM     14  C   UNL     1      48.760   5.825  19.087  0.00  0.00    +0.000 C 
ATOM     15  F   UNL     1      48.860   7.168  18.874  0.00  0.00    +0.000 F 
ATOM     16  F   UNL     1      47.929   5.682  20.161  0.00  0.00    +0.000 F 
ATOM     17  F   UNL     1      49.991   5.428  19.525  0.00  0.00    +0.000 F 
ENDBRANCH  12  14
ENDBRANCH   7   8
BRANCH   5  18
ATOM     18  C   UNL     1      44.804   5.903  11.459  0.00  0.00    +0.000 C 
BRANCH  18  19
ATOM     19  N   UNL     1      45.104   5.751  10.041  0.00  0.00    +0.000 N 
ATOM     20  H   UNL     1      45.915   6.300   9.764  0.00  0.00    +0.000 HD
BRANCH  19  21
ATOM     21  C   UNL     1      45.127   4.462   9.494  0.00  0.00    +0.000 A 
ATOM     22  C   UNL     1      44.435   3.411  10.106  0.00  0.00    +0.000 A 
ATOM     23  N   UNL     1      44.440   2.121   9.692  0.00  0.00    +0.000 NA
ATOM     24  C   UNL     1      45.216   1.827   8.629  0.00  0.00    +0.000 A 
ATOM     25  C   UNL     1      45.988   2.765   7.964  0.00  0.00    +0.000 A 
ATOM     26  C   UNL     1      45.936   4.095   8.415  0.00  0.00    +0.000 A 
BRANCH  25  27
ATOM     27  C   UNL     1      46.858   2.365   6.816  0.00  0.00    +0.000 C 
ATOM     28  F   UNL     1      46.385   2.762   5.603  0.00  0.00    +0.000 F 
ATOM     29  F   UNL     1      48.115   2.879   6.912  0.00  0.00    +0.000 F 
ATOM     30  F   UNL     1      47.017   1.014   6.729  0.00  0.00    +0.000 F 
ENDBRANCH  25  27
ENDBRANCH  19  21
ENDBRANCH  18  19
ENDBRANCH   5  18
TORSDOF 6
ENDMDL
MODEL 5
REMARK VINA RESULT:    -7.848      2.432      3.292
REMARK INTER + INTRA:         -11.689
REMARK INTER:                 -11.134
REMARK INTRA:                  -0.555
REMARK UNBOUND:                -1.087
REMARK  Name = 
REMARK  6 active torsions:
REMARK  status: ('A' for Active; 'I' for Inactive)
REMARK    1  A    between atoms: C_5  and  C_6
REMARK    2  A    between atoms: C_6  and  N_7
REMARK    3  A    between atoms: N_7  and  C_8
REMARK    4  A    between atoms: C_12  and  C_13
REMARK    5  A    between atoms: C_19  and  C_20
REMARK    6  A    between atoms: C_24  and  C_25
REMARK                            x       y       z     vdW  Elec       q    Type
REMARK                         _______ _______ _______ _____ _____    ______ ____
ROOT
ATOM      1  F   UNL     1      45.583   8.789  12.211  0.00  0.00    +0.000 F 
ATOM      2  C   UNL     1      45.317   7.474  12.184  0.00  0.00    +0.000 A 
ATOM      3  C   UNL     1      44.037   7.090  11.788  0.00  0.00    +0.000 A 
ATOM      4  C   UNL     1      43.703   5.739  11.720  0.00  0.00    +0.000 A 
ATOM      5  C   UNL     1      44.648   4.765  12.063  0.00  0.00    +0.000 A 
ATOM      6  C   UNL     1      45.937   5.174  12.459  0.00  0.00    +0.000 A 
ATOM      7  C   UNL     1      46.304   6.536  12.538  0.00  0.00    +0.000 A 
ENDROOT
BRANCH   7   8
ATOM      8  C   UNL     1      47.659   6.940  12.991  0.00  0.00    +0.000 A 
ATOM      9  C   UNL     1      48.565   7.568  12.126  0.00  0.00    +0.000 A 
ATOM     10  C   UNL     1      49.832   7.901  12.581  0.00  0.00    +0.000 A 
ATOM     11  N   UNL     1      50.263   7.670  13.835  0.00  0.00    +0.000 NA
ATOM     12  C   UNL     1      49.396   7.072  14.697  0.00  0.00    +0.000 A 
ATOM     13  C   UNL     1      48.108   6.695  14.300  0.00  0.00    +0.000 A 
BRANCH  12  14
ATOM     14  C   UNL     1      49.827   6.797  16.131  0.00  0.00    +0.000 C 
ATOM     15  F   UNL     1      51.087   6.293  16.256  0.00  0.00    +0.000 F 
ATOM     16  F   UNL     1      49.799   7.918  16.910  0.00  0.00    +0.000 F 
ATOM     17  F   UNL     1      49.007   5.900  16.757  0.00  0.00    +0.000 F 
ENDBRANCH  12  14
ENDBRANCH   7   8
BRANCH   5  18
ATOM     18  C   UNL     1      44.285   3.296  12.011  0.00  0.00    +0.000 C 
BRANCH  18  19
ATOM     19  N   UNL     1      43.825   2.946  10.673  0.00  0.00    +0.000 N 
ATOM     20  H   UNL     1      42.914   3.350  10.468  0.00  0.00    +0.000 HD
BRANCH  19  21
ATOM     21  C   UNL     1      44.717   3.080   9.601  0.00  0.00    +0.000 A 
ATOM     22  C   UNL     1      44.867   4.307   8.943  0.00  0.00    +0.000 A 
ATOM     23  N   UNL     1      45.656   4.528   7.863  0.00  0.00    +0.000 NA
ATOM     24  C   UNL     1      46.310   3.460   7.360  0.00  0.00    +0.000 A 
ATOM     25  C   UNL     1      46.207   2.183   7.887  0.00  0.00    +0.000 A 
ATOM     26  C   UNL     1      45.393   2.005   9.020  0.00  0.00    +0.000 A 
BRANCH  25  27
ATOM     27  C   UNL     1      46.927   1.035   7.257  0.00  0.00    +0.000 C 
ATOM     28  F   UNL     1      46.597  -0.177   7.781  0.00  0.00    +0.000 F 
ATOM     29  F   UNL     1      46.686   0.941   5.920  0.00  0.00    +0.000 F 
ATOM     30  F   UNL     1      48.281   1.137   7.381  0.00  0.00    +0.000 F 
ENDBRANCH  25  27
ENDBRANCH  19  21
ENDBRANCH  18  19
ENDBRANCH   5  18
TORSDOF 6
ENDMDL
MODEL 6
REMARK VINA RESULT:    -7.515      1.517      2.240
REMARK INTER + INTRA:         -11.238
REMARK INTER:                 -10.268
REMARK INTRA:                  -0.970
REMARK UNBOUND:                -1.087
REMARK  Name = 
REMARK  6 active torsions:
REMARK  status: ('A' for Active; 'I' for Inactive)
REMARK    1  A    between atoms: C_5  and  C_6
REMARK    2  A    between atoms: C_6  and  N_7
REMARK    3  A    between atoms: N_7  and  C_8
REMARK    4  A    between atoms: C_12  and  C_13
REMARK    5  A    between atoms: C_19  and  C_20
REMARK    6  A    between atoms: C_24  and  C_25
REMARK                            x       y       z     vdW  Elec       q    Type
REMARK                         _______ _______ _______ _____ _____    ______ ____
ROOT
ATOM      1  F   UNL     1      46.891  10.299  12.620  0.00  0.00    +0.000 F 
ATOM      2  C   UNL     1      46.415   9.096  12.267  0.00  0.00    +0.000 A 
ATOM      3  C   UNL     1      45.045   8.997  12.026  0.00  0.00    +0.000 A 
ATOM      4  C   UNL     1      44.491   7.779  11.638  0.00  0.00    +0.000 A 
ATOM      5  C   UNL     1      45.306   6.650  11.502  0.00  0.00    +0.000 A 
ATOM      6  C   UNL     1      46.688   6.771  11.747  0.00  0.00    +0.000 A 
ATOM      7  C   UNL     1      47.278   7.992  12.143  0.00  0.00    +0.000 A 
ENDROOT
BRANCH   7   8
ATOM      8  C   UNL     1      48.733   8.084  12.430  0.00  0.00    +0.000 A 
ATOM      9  C   UNL     1      49.213   8.306  13.727  0.00  0.00    +0.000 A 
ATOM     10  C   UNL     1      50.578   8.416  13.946  0.00  0.00    +0.000 A 
ATOM     11  N   UNL     1      51.504   8.308  12.975  0.00  0.00    +0.000 NA
ATOM     12  C   UNL     1      51.061   8.079  11.708  0.00  0.00    +0.000 A 
ATOM     13  C   UNL     1      49.697   7.973  11.413  0.00  0.00    +0.000 A 
BRANCH  12  14
ATOM     14  C   UNL     1      52.066   7.937  10.572  0.00  0.00    +0.000 C 
ATOM     15  F   UNL     1      51.686   7.074   9.587  0.00  0.00    +0.000 F 
ATOM     16  F   UNL     1      52.319   9.124   9.946  0.00  0.00    +0.000 F 
ATOM     17  F   UNL     1      53.281   7.490  11.007  0.00  0.00    +0.000 F 
ENDBRANCH  12  14
ENDBRANCH   7   8
BRANCH   5  18
ATOM     18  C   UNL     1      44.707   5.319  11.099  0.00  0.00    +0.000 C 
BRANCH  18  19
ATOM     19  N   UNL     1      44.693   5.201   9.646  0.00  0.00    +0.000 N 
ATOM     20  H   UNL     1      45.163   5.984   9.198  0.00  0.00    +0.000 HD
BRANCH  19  21
ATOM     21  C   UNL     1      45.045   3.974   9.069  0.00  0.00    +0.000 A 
ATOM     22  C   UNL     1      44.611   2.767   9.630  0.00  0.00    +0.000 A 
ATOM     23  N   UNL     1      44.941   1.530   9.186  0.00  0.00    +0.000 NA
ATOM     24  C   UNL     1      45.797   1.467   8.144  0.00  0.00    +0.000 A 
ATOM     25  C   UNL     1      46.337   2.585   7.531  0.00  0.00    +0.000 A 
ATOM     26  C   UNL     1      45.950   3.849   8.012  0.00  0.00    +0.000 A 
BRANCH  25  27
ATOM     27  C   UNL     1      47.311   2.445   6.406  0.00  0.00    +0.000 C 
ATOM     28  F   UNL     1      47.372   1.189   5.885  0.00  0.00    +0.000 F 
ATOM     29  F   UNL     1      47.020   3.268   5.361  0.00  0.00    +0.000 F 
ATOM     30  F   UNL     1      48.585   2.756   6.777  0.00  0.00    +0.000 F 
ENDBRANCH  25  27
ENDBRANCH  19  21
ENDBRANCH  18  19
ENDBRANCH   5  18
TORSDOF 6
ENDMDL
MODEL 7
REMARK VINA RESULT:    -7.507      3.476      5.503
REMARK INTER + INTRA:         -11.228
REMARK INTER:                 -10.031
REMARK INTRA:                  -1.196
REMARK UNBOUND:                -1.087
REMARK  Name = 
REMARK  6 active torsions:
REMARK  status: ('A' for Active; 'I' for Inactive)
REMARK    1  A    between atoms: C_5  and  C_6
REMARK    2  A    between atoms: C_6  and  N_7
REMARK    3  A    between atoms: N_7  and  C_8
REMARK    4  A    between atoms: C_12  and  C_13
REMARK    5  A    between atoms: C_19  and  C_20
REMARK    6  A    between atoms: C_24  and  C_25
REMARK                            x       y       z     vdW  Elec       q    Type
REMARK                         _______ _______ _______ _____ _____    ______ ____
ROOT
ATOM      1  F   UNL     1      50.629   7.387  13.920  0.00  0.00    +0.000 F 
ATOM      2  C   UNL     1      49.371   7.401  13.455  0.00  0.00    +0.000 A 
ATOM      3  C   UNL     1      49.171   7.903  12.170  0.00  0.00    +0.000 A 
ATOM      4  C   UNL     1      47.891   7.927  11.621  0.00  0.00    +0.000 A 
ATOM      5  C   UNL     1      46.801   7.460  12.364  0.00  0.00    +0.000 A 
ATOM      6  C   UNL     1      47.024   6.955  13.660  0.00  0.00    +0.000 A 
ATOM      7  C   UNL     1      48.310   6.918  14.243  0.00  0.00    +0.000 A 
ENDROOT
BRANCH   7   8
ATOM      8  C   UNL     1      48.512   6.412  15.625  0.00  0.00    +0.000 A 
ATOM      9  C   UNL     1      49.031   7.229  16.637  0.00  0.00    +0.000 A 
ATOM     10  C   UNL     1      49.233   6.708  17.906  0.00  0.00    +0.000 A 
ATOM     11  N   UNL     1      48.946   5.438  18.249  0.00  0.00    +0.000 NA
ATOM     12  C   UNL     1      48.428   4.629  17.285  0.00  0.00    +0.000 A 
ATOM     13  C   UNL     1      48.214   5.085  15.979  0.00  0.00    +0.000 A 
BRANCH  12  14
ATOM     14  C   UNL     1      48.073   3.187  17.621  0.00  0.00    +0.000 C 
ATOM     15  F   UNL     1      48.705   2.256  16.851  0.00  0.00    +0.000 F 
ATOM     16  F   UNL     1      48.372   2.862  18.913  0.00  0.00    +0.000 F 
ATOM     17  F   UNL     1      46.738   2.935  17.483  0.00  0.00    +0.000 F 
ENDBRANCH  12  14
ENDBRANCH   7   8
BRANCH   5  18
ATOM     18  C   UNL     1      45.404   7.503  11.782  0.00  0.00    +0.000 C 
BRANCH  18  19
ATOM     19  N   UNL     1      44.507   6.680  12.585  0.00  0.00    +0.000 N 
ATOM     20  H   UNL     1      43.673   7.192  12.865  0.00  0.00    +0.000 HD
BRANCH  19  21
ATOM     21  C   UNL     1      44.209   5.385  12.145  0.00  0.00    +0.000 A 
ATOM     22  C   UNL     1      43.709   4.424  13.030  0.00  0.00    +0.000 A 
ATOM     23  N   UNL     1      43.444   3.131  12.720  0.00  0.00    +0.000 NA
ATOM     24  C   UNL     1      43.735   2.737  11.462  0.00  0.00    +0.000 A 
ATOM     25  C   UNL     1      44.280   3.576  10.505  0.00  0.00    +0.000 A 
ATOM     26  C   UNL     1      44.519   4.914  10.866  0.00  0.00    +0.000 A 
BRANCH  25  27
ATOM     27  C   UNL     1      44.616   3.065   9.141  0.00  0.00    +0.000 C 
ATOM     28  F   UNL     1      44.228   3.893   8.133  0.00  0.00    +0.000 F 
ATOM     29  F   UNL     1      45.954   2.875   8.972  0.00  0.00    +0.000 F 
ATOM     30  F   UNL     1      44.036   1.860   8.879  0.00  0.00    +0.000 F 
ENDBRANCH  25  27
ENDBRANCH  19  21
ENDBRANCH  18  19
ENDBRANCH   5  18
TORSDOF 6
ENDMDL
MODEL 8
REMARK VINA RESULT:    -7.107      3.950      8.099
REMARK INTER + INTRA:         -10.687
REMARK INTER:                  -9.217
REMARK INTRA:                  -1.471
REMARK UNBOUND:                -1.087
REMARK  Name = 
REMARK  6 active torsions:
REMARK  status: ('A' for Active; 'I' for Inactive)
REMARK    1  A    between atoms: C_5  and  C_6
REMARK    2  A    between atoms: C_6  and  N_7
REMARK    3  A    between atoms: N_7  and  C_8
REMARK    4  A    between atoms: C_12  and  C_13
REMARK    5  A    between atoms: C_19  and  C_20
REMARK    6  A    between atoms: C_24  and  C_25
REMARK                            x       y       z     vdW  Elec       q    Type
REMARK                         _______ _______ _______ _____ _____    ______ ____
ROOT
ATOM      1  F   UNL     1      49.042   7.538  10.880  0.00  0.00    +0.000 F 
ATOM      2  C   UNL     1      49.083   7.783  12.199  0.00  0.00    +0.000 A 
ATOM      3  C   UNL     1      50.259   8.329  12.711  0.00  0.00    +0.000 A 
ATOM      4  C   UNL     1      50.358   8.624  14.068  0.00  0.00    +0.000 A 
ATOM      5  C   UNL     1      49.282   8.360  14.924  0.00  0.00    +0.000 A 
ATOM      6  C   UNL     1      48.102   7.810  14.386  0.00  0.00    +0.000 A 
ATOM      7  C   UNL     1      47.972   7.499  13.015  0.00  0.00    +0.000 A 
ENDROOT
BRANCH   7   8
ATOM      8  C   UNL     1      46.728   6.888  12.480  0.00  0.00    +0.000 A 
ATOM      9  C   UNL     1      45.702   7.670  11.935  0.00  0.00    +0.000 A 
ATOM     10  C   UNL     1      44.544   7.062  11.475  0.00  0.00    +0.000 A 
ATOM     11  N   UNL     1      44.333   5.733  11.504  0.00  0.00    +0.000 NA
ATOM     12  C   UNL     1      45.322   4.951  12.018  0.00  0.00    +0.000 A 
ATOM     13  C   UNL     1      46.510   5.500  12.514  0.00  0.00    +0.000 A 
BRANCH  12  14
ATOM     14  C   UNL     1      45.142   3.440  12.063  0.00  0.00    +0.000 C 
ATOM     15  F   UNL     1      45.191   2.828  10.846  0.00  0.00    +0.000 F 
ATOM     16  F   UNL     1      46.093   2.823  12.825  0.00  0.00    +0.000 F 
ATOM     17  F   UNL     1      43.945   3.076  12.612  0.00  0.00    +0.000 F 
ENDBRANCH  12  14
ENDBRANCH   7   8
BRANCH   5  18
ATOM     18  C   UNL     1      49.391   8.659  16.404  0.00  0.00    +0.000 C 
BRANCH  18  19
ATOM     19  N   UNL     1      48.373   7.915  17.136  0.00  0.00    +0.000 N 
ATOM     20  H   UNL     1      47.472   7.941  16.664  0.00  0.00    +0.000 HD
BRANCH  19  21
ATOM     21  C   UNL     1      48.687   6.633  17.605  0.00  0.00    +0.000 A 
ATOM     22  C   UNL     1      49.626   6.454  18.628  0.00  0.00    +0.000 A 
ATOM     23  N   UNL     1      50.042   5.258  19.112  0.00  0.00    +0.000 NA
ATOM     24  C   UNL     1      49.539   4.155  18.521  0.00  0.00    +0.000 A 
ATOM     25  C   UNL     1      48.641   4.196  17.467  0.00  0.00    +0.000 A 
ATOM     26  C   UNL     1      48.221   5.457  17.011  0.00  0.00    +0.000 A 
BRANCH  25  27
ATOM     27  C   UNL     1      48.152   2.935  16.830  0.00  0.00    +0.000 C 
ATOM     28  F   UNL     1      47.630   3.113  15.586  0.00  0.00    +0.000 F 
ATOM     29  F   UNL     1      49.139   2.006  16.690  0.00  0.00    +0.000 F 
ATOM     30  F   UNL     1      47.175   2.327  17.560  0.00  0.00    +0.000 F 
ENDBRANCH  25  27
ENDBRANCH  19  21
ENDBRANCH  18  19
ENDBRANCH   5  18
TORSDOF 6
ENDMDL
MODEL 9
REMARK VINA RESULT:    -6.889      2.249      3.567
REMARK INTER + INTRA:         -10.393
REMARK INTER:                  -9.233
REMARK INTRA:                  -1.160
REMARK UNBOUND:                -1.087
REMARK  Name = 
REMARK  6 active torsions:
REMARK  status: ('A' for Active; 'I' for Inactive)
REMARK    1  A    between atoms: C_5  and  C_6
REMARK    2  A    between atoms: C_6  and  N_7
REMARK    3  A    between atoms: N_7  and  C_8
REMARK    4  A    between atoms: C_12  and  C_13
REMARK    5  A    between atoms: C_19  and  C_20
REMARK    6  A    between atoms: C_24  and  C_25
REMARK                            x       y       z     vdW  Elec       q    Type
REMARK                         _______ _______ _______ _____ _____    ______ ____
ROOT
ATOM      1  F   UNL     1      50.772   7.424  14.293  0.00  0.00    +0.000 F 
ATOM      2  C   UNL     1      49.588   7.424  13.661  0.00  0.00    +0.000 A 
ATOM      3  C   UNL     1      48.475   7.008  14.391  0.00  0.00    +0.000 A 
ATOM      4  C   UNL     1      47.215   7.004  13.799  0.00  0.00    +0.000 A 
ATOM      5  C   UNL     1      47.064   7.403  12.466  0.00  0.00    +0.000 A 
ATOM      6  C   UNL     1      48.201   7.822  11.747  0.00  0.00    +0.000 A 
ATOM      7  C   UNL     1      49.492   7.836  12.320  0.00  0.00    +0.000 A 
ENDROOT
BRANCH   7   8
ATOM      8  C   UNL     1      50.678   8.250  11.527  0.00  0.00    +0.000 A 
ATOM      9  C   UNL     1      51.268   9.510  11.692  0.00  0.00    +0.000 A 
ATOM     10  C   UNL     1      52.355   9.868  10.911  0.00  0.00    +0.000 A 
ATOM     11  N   UNL     1      52.912   9.063   9.986  0.00  0.00    +0.000 NA
ATOM     12  C   UNL     1      52.364   7.829   9.818  0.00  0.00    +0.000 A 
ATOM     13  C   UNL     1      51.255   7.408  10.561  0.00  0.00    +0.000 A 
BRANCH  12  14
ATOM     14  C   UNL     1      52.961   6.872   8.794  0.00  0.00    +0.000 C 
ATOM     15  F   UNL     1      54.052   7.357   8.136  0.00  0.00    +0.000 F 
ATOM     16  F   UNL     1      53.360   5.691   9.352  0.00  0.00    +0.000 F 
ATOM     17  F   UNL     1      52.066   6.529   7.821  0.00  0.00    +0.000 F 
ENDBRANCH  12  14
ENDBRANCH   7   8
BRANCH   5  18
ATOM     18  C   UNL     1      45.700   7.381  11.810  0.00  0.00    +0.000 C 
BRANCH  18  19
ATOM     19  N   UNL     1      44.897   6.302  12.373  0.00  0.00    +0.000 N 
ATOM     20  H   UNL     1      44.080   6.656  12.866  0.00  0.00    +0.000 HD
BRANCH  19  21
ATOM     21  C   UNL     1      44.590   5.201  11.563  0.00  0.00    +0.000 A 
ATOM     22  C   UNL     1      43.735   4.192  12.019  0.00  0.00    +0.000 A 
ATOM     23  N   UNL     1      43.422   3.061  11.340  0.00  0.00    +0.000 NA
ATOM     24  C   UNL     1      44.026   2.882  10.147  0.00  0.00    +0.000 A 
ATOM     25  C   UNL     1      44.930   3.781   9.607  0.00  0.00    +0.000 A 
ATOM     26  C   UNL     1      45.210   4.950  10.336  0.00  0.00    +0.000 A 
BRANCH  25  27
ATOM     27  C   UNL     1      45.595   3.503   8.297  0.00  0.00    +0.000 C 
ATOM     28  F   UNL     1      46.351   2.371   8.293  0.00  0.00    +0.000 F 
ATOM     29  F   UNL     1      44.700   3.356   7.280  0.00  0.00    +0.000 F 
ATOM     30  F   UNL     1      46.430   4.509   7.911  0.00  0.00    +0.000 F 
ENDBRANCH  25  27
ENDBRANCH  19  21
ENDBRANCH  18  19
ENDBRANCH   5  18
TORSDOF 6
ENDMDL
