MODEL 1
REMARK VINA RESULT:    -7.658      0.000      0.000
REMARK INTER + INTRA:         -10.559
REMARK INTER:                  -9.896
REMARK INTRA:                  -0.663
REMARK UNBOUND:                -0.663
REMARK  Name = 
REMARK  6 active torsions:
REMARK  status: ('A' for Active; 'I' for Inactive)
REMARK    1  A    between atoms: N_1  and  C_2
REMARK    2  A    between atoms: C_2  and  C_3
REMARK    3  A    between atoms: C_6  and  O_7
REMARK    4  A    between atoms: O_7  and  C_8
REMARK    5  A    between atoms: C_8  and  C_9
REMARK    6  A    between atoms: C_14  and  O_15
REMARK                            x       y       z     vdW  Elec       q    Type
REMARK                         _______ _______ _______ _____ _____    ______ ____
ROOT
ATOM      1  C   UNL     1      46.913   2.389   7.248  0.00  0.00    +0.000 A 
ATOM      2  C   UNL     1      46.350   1.383   8.051  0.00  0.00    +0.000 A 
ATOM      3  C   UNL     1      45.284   1.670   8.908  0.00  0.00    +0.000 A 
ATOM      4  C   UNL     1      44.777   2.968   8.980  0.00  0.00    +0.000 A 
ATOM      5  C   UNL     1      45.282   3.955   8.134  0.00  0.00    +0.000 A 
ATOM      6  C   UNL     1      46.351   3.670   7.285  0.00  0.00    +0.000 A 
ENDROOT
BRANCH   1   7
ATOM      7  C   UNL     1      48.122   2.117   6.395  0.00  0.00    +0.000 C 
BRANCH   7   8
ATOM      8  N   UNL     1      48.053   2.806   5.114  0.00  0.00    +0.000 NA
ATOM      9  H   UNL     1      48.984   2.828   4.702  0.00  0.00    +0.000 HD
ATOM     10  H   UNL     1      47.789   3.776   5.280  0.00  0.00    +0.000 HD
ENDBRANCH   7   8
ENDBRANCH   1   7
BRANCH   4  11
ATOM     11  O   UNL     1      43.793   3.179   9.912  0.00  0.00    +0.000 OA
BRANCH  11  12
ATOM     12  C   UNL     1      43.725   4.525  10.413  0.00  0.00    +0.000 C 
BRANCH  12  13
ATOM     13  C   UNL     1      44.869   4.806  11.357  0.00  0.00    +0.000 A 
ATOM     14  C   UNL     1      45.675   5.943  11.199  0.00  0.00    +0.000 A 
ATOM     15  C   UNL     1      46.712   6.209  12.095  0.00  0.00    +0.000 A 
ATOM     16  C   UNL     1      46.964   5.336  13.150  0.00  0.00    +0.000 A 
ATOM     17  C   UNL     1      46.201   4.178  13.296  0.00  0.00    +0.000 A 
ATOM     18  C   UNL     1      45.173   3.912  12.392  0.00  0.00    +0.000 A 
BRANCH  18  19
ATOM     19  O   UNL     1      44.445   2.760  12.511  0.00  0.00    +0.000 OA
ATOM     20  H   UNL     1      43.589   2.973  12.919  0.00  0.00    +0.000 HD
ENDBRANCH  18  19
ENDBRANCH  12  13
ENDBRANCH  11  12
ENDBRANCH   4  11
TORSDOF 6
ENDMDL
MODEL 2
REMARK VINA RESULT:    -7.438      0.988      1.605
REMARK INTER + INTRA:         -10.276
REMARK INTER:                  -9.492
REMARK INTRA:                  -0.784
REMARK UNBOUND:                -0.663
REMARK  Name = 
REMARK  6 active torsions:
REMARK  status: ('A' for Active; 'I' for Inactive)
REMARK    1  A    between atoms: N_1  and  C_2
REMARK    2  A    between atoms: C_2  and  C_3
REMARK    3  A    between atoms: C_6  and  O_7
REMARK    4  A    between atoms: O_7  and  C_8
REMARK    5  A    between atoms: C_8  and  C_9
REMARK    6  A    between atoms: C_14  and  O_15
REMARK                            x       y       z     vdW  Elec       q    Type
REMARK                         _______ _______ _______ _____ _____    ______ ____
ROOT
ATOM      1  C   UNL     1      47.024   2.424   7.318  0.00  0.00    +0.000 A 
ATOM      2  C   UNL     1      46.354   1.441   8.065  0.00  0.00    +0.000 A 
ATOM      3  C   UNL     1      45.241   1.774   8.842  0.00  0.00    +0.000 A 
ATOM      4  C   UNL     1      44.794   3.095   8.889  0.00  0.00    +0.000 A 
ATOM      5  C   UNL     1      45.409   4.062   8.096  0.00  0.00    +0.000 A 
ATOM      6  C   UNL     1      46.525   3.731   7.327  0.00  0.00    +0.000 A 
ENDROOT
BRANCH   1   7
ATOM      7  C   UNL     1      48.280   2.099   6.556  0.00  0.00    +0.000 C 
BRANCH   7   8
ATOM      8  N   UNL     1      48.207   2.537   5.169  0.00  0.00    +0.000 NA
ATOM      9  H   UNL     1      48.543   3.496   5.109  0.00  0.00    +0.000 HD
ATOM     10  H   UNL     1      47.228   2.557   4.885  0.00  0.00    +0.000 HD
ENDBRANCH   7   8
ENDBRANCH   1   7
BRANCH   4  11
ATOM     11  O   UNL     1      43.753   3.347   9.747  0.00  0.00    +0.000 OA
BRANCH  11  12
ATOM     12  C   UNL     1      44.084   3.219  11.140  0.00  0.00    +0.000 C 
BRANCH  12  13
ATOM     13  C   UNL     1      44.724   4.484  11.658  0.00  0.00    +0.000 A 
ATOM     14  C   UNL     1      45.853   4.436  12.490  0.00  0.00    +0.000 A 
ATOM     15  C   UNL     1      46.455   5.612  12.939  0.00  0.00    +0.000 A 
ATOM     16  C   UNL     1      45.931   6.849  12.574  0.00  0.00    +0.000 A 
ATOM     17  C   UNL     1      44.784   6.915  11.784  0.00  0.00    +0.000 A 
ATOM     18  C   UNL     1      44.180   5.737  11.346  0.00  0.00    +0.000 A 
BRANCH  18  19
ATOM     19  O   UNL     1      43.035   5.797  10.599  0.00  0.00    +0.000 OA
ATOM     20  H   UNL     1      43.053   5.080   9.944  0.00  0.00    +0.000 HD
ENDBRANCH  18  19
ENDBRANCH  12  13
ENDBRANCH  11  12
ENDBRANCH   4  11
TORSDOF 6
ENDMDL
MODEL 3
REMARK VINA RESULT:    -7.105      2.666      5.636
REMARK INTER + INTRA:          -9.845
REMARK INTER:                  -9.304
REMARK INTRA:                  -0.541
REMARK UNBOUND:                -0.663
REMARK  Name = 
REMARK  6 active torsions:
REMARK  status: ('A' for Active; 'I' for Inactive)
REMARK    1  A    between atoms: N_1  and  C_2
REMARK    2  A    between atoms: C_2  and  C_3
REMARK    3  A    between atoms: C_6  and  O_7
REMARK    4  A    between atoms: O_7  and  C_8
REMARK    5  A    between atoms: C_8  and  C_9
REMARK    6  A    between atoms: C_14  and  O_15
REMARK                            x       y       z     vdW  Elec       q    Type
REMARK                         _______ _______ _______ _____ _____    ______ ____
ROOT
ATOM      1  C   UNL     1      46.692   5.752  12.838  0.00  0.00    +0.000 A 
ATOM      2  C   UNL     1      46.384   6.305  11.584  0.00  0.00    +0.000 A 
ATOM      3  C   UNL     1      45.535   5.633  10.700  0.00  0.00    +0.000 A 
ATOM      4  C   UNL     1      44.995   4.396  11.056  0.00  0.00    +0.000 A 
ATOM      5  C   UNL     1      45.239   3.875  12.326  0.00  0.00    +0.000 A 
ATOM      6  C   UNL     1      46.092   4.542  13.205  0.00  0.00    +0.000 A 
ENDROOT
BRANCH   1   7
ATOM      7  C   UNL     1      47.680   6.416  13.759  0.00  0.00    +0.000 C 
BRANCH   7   8
ATOM      8  N   UNL     1      47.900   5.644  14.974  0.00  0.00    +0.000 NA
ATOM      9  H   UNL     1      48.727   5.065  14.850  0.00  0.00    +0.000 HD
ATOM     10  H   UNL     1      47.116   5.005  15.099  0.00  0.00    +0.000 HD
ENDBRANCH   7   8
ENDBRANCH   1   7
BRANCH   4  11
ATOM     11  O   UNL     1      44.247   3.766  10.093  0.00  0.00    +0.000 OA
BRANCH  11  12
ATOM     12  C   UNL     1      44.565   4.151   8.745  0.00  0.00    +0.000 C 
BRANCH  12  13
ATOM     13  C   UNL     1      45.591   3.218   8.148  0.00  0.00    +0.000 A 
ATOM     14  C   UNL     1      46.580   3.694   7.275  0.00  0.00    +0.000 A 
ATOM     15  C   UNL     1      47.543   2.829   6.752  0.00  0.00    +0.000 A 
ATOM     16  C   UNL     1      47.520   1.477   7.085  0.00  0.00    +0.000 A 
ATOM     17  C   UNL     1      46.518   0.979   7.916  0.00  0.00    +0.000 A 
ATOM     18  C   UNL     1      45.554   1.846   8.428  0.00  0.00    +0.000 A 
BRANCH  18  19
ATOM     19  O   UNL     1      44.548   1.356   9.216  0.00  0.00    +0.000 OA
ATOM     20  H   UNL     1      43.747   1.259   8.675  0.00  0.00    +0.000 HD
ENDBRANCH  18  19
ENDBRANCH  12  13
ENDBRANCH  11  12
ENDBRANCH   4  11
TORSDOF 6
ENDMDL
MODEL 4
REMARK VINA RESULT:    -6.751      2.940      5.987
REMARK INTER + INTRA:          -9.387
REMARK INTER:                  -8.892
REMARK INTRA:                  -0.495
REMARK UNBOUND:                -0.663
REMARK  Name = 
REMARK  6 active torsions:
REMARK  status: ('A' for Active; 'I' for Inactive)
REMARK    1  A    between atoms: N_1  and  C_2
REMARK    2  A    between atoms: C_2  and  C_3
REMARK    3  A    between atoms: C_6  and  O_7
REMARK    4  A    between atoms: O_7  and  C_8
REMARK    5  A    between atoms: C_8  and  C_9
REMARK    6  A    between atoms: C_14  and  O_15
REMARK                            x       y       z     vdW  Elec       q    Type
REMARK                         _______ _______ _______ _____ _____    ______ ____
ROOT
ATOM      1  C   UNL     1      45.277   7.203  12.345  0.00  0.00    +0.000 A 
ATOM      2  C   UNL     1      44.185   6.796  11.560  0.00  0.00    +0.000 A 
ATOM      3  C   UNL     1      44.029   5.455  11.200  0.00  0.00    +0.000 A 
ATOM      4  C   UNL     1      44.969   4.509  11.611  0.00  0.00    +0.000 A 
ATOM      5  C   UNL     1      46.015   4.893  12.449  0.00  0.00    +0.000 A 
ATOM      6  C   UNL     1      46.175   6.232  12.801  0.00  0.00    +0.000 A 
ENDROOT
BRANCH   1   7
ATOM      7  C   UNL     1      45.510   8.657  12.657  0.00  0.00    +0.000 C 
BRANCH   7   8
ATOM      8  N   UNL     1      46.388   8.835  13.805  0.00  0.00    +0.000 NA
ATOM      9  H   UNL     1      47.198   8.228  13.696  0.00  0.00    +0.000 HD
ATOM     10  H   UNL     1      45.900   8.516  14.641  0.00  0.00    +0.000 HD
ENDBRANCH   7   8
ENDBRANCH   1   7
BRANCH   4  11
ATOM     11  O   UNL     1      44.787   3.234  11.137  0.00  0.00    +0.000 OA
BRANCH  11  12
ATOM     12  C   UNL     1      44.233   3.164   9.813  0.00  0.00    +0.000 C 
BRANCH  12  13
ATOM     13  C   UNL     1      45.298   2.808   8.803  0.00  0.00    +0.000 A 
ATOM     14  C   UNL     1      45.688   1.476   8.602  0.00  0.00    +0.000 A 
ATOM     15  C   UNL     1      46.652   1.154   7.645  0.00  0.00    +0.000 A 
ATOM     16  C   UNL     1      47.247   2.160   6.888  0.00  0.00    +0.000 A 
ATOM     17  C   UNL     1      46.903   3.494   7.106  0.00  0.00    +0.000 A 
ATOM     18  C   UNL     1      45.946   3.810   8.070  0.00  0.00    +0.000 A 
BRANCH  18  19
ATOM     19  O   UNL     1      45.631   5.120   8.310  0.00  0.00    +0.000 OA
ATOM     20  H   UNL     1      45.609   5.263   9.271  0.00  0.00    +0.000 HD
ENDBRANCH  18  19
ENDBRANCH  12  13
ENDBRANCH  11  12
ENDBRANCH   4  11
TORSDOF 6
ENDMDL
MODEL 5
REMARK VINA RESULT:    -6.492      2.784      5.767
REMARK INTER + INTRA:          -9.053
REMARK INTER:                  -8.702
REMARK INTRA:                  -0.351
REMARK UNBOUND:                -0.663
REMARK  Name = 
REMARK  6 active torsions:
REMARK  status: ('A' for Active; 'I' for Inactive)
REMARK    1  A    between atoms: N_1  and  C_2
REMARK    2  A    between atoms: C_2  and  C_3
REMARK    3  A    between atoms: C_6  and  O_7
REMARK    4  A    between atoms: O_7  and  C_8
REMARK    5  A    between atoms: C_8  and  C_9
REMARK    6  A    between atoms: C_14  and  O_15
REMARK                            x       y       z     vdW  Elec       q    Type
REMARK                         _______ _______ _______ _____ _____    ______ ____
ROOT
ATOM      1  C   UNL     1      45.154   5.401  12.236  0.00  0.00    +0.000 A 
ATOM      2  C   UNL     1      44.368   5.753  11.126  0.00  0.00    +0.000 A 
ATOM      3  C   UNL     1      43.950   4.780  10.213  0.00  0.00    +0.000 A 
ATOM      4  C   UNL     1      44.323   3.448  10.395  0.00  0.00    +0.000 A 
ATOM      5  C   UNL     1      45.041   3.080  11.532  0.00  0.00    +0.000 A 
ATOM      6  C   UNL     1      45.465   4.052  12.438  0.00  0.00    +0.000 A 
ENDROOT
BRANCH   1   7
ATOM      7  C   UNL     1      45.691   6.451  13.171  0.00  0.00    +0.000 C 
BRANCH   7   8
ATOM      8  N   UNL     1      45.066   7.748  12.954  0.00  0.00    +0.000 NA
ATOM      9  H   UNL     1      44.414   7.930  13.714  0.00  0.00    +0.000 HD
ATOM     10  H   UNL     1      44.510   7.703  12.101  0.00  0.00    +0.000 HD
ENDBRANCH   7   8
ENDBRANCH   1   7
BRANCH   4  11
ATOM     11  O   UNL     1      43.946   2.577   9.404  0.00  0.00    +0.000 OA
BRANCH  11  12
ATOM     12  C   UNL     1      44.894   1.530   9.138  0.00  0.00    +0.000 C 
BRANCH  12  13
ATOM     13  C   UNL     1      45.851   1.938   8.043  0.00  0.00    +0.000 A 
ATOM     14  C   UNL     1      45.813   3.228   7.492  0.00  0.00    +0.000 A 
ATOM     15  C   UNL     1      46.722   3.605   6.502  0.00  0.00    +0.000 A 
ATOM     16  C   UNL     1      47.670   2.695   6.043  0.00  0.00    +0.000 A 
ATOM     17  C   UNL     1      47.694   1.395   6.547  0.00  0.00    +0.000 A 
ATOM     18  C   UNL     1      46.777   1.021   7.529  0.00  0.00    +0.000 A 
BRANCH  18  19
ATOM     19  O   UNL     1      46.774  -0.262   8.003  0.00  0.00    +0.000 OA
ATOM     20  H   UNL     1      45.877  -0.482   8.301  0.00  0.00    +0.000 HD
ENDBRANCH  18  19
ENDBRANCH  12  13
ENDBRANCH  11  12
ENDBRANCH   4  11
TORSDOF 6
ENDMDL
MODEL 6
REMARK VINA RESULT:    -6.247      1.947      2.477
REMARK INTER + INTRA:          -8.736
REMARK INTER:                  -8.282
REMARK INTRA:                  -0.453
REMARK UNBOUND:                -0.663
REMARK  Name = 
REMARK  6 active torsions:
REMARK  status: ('A' for Active; 'I' for Inactive)
REMARK    1  A    between atoms: N_1  and  C_2
REMARK    2  A    between atoms: C_2  and  C_3
REMARK    3  A    between atoms: C_6  and  O_7
REMARK    4  A    between atoms: O_7  and  C_8
REMARK    5  A    between atoms: C_8  and  C_9
REMARK    6  A    between atoms: C_14  and  O_15
REMARK                            x       y       z     vdW  Elec       q    Type
REMARK                         _______ _______ _______ _____ _____    ______ ____
ROOT
ATOM      1  C   UNL     1      46.361   2.415   7.775  0.00  0.00    +0.000 A 
ATOM      2  C   UNL     1      45.545   1.820   8.753  0.00  0.00    +0.000 A 
ATOM      3  C   UNL     1      44.873   2.606   9.692  0.00  0.00    +0.000 A 
ATOM      4  C   UNL     1      45.018   3.993   9.672  0.00  0.00    +0.000 A 
ATOM      5  C   UNL     1      45.767   4.596   8.662  0.00  0.00    +0.000 A 
ATOM      6  C   UNL     1      46.444   3.811   7.730  0.00  0.00    +0.000 A 
ENDROOT
BRANCH   1   7
ATOM      7  C   UNL     1      47.166   1.576   6.820  0.00  0.00    +0.000 C 
BRANCH   7   8
ATOM      8  N   UNL     1      48.465   2.169   6.534  0.00  0.00    +0.000 NA
ATOM      9  H   UNL     1      48.456   3.141   6.836  0.00  0.00    +0.000 HD
ATOM     10  H   UNL     1      48.602   2.182   5.524  0.00  0.00    +0.000 HD
ENDBRANCH   7   8
ENDBRANCH   1   7
BRANCH   4  11
ATOM     11  O   UNL     1      44.396   4.678  10.686  0.00  0.00    +0.000 OA
BRANCH  11  12
ATOM     12  C   UNL     1      45.253   5.022  11.787  0.00  0.00    +0.000 C 
BRANCH  12  13
ATOM     13  C   UNL     1      45.295   6.518  11.988  0.00  0.00    +0.000 A 
ATOM     14  C   UNL     1      44.575   7.382  11.149  0.00  0.00    +0.000 A 
ATOM     15  C   UNL     1      44.597   8.761  11.362  0.00  0.00    +0.000 A 
ATOM     16  C   UNL     1      45.348   9.294  12.406  0.00  0.00    +0.000 A 
ATOM     17  C   UNL     1      46.105   8.455  13.221  0.00  0.00    +0.000 A 
ATOM     18  C   UNL     1      46.088   7.079  12.998  0.00  0.00    +0.000 A 
BRANCH  18  19
ATOM     19  O   UNL     1      46.856   6.254  13.774  0.00  0.00    +0.000 OA
ATOM     20  H   UNL     1      47.108   6.732  14.582  0.00  0.00    +0.000 HD
ENDBRANCH  18  19
ENDBRANCH  12  13
ENDBRANCH  11  12
ENDBRANCH   4  11
TORSDOF 6
ENDMDL
MODEL 7
REMARK VINA RESULT:    -5.821      2.881      5.724
REMARK INTER + INTRA:          -8.186
REMARK INTER:                  -7.571
REMARK INTRA:                  -0.615
REMARK UNBOUND:                -0.663
REMARK  Name = 
REMARK  6 active torsions:
REMARK  status: ('A' for Active; 'I' for Inactive)
REMARK    1  A    between atoms: N_1  and  C_2
REMARK    2  A    between atoms: C_2  and  C_3
REMARK    3  A    between atoms: C_6  and  O_7
REMARK    4  A    between atoms: O_7  and  C_8
REMARK    5  A    between atoms: C_8  and  C_9
REMARK    6  A    between atoms: C_14  and  O_15
REMARK                            x       y       z     vdW  Elec       q    Type
REMARK                         _______ _______ _______ _____ _____    ______ ____
ROOT
ATOM      1  C   UNL     1      48.442   7.383  13.035  0.00  0.00    +0.000 A 
ATOM      2  C   UNL     1      47.949   6.383  13.891  0.00  0.00    +0.000 A 
ATOM      3  C   UNL     1      46.893   5.561  13.489  0.00  0.00    +0.000 A 
ATOM      4  C   UNL     1      46.310   5.738  12.233  0.00  0.00    +0.000 A 
ATOM      5  C   UNL     1      46.840   6.680  11.352  0.00  0.00    +0.000 A 
ATOM      6  C   UNL     1      47.889   7.505  11.756  0.00  0.00    +0.000 A 
ENDROOT
BRANCH   1   7
ATOM      7  C   UNL     1      49.512   8.338  13.492  0.00  0.00    +0.000 C 
BRANCH   7   8
ATOM      8  N   UNL     1      50.834   7.727  13.470  0.00  0.00    +0.000 NA
ATOM      9  H   UNL     1      51.463   8.285  14.045  0.00  0.00    +0.000 HD
ATOM     10  H   UNL     1      51.198   7.771  12.519  0.00  0.00    +0.000 HD
ENDBRANCH   7   8
ENDBRANCH   1   7
BRANCH   4  11
ATOM     11  O   UNL     1      45.222   4.949  11.958  0.00  0.00    +0.000 OA
BRANCH  11  12
ATOM     12  C   UNL     1      44.620   5.190  10.675  0.00  0.00    +0.000 C 
BRANCH  12  13
ATOM     13  C   UNL     1      45.108   4.189   9.656  0.00  0.00    +0.000 A 
ATOM     14  C   UNL     1      45.863   4.595   8.546  0.00  0.00    +0.000 A 
ATOM     15  C   UNL     1      46.335   3.658   7.626  0.00  0.00    +0.000 A 
ATOM     16  C   UNL     1      46.049   2.306   7.797  0.00  0.00    +0.000 A 
ATOM     17  C   UNL     1      45.263   1.889   8.871  0.00  0.00    +0.000 A 
ATOM     18  C   UNL     1      44.785   2.831   9.781  0.00  0.00    +0.000 A 
BRANCH  18  19
ATOM     19  O   UNL     1      43.986   2.431  10.817  0.00  0.00    +0.000 OA
ATOM     20  H   UNL     1      43.065   2.408  10.508  0.00  0.00    +0.000 HD
ENDBRANCH  18  19
ENDBRANCH  12  13
ENDBRANCH  11  12
ENDBRANCH   4  11
TORSDOF 6
ENDMDL
MODEL 8
REMARK VINA RESULT:    -5.702      3.345      6.242
REMARK INTER + INTRA:          -8.032
REMARK INTER:                  -7.573
REMARK INTRA:                  -0.458
REMARK UNBOUND:                -0.663
REMARK  Name = 
REMARK  6 active torsions:
REMARK  status: ('A' for Active; 'I' for Inactive)
REMARK    1  A    between atoms: N_1  and  C_2
REMARK    2  A    between atoms: C_2  and  C_3
REMARK    3  A    between atoms: C_6  and  O_7
REMARK    4  A    between atoms: O_7  and  C_8
REMARK    5  A    between atoms: C_8  and  C_9
REMARK    6  A    between atoms: C_14  and  O_15
REMARK                            x       y       z     vdW  Elec       q    Type
REMARK                         _______ _______ _______ _____ _____    ______ ____
ROOT
ATOM      1  C   UNL     1      47.837   6.175  14.470  0.00  0.00    +0.000 A 
ATOM      2  C   UNL     1      47.851   7.283  13.607  0.00  0.00    +0.000 A 
ATOM      3  C   UNL     1      47.103   7.274  12.426  0.00  0.00    +0.000 A 
ATOM      4  C   UNL     1      46.344   6.152  12.091  0.00  0.00    +0.000 A 
ATOM      5  C   UNL     1      46.268   5.078  12.977  0.00  0.00    +0.000 A 
ATOM      6  C   UNL     1      47.021   5.085  14.151  0.00  0.00    +0.000 A 
ENDROOT
BRANCH   1   7
ATOM      7  C   UNL     1      48.712   6.133  15.694  0.00  0.00    +0.000 C 
BRANCH   7   8
ATOM      8  N   UNL     1      47.951   5.840  16.900  0.00  0.00    +0.000 NA
ATOM      9  H   UNL     1      48.568   5.398  17.579  0.00  0.00    +0.000 HD
ATOM     10  H   UNL     1      47.233   5.153  16.673  0.00  0.00    +0.000 HD
ENDBRANCH   7   8
ENDBRANCH   1   7
BRANCH   4  11
ATOM     11  O   UNL     1      45.714   6.194  10.872  0.00  0.00    +0.000 OA
BRANCH  11  12
ATOM     12  C   UNL     1      44.721   5.173  10.679  0.00  0.00    +0.000 C 
BRANCH  12  13
ATOM     13  C   UNL     1      45.171   4.176   9.638  0.00  0.00    +0.000 A 
ATOM     14  C   UNL     1      45.837   4.593   8.476  0.00  0.00    +0.000 A 
ATOM     15  C   UNL     1      46.275   3.661   7.534  0.00  0.00    +0.000 A 
ATOM     16  C   UNL     1      46.043   2.303   7.736  0.00  0.00    +0.000 A 
ATOM     17  C   UNL     1      45.345   1.874   8.864  0.00  0.00    +0.000 A 
ATOM     18  C   UNL     1      44.900   2.811   9.796  0.00  0.00    +0.000 A 
BRANCH  18  19
ATOM     19  O   UNL     1      44.185   2.397  10.887  0.00  0.00    +0.000 OA
ATOM     20  H   UNL     1      44.477   2.904  11.662  0.00  0.00    +0.000 HD
ENDBRANCH  18  19
ENDBRANCH  12  13
ENDBRANCH  11  12
ENDBRANCH   4  11
TORSDOF 6
ENDMDL
MODEL 9
REMARK VINA RESULT:    -5.522      5.082      7.996
REMARK INTER + INTRA:          -7.799
REMARK INTER:                  -7.237
REMARK INTRA:                  -0.563
REMARK UNBOUND:                -0.663
REMARK  Name = 
REMARK  6 active torsions:
REMARK  status: ('A' for Active; 'I' for Inactive)
REMARK    1  A    between atoms: N_1  and  C_2
REMARK    2  A    between atoms: C_2  and  C_3
REMARK    3  A    between atoms: C_6  and  O_7
REMARK    4  A    between atoms: O_7  and  C_8
REMARK    5  A    between atoms: C_8  and  C_9
REMARK    6  A    between atoms: C_14  and  O_15
REMARK                            x       y       z     vdW  Elec       q    Type
REMARK                         _______ _______ _______ _____ _____    ______ ____
ROOT
ATOM      1  C   UNL     1      48.653   4.474  18.474  0.00  0.00    +0.000 A 
ATOM      2  C   UNL     1      48.183   3.202  18.106  0.00  0.00    +0.000 A 
ATOM      3  C   UNL     1      47.595   2.997  16.855  0.00  0.00    +0.000 A 
ATOM      4  C   UNL     1      47.459   4.063  15.964  0.00  0.00    +0.000 A 
ATOM      5  C   UNL     1      47.987   5.310  16.294  0.00  0.00    +0.000 A 
ATOM      6  C   UNL     1      48.567   5.517  17.545  0.00  0.00    +0.000 A 
ENDROOT
BRANCH   1   7
ATOM      7  C   UNL     1      49.199   4.731  19.852  0.00  0.00    +0.000 C 
BRANCH   7   8
ATOM      8  N   UNL     1      48.496   3.963  20.871  0.00  0.00    +0.000 NA
ATOM      9  H   UNL     1      47.506   3.939  20.638  0.00  0.00    +0.000 HD
ATOM     10  H   UNL     1      48.572   4.455  21.760  0.00  0.00    +0.000 HD
ENDBRANCH   7   8
ENDBRANCH   1   7
BRANCH   4  11
ATOM     11  O   UNL     1      46.790   3.791  14.798  0.00  0.00    +0.000 OA
BRANCH  11  12
ATOM     12  C   UNL     1      47.124   4.658  13.702  0.00  0.00    +0.000 C 
BRANCH  12  13
ATOM     13  C   UNL     1      45.905   4.963  12.866  0.00  0.00    +0.000 A 
ATOM     14  C   UNL     1      45.511   6.285  12.615  0.00  0.00    +0.000 A 
ATOM     15  C   UNL     1      44.399   6.556  11.815  0.00  0.00    +0.000 A 
ATOM     16  C   UNL     1      43.661   5.510  11.269  0.00  0.00    +0.000 A 
ATOM     17  C   UNL     1      44.012   4.189  11.544  0.00  0.00    +0.000 A 
ATOM     18  C   UNL     1      45.117   3.924  12.351  0.00  0.00    +0.000 A 
BRANCH  18  19
ATOM     19  O   UNL     1      45.445   2.630  12.652  0.00  0.00    +0.000 OA
ATOM     20  H   UNL     1      45.592   2.561  13.609  0.00  0.00    +0.000 HD
ENDBRANCH  18  19
ENDBRANCH  12  13
ENDBRANCH  11  12
ENDBRANCH   4  11
TORSDOF 6
ENDMDL
