MODEL 1
REMARK VINA RESULT:    -9.191      0.000      0.000
REMARK INTER + INTRA:         -12.091
REMARK INTER:                 -11.341
REMARK INTRA:                  -0.750
REMARK UNBOUND:                -0.750
REMARK  Name = 
REMARK  4 active torsions:
REMARK  status: ('A' for Active; 'I' for Inactive)
REMARK    1  A    between atoms: C_2  and  C_4
REMARK    2  A    between atoms: N_8  and  C_9
REMARK    3  A    between atoms: C_9  and  C_10
REMARK    4  A    between atoms: C_14  and  C_15
REMARK                            x       y       z     vdW  Elec       q    Type
REMARK                         _______ _______ _______ _____ _____    ______ ____
ROOT
ATOM      1  C   UNL     1      43.471   4.788  11.013  0.00  0.00    +0.000 C 
ENDROOT
BRANCH   1   6
ATOM      2  C   UNL     1      46.412   2.284   7.704  0.00  0.00    +0.000 A 
ATOM      3  C   UNL     1      45.637   1.809   8.755  0.00  0.00    +0.000 A 
ATOM      4  C   UNL     1      44.791   2.689   9.429  0.00  0.00    +0.000 A 
ATOM      5  C   UNL     1      44.742   4.033   9.060  0.00  0.00    +0.000 A 
ATOM      6  N   UNL     1      43.846   4.930   9.615  0.00  0.00    +0.000 N 
ATOM      7  N   UNL     1      45.515   4.508   8.063  0.00  0.00    +0.000 NA
ATOM      8  C   UNL     1      46.336   3.637   7.411  0.00  0.00    +0.000 A 
ATOM      9  H   UNL     1      44.118   5.871   9.340  0.00  0.00    +0.000 HD
BRANCH   2  11
ATOM     10  N   UNL     1      48.422   1.975   6.381  0.00  0.00    +0.000 N 
ATOM     11  C   UNL     1      47.294   1.404   6.911  0.00  0.00    +0.000 C 
ATOM     12  O   UNL     1      47.053   0.220   6.763  0.00  0.00    +0.000 OA
ATOM     13  H   UNL     1      49.073   1.349   5.920  0.00  0.00    +0.000 HD
ATOM     14  H   UNL     1      48.782   2.867   6.694  0.00  0.00    +0.000 HD
ENDBRANCH   2  11
ENDBRANCH   1   6
BRANCH   1  15
ATOM     15  C   UNL     1      44.617   5.141  11.942  0.00  0.00    +0.000 A 
ATOM     16  C   UNL     1      44.986   4.258  12.955  0.00  0.00    +0.000 A 
ATOM     17  C   UNL     1      46.084   4.567  13.744  0.00  0.00    +0.000 A 
ATOM     18  C   UNL     1      46.775   5.750  13.511  0.00  0.00    +0.000 A 
ATOM     19  C   UNL     1      46.352   6.603  12.491  0.00  0.00    +0.000 A 
ATOM     20  N   UNL     1      45.274   6.309  11.718  0.00  0.00    +0.000 NA
BRANCH  19  21
ATOM     21  C   UNL     1      47.049   7.868  12.182  0.00  0.00    +0.000 A 
ATOM     22  C   UNL     1      46.363   9.101  12.166  0.00  0.00    +0.000 A 
ATOM     23  C   UNL     1      47.016  10.291  11.840  0.00  0.00    +0.000 A 
ATOM     24  C   UNL     1      48.372  10.266  11.534  0.00  0.00    +0.000 A 
ATOM     25  F   UNL     1      48.994  11.404  11.212  0.00  0.00    +0.000 F 
ATOM     26  C   UNL     1      49.082   9.074  11.560  0.00  0.00    +0.000 A 
ATOM     27  C   UNL     1      48.425   7.884  11.887  0.00  0.00    +0.000 A 
ENDBRANCH  19  21
ENDBRANCH   1  15
TORSDOF 4
ENDMDL
MODEL 2
REMARK VINA RESULT:    -7.920      3.755      7.041
REMARK INTER + INTRA:         -10.522
REMARK INTER:                  -9.782
REMARK INTRA:                  -0.740
REMARK UNBOUND:                -0.750
REMARK  Name = 
REMARK  4 active torsions:
REMARK  status: ('A' for Active; 'I' for Inactive)
REMARK    1  A    between atoms: C_2  and  C_4
REMARK    2  A    between atoms: N_8  and  C_9
REMARK    3  A    between atoms: C_9  and  C_10
REMARK    4  A    between atoms: C_14  and  C_15
REMARK                            x       y       z     vdW  Elec       q    Type
REMARK                         _______ _______ _______ _____ _____    ______ ____
ROOT
ATOM      1  C   UNL     1      44.279   6.514  11.736  0.00  0.00    +0.000 C 
ENDROOT
BRANCH   1   6
ATOM      2  C   UNL     1      49.104   7.665  12.863  0.00  0.00    +0.000 A 
ATOM      3  C   UNL     1      48.306   8.076  11.802  0.00  0.00    +0.000 A 
ATOM      4  C   UNL     1      46.953   7.739  11.796  0.00  0.00    +0.000 A 
ATOM      5  C   UNL     1      46.417   6.982  12.836  0.00  0.00    +0.000 A 
ATOM      6  N   UNL     1      45.064   6.710  12.944  0.00  0.00    +0.000 N 
ATOM      7  N   UNL     1      47.190   6.551  13.853  0.00  0.00    +0.000 NA
ATOM      8  C   UNL     1      48.511   6.889  13.847  0.00  0.00    +0.000 A 
ATOM      9  H   UNL     1      44.934   5.996  13.657  0.00  0.00    +0.000 HD
BRANCH   2  11
ATOM     10  N   UNL     1      51.343   7.635  11.930  0.00  0.00    +0.000 N 
ATOM     11  C   UNL     1      50.533   8.024  12.965  0.00  0.00    +0.000 C 
ATOM     12  O   UNL     1      50.967   8.665  13.904  0.00  0.00    +0.000 OA
ATOM     13  H   UNL     1      52.301   7.966  11.957  0.00  0.00    +0.000 HD
ATOM     14  H   UNL     1      50.981   7.340  11.033  0.00  0.00    +0.000 HD
ENDBRANCH   2  11
ENDBRANCH   1   6
BRANCH   1  15
ATOM     15  C   UNL     1      44.208   5.050  11.341  0.00  0.00    +0.000 A 
ATOM     16  C   UNL     1      43.371   4.183  12.040  0.00  0.00    +0.000 A 
ATOM     17  C   UNL     1      43.266   2.867  11.614  0.00  0.00    +0.000 A 
ATOM     18  C   UNL     1      44.004   2.450  10.513  0.00  0.00    +0.000 A 
ATOM     19  C   UNL     1      44.836   3.359   9.860  0.00  0.00    +0.000 A 
ATOM     20  N   UNL     1      44.948   4.648  10.275  0.00  0.00    +0.000 NA
BRANCH  19  21
ATOM     21  C   UNL     1      45.637   2.985   8.677  0.00  0.00    +0.000 A 
ATOM     22  C   UNL     1      46.046   1.653   8.456  0.00  0.00    +0.000 A 
ATOM     23  C   UNL     1      46.833   1.307   7.356  0.00  0.00    +0.000 A 
ATOM     24  C   UNL     1      47.214   2.290   6.452  0.00  0.00    +0.000 A 
ATOM     25  F   UNL     1      47.976   1.960   5.404  0.00  0.00    +0.000 F 
ATOM     26  C   UNL     1      46.813   3.608   6.625  0.00  0.00    +0.000 A 
ATOM     27  C   UNL     1      46.026   3.951   7.729  0.00  0.00    +0.000 A 
ENDBRANCH  19  21
ENDBRANCH   1  15
TORSDOF 4
ENDMDL
MODEL 3
REMARK VINA RESULT:    -7.798      4.796      8.041
REMARK INTER + INTRA:         -10.372
REMARK INTER:                  -9.909
REMARK INTRA:                  -0.462
REMARK UNBOUND:                -0.750
REMARK  Name = 
REMARK  4 active torsions:
REMARK  status: ('A' for Active; 'I' for Inactive)
REMARK    1  A    between atoms: C_2  and  C_4
REMARK    2  A    between atoms: N_8  and  C_9
REMARK    3  A    between atoms: C_9  and  C_10
REMARK    4  A    between atoms: C_14  and  C_15
REMARK                            x       y       z     vdW  Elec       q    Type
REMARK                         _______ _______ _______ _____ _____    ______ ____
ROOT
ATOM      1  C   UNL     1      46.148   5.422  13.720  0.00  0.00    +0.000 C 
ENDROOT
BRANCH   1   6
ATOM      2  C   UNL     1      49.416   4.195  17.419  0.00  0.00    +0.000 A 
ATOM      3  C   UNL     1      49.086   5.435  16.887  0.00  0.00    +0.000 A 
ATOM      4  C   UNL     1      48.037   5.527  15.973  0.00  0.00    +0.000 A 
ATOM      5  C   UNL     1      47.343   4.381  15.587  0.00  0.00    +0.000 A 
ATOM      6  N   UNL     1      46.226   4.421  14.771  0.00  0.00    +0.000 N 
ATOM      7  N   UNL     1      47.678   3.169  16.074  0.00  0.00    +0.000 NA
ATOM      8  C   UNL     1      48.704   3.094  16.968  0.00  0.00    +0.000 A 
ATOM      9  H   UNL     1      46.009   3.472  14.474  0.00  0.00    +0.000 HD
BRANCH   2  11
ATOM     10  N   UNL     1      50.166   4.355  19.720  0.00  0.00    +0.000 N 
ATOM     11  C   UNL     1      50.480   4.024  18.428  0.00  0.00    +0.000 C 
ATOM     12  O   UNL     1      51.575   3.577  18.136  0.00  0.00    +0.000 OA
ATOM     13  H   UNL     1      50.866   4.145  20.424  0.00  0.00    +0.000 HD
ATOM     14  H   UNL     1      49.213   4.476  20.037  0.00  0.00    +0.000 HD
ENDBRANCH   2  11
ENDBRANCH   1   6
BRANCH   1  15
ATOM     15  C   UNL     1      45.156   5.030  12.640  0.00  0.00    +0.000 A 
ATOM     16  C   UNL     1      43.803   5.318  12.804  0.00  0.00    +0.000 A 
ATOM     17  C   UNL     1      42.926   5.019  11.772  0.00  0.00    +0.000 A 
ATOM     18  C   UNL     1      43.419   4.431  10.613  0.00  0.00    +0.000 A 
ATOM     19  C   UNL     1      44.782   4.153  10.510  0.00  0.00    +0.000 A 
ATOM     20  N   UNL     1      45.645   4.439  11.519  0.00  0.00    +0.000 NA
BRANCH  19  21
ATOM     21  C   UNL     1      45.372   3.541   9.302  0.00  0.00    +0.000 A 
ATOM     22  C   UNL     1      45.471   2.142   9.159  0.00  0.00    +0.000 A 
ATOM     23  C   UNL     1      46.062   1.567   8.031  0.00  0.00    +0.000 A 
ATOM     24  C   UNL     1      46.552   2.387   7.023  0.00  0.00    +0.000 A 
ATOM     25  F   UNL     1      47.126   1.836   5.948  0.00  0.00    +0.000 F 
ATOM     26  C   UNL     1      46.453   3.768   7.120  0.00  0.00    +0.000 A 
ATOM     27  C   UNL     1      45.862   4.340   8.251  0.00  0.00    +0.000 A 
ENDBRANCH  19  21
ENDBRANCH   1  15
TORSDOF 4
ENDMDL
MODEL 4
REMARK VINA RESULT:    -7.596      2.786      3.755
REMARK INTER + INTRA:         -10.123
REMARK INTER:                  -9.662
REMARK INTRA:                  -0.461
REMARK UNBOUND:                -0.750
REMARK  Name = 
REMARK  4 active torsions:
REMARK  status: ('A' for Active; 'I' for Inactive)
REMARK    1  A    between atoms: C_2  and  C_4
REMARK    2  A    between atoms: N_8  and  C_9
REMARK    3  A    between atoms: C_9  and  C_10
REMARK    4  A    between atoms: C_14  and  C_15
REMARK                            x       y       z     vdW  Elec       q    Type
REMARK                         _______ _______ _______ _____ _____    ______ ____
ROOT
ATOM      1  C   UNL     1      43.724   3.732  11.061  0.00  0.00    +0.000 C 
ENDROOT
BRANCH   1   6
ATOM      2  C   UNL     1      46.734   2.534   7.140  0.00  0.00    +0.000 A 
ATOM      3  C   UNL     1      46.394   3.774   7.665  0.00  0.00    +0.000 A 
ATOM      4  C   UNL     1      45.664   3.835   8.852  0.00  0.00    +0.000 A 
ATOM      5  C   UNL     1      45.267   2.661   9.489  0.00  0.00    +0.000 A 
ATOM      6  N   UNL     1      44.638   2.654  10.722  0.00  0.00    +0.000 N 
ATOM      7  N   UNL     1      45.564   1.453   8.969  0.00  0.00    +0.000 NA
ATOM      8  C   UNL     1      46.280   1.408   7.810  0.00  0.00    +0.000 A 
ATOM      9  H   UNL     1      44.277   1.718  10.895  0.00  0.00    +0.000 HD
BRANCH   2  11
ATOM     10  N   UNL     1      47.376   3.339   4.944  0.00  0.00    +0.000 N 
ATOM     11  C   UNL     1      47.547   2.388   5.916  0.00  0.00    +0.000 C 
ATOM     12  O   UNL     1      48.357   1.488   5.787  0.00  0.00    +0.000 OA
ATOM     13  H   UNL     1      48.004   3.291   4.149  0.00  0.00    +0.000 HD
ATOM     14  H   UNL     1      46.919   4.224   5.119  0.00  0.00    +0.000 HD
ENDBRANCH   2  11
ENDBRANCH   1   6
BRANCH   1  15
ATOM     15  C   UNL     1      44.459   4.948  11.594  0.00  0.00    +0.000 A 
ATOM     16  C   UNL     1      44.183   6.209  11.073  0.00  0.00    +0.000 A 
ATOM     17  C   UNL     1      44.811   7.315  11.627  0.00  0.00    +0.000 A 
ATOM     18  C   UNL     1      45.706   7.131  12.676  0.00  0.00    +0.000 A 
ATOM     19  C   UNL     1      45.954   5.842  13.148  0.00  0.00    +0.000 A 
ATOM     20  N   UNL     1      45.345   4.755  12.607  0.00  0.00    +0.000 NA
BRANCH  19  21
ATOM     21  C   UNL     1      46.881   5.578  14.267  0.00  0.00    +0.000 A 
ATOM     22  C   UNL     1      47.892   6.497  14.617  0.00  0.00    +0.000 A 
ATOM     23  C   UNL     1      48.791   6.230  15.652  0.00  0.00    +0.000 A 
ATOM     24  C   UNL     1      48.682   5.040  16.361  0.00  0.00    +0.000 A 
ATOM     25  F   UNL     1      49.549   4.781  17.346  0.00  0.00    +0.000 F 
ATOM     26  C   UNL     1      47.687   4.122  16.059  0.00  0.00    +0.000 A 
ATOM     27  C   UNL     1      46.790   4.392  15.021  0.00  0.00    +0.000 A 
ENDBRANCH  19  21
ENDBRANCH   1  15
TORSDOF 4
ENDMDL
MODEL 5
REMARK VINA RESULT:    -7.193      3.673      7.210
REMARK INTER + INTRA:          -9.626
REMARK INTER:                  -8.951
REMARK INTRA:                  -0.675
REMARK UNBOUND:                -0.750
REMARK  Name = 
REMARK  4 active torsions:
REMARK  status: ('A' for Active; 'I' for Inactive)
REMARK    1  A    between atoms: C_2  and  C_4
REMARK    2  A    between atoms: N_8  and  C_9
REMARK    3  A    between atoms: C_9  and  C_10
REMARK    4  A    between atoms: C_14  and  C_15
REMARK                            x       y       z     vdW  Elec       q    Type
REMARK                         _______ _______ _______ _____ _____    ______ ____
ROOT
ATOM      1  C   UNL     1      45.431   5.406  13.143  0.00  0.00    +0.000 C 
ENDROOT
BRANCH   1   6
ATOM      2  C   UNL     1      48.301   9.427  11.934  0.00  0.00    +0.000 A 
ATOM      3  C   UNL     1      48.590   8.069  11.882  0.00  0.00    +0.000 A 
ATOM      4  C   UNL     1      47.573   7.147  12.124  0.00  0.00    +0.000 A 
ATOM      5  C   UNL     1      46.287   7.589  12.434  0.00  0.00    +0.000 A 
ATOM      6  N   UNL     1      45.213   6.726  12.576  0.00  0.00    +0.000 N 
ATOM      7  N   UNL     1      46.006   8.904  12.519  0.00  0.00    +0.000 NA
ATOM      8  C   UNL     1      47.009   9.795  12.278  0.00  0.00    +0.000 A 
ATOM      9  H   UNL     1      44.436   7.243  12.983  0.00  0.00    +0.000 HD
BRANCH   2  11
ATOM     10  N   UNL     1      49.392  11.514  12.518  0.00  0.00    +0.000 N 
ATOM     11  C   UNL     1      49.311  10.463  11.641  0.00  0.00    +0.000 C 
ATOM     12  O   UNL     1      50.064  10.374  10.688  0.00  0.00    +0.000 OA
ATOM     13  H   UNL     1      50.149  12.171  12.368  0.00  0.00    +0.000 HD
ATOM     14  H   UNL     1      48.976  11.490  13.439  0.00  0.00    +0.000 HD
ENDBRANCH   2  11
ENDBRANCH   1   6
BRANCH   1  15
ATOM     15  C   UNL     1      44.860   4.312  12.261  0.00  0.00    +0.000 A 
ATOM     16  C   UNL     1      43.726   3.613  12.667  0.00  0.00    +0.000 A 
ATOM     17  C   UNL     1      43.178   2.670  11.810  0.00  0.00    +0.000 A 
ATOM     18  C   UNL     1      43.783   2.440  10.580  0.00  0.00    +0.000 A 
ATOM     19  C   UNL     1      44.925   3.160  10.231  0.00  0.00    +0.000 A 
ATOM     20  N   UNL     1      45.469   4.082  11.067  0.00  0.00    +0.000 NA
BRANCH  19  21
ATOM     21  C   UNL     1      45.608   2.975   8.934  0.00  0.00    +0.000 A 
ATOM     22  C   UNL     1      46.011   1.698   8.491  0.00  0.00    +0.000 A 
ATOM     23  C   UNL     1      46.688   1.529   7.281  0.00  0.00    +0.000 A 
ATOM     24  C   UNL     1      46.962   2.638   6.491  0.00  0.00    +0.000 A 
ATOM     25  F   UNL     1      47.618   2.476   5.337  0.00  0.00    +0.000 F 
ATOM     26  C   UNL     1      46.563   3.907   6.885  0.00  0.00    +0.000 A 
ATOM     27  C   UNL     1      45.886   4.073   8.097  0.00  0.00    +0.000 A 
ENDBRANCH  19  21
ENDBRANCH   1  15
TORSDOF 4
ENDMDL
MODEL 6
REMARK VINA RESULT:    -6.531      5.478      8.668
REMARK INTER + INTRA:          -8.808
REMARK INTER:                  -8.290
REMARK INTRA:                  -0.518
REMARK UNBOUND:                -0.750
REMARK  Name = 
REMARK  4 active torsions:
REMARK  status: ('A' for Active; 'I' for Inactive)
REMARK    1  A    between atoms: C_2  and  C_4
REMARK    2  A    between atoms: N_8  and  C_9
REMARK    3  A    between atoms: C_9  and  C_10
REMARK    4  A    between atoms: C_14  and  C_15
REMARK                            x       y       z     vdW  Elec       q    Type
REMARK                         _______ _______ _______ _____ _____    ______ ____
ROOT
ATOM      1  C   UNL     1      48.086   7.086  14.229  0.00  0.00    +0.000 C 
ENDROOT
BRANCH   1   6
ATOM      2  C   UNL     1      49.771   5.387  18.717  0.00  0.00    +0.000 A 
ATOM      3  C   UNL     1      49.496   6.680  18.292  0.00  0.00    +0.000 A 
ATOM      4  C   UNL     1      48.892   6.876  17.051  0.00  0.00    +0.000 A 
ATOM      5  C   UNL     1      48.588   5.783  16.241  0.00  0.00    +0.000 A 
ATOM      6  N   UNL     1      47.891   5.903  15.051  0.00  0.00    +0.000 N 
ATOM      7  N   UNL     1      48.881   4.527  16.631  0.00  0.00    +0.000 NA
ATOM      8  C   UNL     1      49.469   4.349  17.848  0.00  0.00    +0.000 A 
ATOM      9  H   UNL     1      47.954   5.020  14.549  0.00  0.00    +0.000 HD
BRANCH   2  11
ATOM     10  N   UNL     1      49.611   4.341  20.900  0.00  0.00    +0.000 N 
ATOM     11  C   UNL     1      50.363   5.096  20.038  0.00  0.00    +0.000 C 
ATOM     12  O   UNL     1      51.480   5.478  20.338  0.00  0.00    +0.000 OA
ATOM     13  H   UNL     1      50.059   4.062  21.766  0.00  0.00    +0.000 HD
ATOM     14  H   UNL     1      48.813   3.799  20.597  0.00  0.00    +0.000 HD
ENDBRANCH   2  11
ENDBRANCH   1   6
BRANCH   1  15
ATOM     15  C   UNL     1      46.934   7.299  13.265  0.00  0.00    +0.000 A 
ATOM     16  C   UNL     1      46.329   8.550  13.172  0.00  0.00    +0.000 A 
ATOM     17  C   UNL     1      45.328   8.741  12.231  0.00  0.00    +0.000 A 
ATOM     18  C   UNL     1      44.950   7.678  11.418  0.00  0.00    +0.000 A 
ATOM     19  C   UNL     1      45.582   6.443  11.565  0.00  0.00    +0.000 A 
ATOM     20  N   UNL     1      46.559   6.248  12.488  0.00  0.00    +0.000 NA
BRANCH  19  21
ATOM     21  C   UNL     1      45.238   5.278  10.725  0.00  0.00    +0.000 A 
ATOM     22  C   UNL     1      45.648   5.195   9.378  0.00  0.00    +0.000 A 
ATOM     23  C   UNL     1      45.292   4.109   8.576  0.00  0.00    +0.000 A 
ATOM     24  C   UNL     1      44.527   3.082   9.115  0.00  0.00    +0.000 A 
ATOM     25  F   UNL     1      44.178   2.047   8.344  0.00  0.00    +0.000 F 
ATOM     26  C   UNL     1      44.123   3.120  10.442  0.00  0.00    +0.000 A 
ATOM     27  C   UNL     1      44.481   4.210  11.242  0.00  0.00    +0.000 A 
ENDBRANCH  19  21
ENDBRANCH   1  15
TORSDOF 4
ENDMDL
