MODEL 1
REMARK VINA RESULT:    -8.795      0.000      0.000
REMARK INTER + INTRA:         -13.013
REMARK INTER:                 -11.881
REMARK INTRA:                  -1.133
REMARK UNBOUND:                -1.133
REMARK  Name = 
REMARK  8 active torsions:
REMARK  status: ('A' for Active; 'I' for Inactive)
REMARK    1  A    between atoms: C_1  and  C_2
REMARK    2  A    between atoms: N_4  and  C_5
REMARK    3  A    between atoms: C_7  and  C_8
REMARK    4  A    between atoms: C_8  and  C_9
REMARK    5  A    between atoms: C_9  and  N_10
REMARK    6  A    between atoms: C_14  and  C_15
REMARK    7  A    between atoms: C_21  and  C_22
REMARK    8  A    between atoms: C_28  and  C_29
REMARK                            x       y       z     vdW  Elec       q    Type
REMARK                         _______ _______ _______ _____ _____    ______ ____
ROOT
ATOM      1  C   UNL     1      46.753   6.916  12.685  0.00  0.00    +0.000 A 
ATOM      2  C   UNL     1      45.435   6.633  12.292  0.00  0.00    +0.000 A 
ATOM      3  C   UNL     1      44.693   5.580  12.846  0.00  0.00    +0.000 A 
ATOM      4  C   UNL     1      45.281   4.799  13.843  0.00  0.00    +0.000 A 
ATOM      5  C   UNL     1      46.586   5.057  14.277  0.00  0.00    +0.000 A 
ATOM      6  C   UNL     1      47.297   6.126  13.705  0.00  0.00    +0.000 A 
ENDROOT
BRANCH   1  10
ATOM      7  C   UNL     1      48.617   9.642  14.453  0.00  0.00    +0.000 C 
ATOM      8  C   UNL     1      48.468  10.007  12.978  0.00  0.00    +0.000 C 
ATOM      9  C   UNL     1      47.233   9.352  12.324  0.00  0.00    +0.000 C 
ATOM     10  N   UNL     1      47.461   7.926  12.069  0.00  0.00    +0.000 N 
ATOM     11  C   UNL     1      48.716   7.633  11.356  0.00  0.00    +0.000 C 
ATOM     12  C   UNL     1      49.908   8.322  12.056  0.00  0.00    +0.000 C 
ATOM     13  C   UNL     1      51.172   8.162  11.219  0.00  0.00    +0.000 C 
ATOM     14  O   UNL     1      49.676   9.730  12.242  0.00  0.00    +0.000 OA
ENDBRANCH   1  10
BRANCH   5  15
ATOM     15  C   UNL     1      47.256   4.177  15.301  0.00  0.00    +0.000 C 
ATOM     16  F   UNL     1      46.480   3.933  16.395  0.00  0.00    +0.000 F 
ATOM     17  F   UNL     1      47.577   2.951  14.798  0.00  0.00    +0.000 F 
ATOM     18  F   UNL     1      48.419   4.701  15.776  0.00  0.00    +0.000 F 
ENDBRANCH   5  15
BRANCH   3  19
ATOM     19  C   UNL     1      43.316   5.243  12.317  0.00  0.00    +0.000 C 
BRANCH  19  20
ATOM     20  C   UNL     1      43.404   4.136  11.264  0.00  0.00    +0.000 C 
BRANCH  20  21
ATOM     21  N   UNL     1      43.747   4.652   9.943  0.00  0.00    +0.000 N 
ATOM     22  C   UNL     1      44.663   3.910   9.201  0.00  0.00    +0.000 A 
ATOM     23  C   UNL     1      44.781   2.511   9.283  0.00  0.00    +0.000 A 
ATOM     24  N   UNL     1      45.670   1.765   8.581  0.00  0.00    +0.000 NA
ATOM     25  C   UNL     1      46.439   2.485   7.723  0.00  0.00    +0.000 A 
ATOM     26  C   UNL     1      46.318   3.861   7.598  0.00  0.00    +0.000 A 
ATOM     27  N   UNL     1      45.437   4.599   8.340  0.00  0.00    +0.000 NA
ATOM     28  H   UNL     1      44.028   5.632   9.888  0.00  0.00    +0.000 HD
BRANCH  25  29
ATOM     29  C   UNL     1      47.432   1.736   6.906  0.00  0.00    +0.000 C 
ATOM     30  N   UNL     1      48.518   2.445   6.435  0.00  0.00    +0.000 N 
ATOM     31  O   UNL     1      47.300   0.552   6.654  0.00  0.00    +0.000 OA
ATOM     32  H   UNL     1      48.638   3.429   6.650  0.00  0.00    +0.000 HD
ATOM     33  H   UNL     1      49.221   1.957   5.891  0.00  0.00    +0.000 HD
ENDBRANCH  25  29
ENDBRANCH  20  21
ENDBRANCH  19  20
ENDBRANCH   3  19
TORSDOF 6
ENDMDL
MODEL 2
REMARK VINA RESULT:    -8.563      2.968      3.778
REMARK INTER + INTRA:         -12.699
REMARK INTER:                 -11.681
REMARK INTRA:                  -1.018
REMARK UNBOUND:                -1.133
REMARK  Name = 
REMARK  8 active torsions:
REMARK  status: ('A' for Active; 'I' for Inactive)
REMARK    1  A    between atoms: C_1  and  C_2
REMARK    2  A    between atoms: N_4  and  C_5
REMARK    3  A    between atoms: C_7  and  C_8
REMARK    4  A    between atoms: C_8  and  C_9
REMARK    5  A    between atoms: C_9  and  N_10
REMARK    6  A    between atoms: C_14  and  C_15
REMARK    7  A    between atoms: C_21  and  C_22
REMARK    8  A    between atoms: C_28  and  C_29
REMARK                            x       y       z     vdW  Elec       q    Type
REMARK                         _______ _______ _______ _____ _____    ______ ____
ROOT
ATOM      1  C   UNL     1      46.649   6.821  12.670  0.00  0.00    +0.000 A 
ATOM      2  C   UNL     1      45.581   5.910  12.627  0.00  0.00    +0.000 A 
ATOM      3  C   UNL     1      44.310   6.261  12.150  0.00  0.00    +0.000 A 
ATOM      4  C   UNL     1      44.108   7.561  11.680  0.00  0.00    +0.000 A 
ATOM      5  C   UNL     1      45.150   8.495  11.688  0.00  0.00    +0.000 A 
ATOM      6  C   UNL     1      46.413   8.105  12.165  0.00  0.00    +0.000 A 
ENDROOT
BRANCH   1  10
ATOM      7  C   UNL     1      49.312   9.169  13.867  0.00  0.00    +0.000 C 
ATOM      8  C   UNL     1      49.899   7.766  13.732  0.00  0.00    +0.000 C 
ATOM      9  C   UNL     1      49.157   6.907  12.687  0.00  0.00    +0.000 C 
ATOM     10  N   UNL     1      47.864   6.443  13.201  0.00  0.00    +0.000 N 
ATOM     11  C   UNL     1      47.935   5.806  14.528  0.00  0.00    +0.000 C 
ATOM     12  C   UNL     1      48.694   6.713  15.522  0.00  0.00    +0.000 C 
ATOM     13  C   UNL     1      48.917   5.976  16.838  0.00  0.00    +0.000 C 
ATOM     14  O   UNL     1      49.981   7.105  15.011  0.00  0.00    +0.000 OA
ENDBRANCH   1  10
BRANCH   5  15
ATOM     15  C   UNL     1      44.924   9.919  11.248  0.00  0.00    +0.000 C 
ATOM     16  F   UNL     1      44.234  10.021  10.077  0.00  0.00    +0.000 F 
ATOM     17  F   UNL     1      44.204  10.632  12.160  0.00  0.00    +0.000 F 
ATOM     18  F   UNL     1      46.081  10.610  11.063  0.00  0.00    +0.000 F 
ENDBRANCH   5  15
BRANCH   3  19
ATOM     19  C   UNL     1      43.160   5.282  12.223  0.00  0.00    +0.000 C 
BRANCH  19  20
ATOM     20  C   UNL     1      43.352   4.152  11.208  0.00  0.00    +0.000 C 
BRANCH  20  21
ATOM     21  N   UNL     1      43.688   4.653   9.880  0.00  0.00    +0.000 N 
ATOM     22  C   UNL     1      44.615   3.912   9.149  0.00  0.00    +0.000 A 
ATOM     23  C   UNL     1      44.754   2.517   9.255  0.00  0.00    +0.000 A 
ATOM     24  N   UNL     1      45.655   1.773   8.565  0.00  0.00    +0.000 NA
ATOM     25  C   UNL     1      46.413   2.490   7.695  0.00  0.00    +0.000 A 
ATOM     26  C   UNL     1      46.271   3.862   7.548  0.00  0.00    +0.000 A 
ATOM     27  N   UNL     1      45.379   4.598   8.277  0.00  0.00    +0.000 NA
ATOM     28  H   UNL     1      43.954   5.635   9.808  0.00  0.00    +0.000 HD
BRANCH  25  29
ATOM     29  C   UNL     1      47.418   1.743   6.891  0.00  0.00    +0.000 C 
ATOM     30  N   UNL     1      48.509   2.454   6.435  0.00  0.00    +0.000 N 
ATOM     31  O   UNL     1      47.290   0.559   6.636  0.00  0.00    +0.000 OA
ATOM     32  H   UNL     1      48.625   3.438   6.652  0.00  0.00    +0.000 HD
ATOM     33  H   UNL     1      49.219   1.966   5.900  0.00  0.00    +0.000 HD
ENDBRANCH  25  29
ENDBRANCH  20  21
ENDBRANCH  19  20
ENDBRANCH   3  19
TORSDOF 6
ENDMDL
MODEL 3
REMARK VINA RESULT:    -7.943      3.238      3.870
REMARK INTER + INTRA:         -11.862
REMARK INTER:                 -11.137
REMARK INTRA:                  -0.724
REMARK UNBOUND:                -1.133
REMARK  Name = 
REMARK  8 active torsions:
REMARK  status: ('A' for Active; 'I' for Inactive)
REMARK    1  A    between atoms: C_1  and  C_2
REMARK    2  A    between atoms: N_4  and  C_5
REMARK    3  A    between atoms: C_7  and  C_8
REMARK    4  A    between atoms: C_8  and  C_9
REMARK    5  A    between atoms: C_9  and  N_10
REMARK    6  A    between atoms: C_14  and  C_15
REMARK    7  A    between atoms: C_21  and  C_22
REMARK    8  A    between atoms: C_28  and  C_29
REMARK                            x       y       z     vdW  Elec       q    Type
REMARK                         _______ _______ _______ _____ _____    ______ ____
ROOT
ATOM      1  C   UNL     1      46.704   8.625  12.187  0.00  0.00    +0.000 A 
ATOM      2  C   UNL     1      46.397   7.255  12.223  0.00  0.00    +0.000 A 
ATOM      3  C   UNL     1      45.140   6.755  11.854  0.00  0.00    +0.000 A 
ATOM      4  C   UNL     1      44.165   7.654  11.414  0.00  0.00    +0.000 A 
ATOM      5  C   UNL     1      44.435   9.025  11.347  0.00  0.00    +0.000 A 
ATOM      6  C   UNL     1      45.709   9.490  11.716  0.00  0.00    +0.000 A 
ENDROOT
BRANCH   1  10
ATOM      7  C   UNL     1      48.904   6.871  14.661  0.00  0.00    +0.000 C 
ATOM      8  C   UNL     1      49.404   8.301  14.464  0.00  0.00    +0.000 C 
ATOM      9  C   UNL     1      48.286   9.269  14.026  0.00  0.00    +0.000 C 
ATOM     10  N   UNL     1      47.936   9.073  12.615  0.00  0.00    +0.000 N 
ATOM     11  C   UNL     1      49.091   9.072  11.701  0.00  0.00    +0.000 C 
ATOM     12  C   UNL     1      50.174   8.091  12.200  0.00  0.00    +0.000 C 
ATOM     13  C   UNL     1      51.434   8.224  11.352  0.00  0.00    +0.000 C 
ATOM     14  O   UNL     1      50.534   8.345  13.570  0.00  0.00    +0.000 OA
ENDBRANCH   1  10
BRANCH   5  15
ATOM     15  C   UNL     1      43.368  10.011  10.941  0.00  0.00    +0.000 C 
ATOM     16  F   UNL     1      43.686  10.721   9.822  0.00  0.00    +0.000 F 
ATOM     17  F   UNL     1      42.181   9.401  10.664  0.00  0.00    +0.000 F 
ATOM     18  F   UNL     1      43.099  10.932  11.906  0.00  0.00    +0.000 F 
ENDBRANCH   5  15
BRANCH   3  19
ATOM     19  C   UNL     1      44.817   5.286  12.010  0.00  0.00    +0.000 C 
BRANCH  19  20
ATOM     20  C   UNL     1      43.700   4.877  11.047  0.00  0.00    +0.000 C 
BRANCH  20  21
ATOM     21  N   UNL     1      44.085   5.042   9.650  0.00  0.00    +0.000 N 
ATOM     22  C   UNL     1      44.828   4.009   9.081  0.00  0.00    +0.000 A 
ATOM     23  C   UNL     1      44.697   2.659   9.453  0.00  0.00    +0.000 A 
ATOM     24  N   UNL     1      45.415   1.636   8.924  0.00  0.00    +0.000 NA
ATOM     25  C   UNL     1      46.271   2.013   7.939  0.00  0.00    +0.000 A 
ATOM     26  C   UNL     1      46.393   3.333   7.531  0.00  0.00    +0.000 A 
ATOM     27  N   UNL     1      45.683   4.354   8.099  0.00  0.00    +0.000 NA
ATOM     28  H   UNL     1      44.535   5.921   9.393  0.00  0.00    +0.000 HD
BRANCH  25  29
ATOM     29  C   UNL     1      47.087   0.945   7.300  0.00  0.00    +0.000 C 
ATOM     30  N   UNL     1      46.818  -0.356   7.672  0.00  0.00    +0.000 N 
ATOM     31  O   UNL     1      47.958   1.197   6.488  0.00  0.00    +0.000 OA
ATOM     32  H   UNL     1      46.087  -0.573   8.341  0.00  0.00    +0.000 HD
ATOM     33  H   UNL     1      47.346  -1.106   7.239  0.00  0.00    +0.000 HD
ENDBRANCH  25  29
ENDBRANCH  20  21
ENDBRANCH  19  20
ENDBRANCH   3  19
TORSDOF 6
ENDMDL
MODEL 4
REMARK VINA RESULT:    -7.610      1.188      1.896
REMARK INTER + INTRA:         -11.412
REMARK INTER:                 -11.162
REMARK INTRA:                  -0.249
REMARK UNBOUND:                -1.133
REMARK  Name = 
REMARK  8 active torsions:
REMARK  status: ('A' for Active; 'I' for Inactive)
REMARK    1  A    between atoms: C_1  and  C_2
REMARK    2  A    between atoms: N_4  and  C_5
REMARK    3  A    between atoms: C_7  and  C_8
REMARK    4  A    between atoms: C_8  and  C_9
REMARK    5  A    between atoms: C_9  and  N_10
REMARK    6  A    between atoms: C_14  and  C_15
REMARK    7  A    between atoms: C_21  and  C_22
REMARK    8  A    between atoms: C_28  and  C_29
REMARK                            x       y       z     vdW  Elec       q    Type
REMARK                         _______ _______ _______ _____ _____    ______ ____
ROOT
ATOM      1  C   UNL     1      47.753   6.354  13.529  0.00  0.00    +0.000 A 
ATOM      2  C   UNL     1      46.857   5.694  12.672  0.00  0.00    +0.000 A 
ATOM      3  C   UNL     1      46.176   4.528  13.047  0.00  0.00    +0.000 A 
ATOM      4  C   UNL     1      46.383   4.016  14.330  0.00  0.00    +0.000 A 
ATOM      5  C   UNL     1      47.254   4.651  15.222  0.00  0.00    +0.000 A 
ATOM      6  C   UNL     1      47.912   5.824  14.815  0.00  0.00    +0.000 A 
ENDROOT
BRANCH   1  10
ATOM      7  C   UNL     1      46.184   9.523  12.290  0.00  0.00    +0.000 C 
ATOM      8  C   UNL     1      47.665   9.513  11.919  0.00  0.00    +0.000 C 
ATOM      9  C   UNL     1      48.236   8.087  11.780  0.00  0.00    +0.000 C 
ATOM     10  N   UNL     1      48.442   7.466  13.093  0.00  0.00    +0.000 N 
ATOM     11  C   UNL     1      49.196   8.300  14.044  0.00  0.00    +0.000 C 
ATOM     12  C   UNL     1      48.578   9.713  14.130  0.00  0.00    +0.000 C 
ATOM     13  C   UNL     1      49.463  10.621  14.977  0.00  0.00    +0.000 C 
ATOM     14  O   UNL     1      48.442  10.316  12.831  0.00  0.00    +0.000 OA
ENDBRANCH   1  10
BRANCH   5  15
ATOM     15  C   UNL     1      47.538   4.069  16.584  0.00  0.00    +0.000 C 
ATOM     16  F   UNL     1      48.625   3.246  16.604  0.00  0.00    +0.000 F 
ATOM     17  F   UNL     1      47.789   5.032  17.514  0.00  0.00    +0.000 F 
ATOM     18  F   UNL     1      46.503   3.334  17.075  0.00  0.00    +0.000 F 
ENDBRANCH   5  15
BRANCH   3  19
ATOM     19  C   UNL     1      45.304   3.790  12.056  0.00  0.00    +0.000 C 
BRANCH  19  20
ATOM     20  C   UNL     1      44.211   4.713  11.512  0.00  0.00    +0.000 C 
BRANCH  20  21
ATOM     21  N   UNL     1      44.458   5.111  10.131  0.00  0.00    +0.000 N 
ATOM     22  C   UNL     1      45.157   4.206   9.336  0.00  0.00    +0.000 A 
ATOM     23  C   UNL     1      45.081   2.811   9.493  0.00  0.00    +0.000 A 
ATOM     24  N   UNL     1      45.759   1.908   8.741  0.00  0.00    +0.000 NA
ATOM     25  C   UNL     1      46.511   2.462   7.755  0.00  0.00    +0.000 A 
ATOM     26  C   UNL     1      46.575   3.834   7.558  0.00  0.00    +0.000 A 
ATOM     27  N   UNL     1      45.909   4.729   8.348  0.00  0.00    +0.000 NA
ATOM     28  H   UNL     1      44.868   6.033   9.981  0.00  0.00    +0.000 HD
BRANCH  25  29
ATOM     29  C   UNL     1      47.276   1.535   6.878  0.00  0.00    +0.000 C 
ATOM     30  N   UNL     1      48.334   2.071   6.172  0.00  0.00    +0.000 N 
ATOM     31  O   UNL     1      46.987   0.357   6.776  0.00  0.00    +0.000 OA
ATOM     32  H   UNL     1      48.584   3.050   6.260  0.00  0.00    +0.000 HD
ATOM     33  H   UNL     1      48.885   1.459   5.580  0.00  0.00    +0.000 HD
ENDBRANCH  25  29
ENDBRANCH  20  21
ENDBRANCH  19  20
ENDBRANCH   3  19
TORSDOF 6
ENDMDL
MODEL 5
REMARK VINA RESULT:    -7.073      3.039      4.457
REMARK INTER + INTRA:         -10.687
REMARK INTER:                  -9.667
REMARK INTRA:                  -1.020
REMARK UNBOUND:                -1.133
REMARK  Name = 
REMARK  8 active torsions:
REMARK  status: ('A' for Active; 'I' for Inactive)
REMARK    1  A    between atoms: C_1  and  C_2
REMARK    2  A    between atoms: N_4  and  C_5
REMARK    3  A    between atoms: C_7  and  C_8
REMARK    4  A    between atoms: C_8  and  C_9
REMARK    5  A    between atoms: C_9  and  N_10
REMARK    6  A    between atoms: C_14  and  C_15
REMARK    7  A    between atoms: C_21  and  C_22
REMARK    8  A    between atoms: C_28  and  C_29
REMARK                            x       y       z     vdW  Elec       q    Type
REMARK                         _______ _______ _______ _____ _____    ______ ____
ROOT
ATOM      1  C   UNL     1      48.092   6.295  14.242  0.00  0.00    +0.000 A 
ATOM      2  C   UNL     1      46.782   6.043  13.801  0.00  0.00    +0.000 A 
ATOM      3  C   UNL     1      46.192   6.756  12.747  0.00  0.00    +0.000 A 
ATOM      4  C   UNL     1      46.945   7.738  12.099  0.00  0.00    +0.000 A 
ATOM      5  C   UNL     1      48.259   8.009  12.495  0.00  0.00    +0.000 A 
ATOM      6  C   UNL     1      48.821   7.269  13.549  0.00  0.00    +0.000 A 
ENDROOT
BRANCH   1  10
ATOM      7  C   UNL     1      47.842   7.378  17.820  0.00  0.00    +0.000 C 
ATOM      8  C   UNL     1      48.880   6.264  17.700  0.00  0.00    +0.000 C 
ATOM      9  C   UNL     1      49.524   6.198  16.300  0.00  0.00    +0.000 C 
ATOM     10  N   UNL     1      48.606   5.607  15.320  0.00  0.00    +0.000 N 
ATOM     11  C   UNL     1      48.012   4.328  15.745  0.00  0.00    +0.000 C 
ATOM     12  C   UNL     1      47.393   4.461  17.153  0.00  0.00    +0.000 C 
ATOM     13  C   UNL     1      46.938   3.096  17.658  0.00  0.00    +0.000 C 
ATOM     14  O   UNL     1      48.335   4.992  18.102  0.00  0.00    +0.000 OA
ENDBRANCH   1  10
BRANCH   5  15
ATOM     15  C   UNL     1      49.056   9.114  11.850  0.00  0.00    +0.000 C 
ATOM     16  F   UNL     1      48.296   9.963  11.103  0.00  0.00    +0.000 F 
ATOM     17  F   UNL     1      49.688   9.898  12.768  0.00  0.00    +0.000 F 
ATOM     18  F   UNL     1      50.030   8.653  11.018  0.00  0.00    +0.000 F 
ENDBRANCH   5  15
BRANCH   3  19
ATOM     19  C   UNL     1      44.744   6.527  12.376  0.00  0.00    +0.000 C 
BRANCH  19  20
ATOM     20  C   UNL     1      44.590   5.221  11.594  0.00  0.00    +0.000 C 
BRANCH  20  21
ATOM     21  N   UNL     1      44.717   5.419  10.154  0.00  0.00    +0.000 N 
ATOM     22  C   UNL     1      45.253   4.362   9.423  0.00  0.00    +0.000 A 
ATOM     23  C   UNL     1      45.087   3.010   9.772  0.00  0.00    +0.000 A 
ATOM     24  N   UNL     1      45.607   1.962   9.084  0.00  0.00    +0.000 NA
ATOM     25  C   UNL     1      46.289   2.318   7.965  0.00  0.00    +0.000 A 
ATOM     26  C   UNL     1      46.437   3.643   7.581  0.00  0.00    +0.000 A 
ATOM     27  N   UNL     1      45.932   4.687   8.306  0.00  0.00    +0.000 NA
ATOM     28  H   UNL     1      45.178   6.274   9.842  0.00  0.00    +0.000 HD
BRANCH  25  29
ATOM     29  C   UNL     1      46.880   1.224   7.149  0.00  0.00    +0.000 C 
ATOM     30  N   UNL     1      46.793  -0.055   7.659  0.00  0.00    +0.000 N 
ATOM     31  O   UNL     1      47.425   1.436   6.082  0.00  0.00    +0.000 OA
ATOM     32  H   UNL     1      46.332  -0.239   8.544  0.00  0.00    +0.000 HD
ATOM     33  H   UNL     1      47.171  -0.824   7.116  0.00  0.00    +0.000 HD
ENDBRANCH  25  29
ENDBRANCH  20  21
ENDBRANCH  19  20
ENDBRANCH   3  19
TORSDOF 6
ENDMDL
MODEL 6
REMARK VINA RESULT:    -6.937      3.104      6.699
REMARK INTER + INTRA:         -10.502
REMARK INTER:                  -9.448
REMARK INTRA:                  -1.054
REMARK UNBOUND:                -1.133
REMARK  Name = 
REMARK  8 active torsions:
REMARK  status: ('A' for Active; 'I' for Inactive)
REMARK    1  A    between atoms: C_1  and  C_2
REMARK    2  A    between atoms: N_4  and  C_5
REMARK    3  A    between atoms: C_7  and  C_8
REMARK    4  A    between atoms: C_8  and  C_9
REMARK    5  A    between atoms: C_9  and  N_10
REMARK    6  A    between atoms: C_14  and  C_15
REMARK    7  A    between atoms: C_21  and  C_22
REMARK    8  A    between atoms: C_28  and  C_29
REMARK                            x       y       z     vdW  Elec       q    Type
REMARK                         _______ _______ _______ _____ _____    ______ ____
ROOT
ATOM      1  C   UNL     1      46.044   4.728  13.264  0.00  0.00    +0.000 A 
ATOM      2  C   UNL     1      46.577   5.832  12.578  0.00  0.00    +0.000 A 
ATOM      3  C   UNL     1      47.589   6.638  13.120  0.00  0.00    +0.000 A 
ATOM      4  C   UNL     1      48.098   6.317  14.380  0.00  0.00    +0.000 A 
ATOM      5  C   UNL     1      47.607   5.216  15.091  0.00  0.00    +0.000 A 
ATOM      6  C   UNL     1      46.599   4.425  14.513  0.00  0.00    +0.000 A 
ENDROOT
BRANCH   1  10
ATOM      7  C   UNL     1      43.159   6.170  11.357  0.00  0.00    +0.000 C 
ATOM      8  C   UNL     1      42.846   4.723  11.729  0.00  0.00    +0.000 C 
ATOM      9  C   UNL     1      43.593   4.258  12.996  0.00  0.00    +0.000 C 
ATOM     10  N   UNL     1      45.010   4.001  12.714  0.00  0.00    +0.000 N 
ATOM     11  C   UNL     1      45.245   3.129  11.550  0.00  0.00    +0.000 C 
ATOM     12  C   UNL     1      44.465   3.645  10.322  0.00  0.00    +0.000 C 
ATOM     13  C   UNL     1      44.570   2.645   9.176  0.00  0.00    +0.000 C 
ATOM     14  O   UNL     1      43.069   3.833  10.617  0.00  0.00    +0.000 OA
ENDBRANCH   1  10
BRANCH   5  15
ATOM     15  C   UNL     1      48.100   4.902  16.480  0.00  0.00    +0.000 C 
ATOM     16  F   UNL     1      49.081   5.745  16.909  0.00  0.00    +0.000 F 
ATOM     17  F   UNL     1      47.108   4.989  17.411  0.00  0.00    +0.000 F 
ATOM     18  F   UNL     1      48.610   3.645  16.594  0.00  0.00    +0.000 F 
ENDBRANCH   5  15
BRANCH   3  19
ATOM     19  C   UNL     1      48.058   7.880  12.394  0.00  0.00    +0.000 C 
BRANCH  19  20
ATOM     20  C   UNL     1      48.076   9.080  13.343  0.00  0.00    +0.000 C 
BRANCH  20  21
ATOM     21  N   UNL     1      47.610  10.303  12.698  0.00  0.00    +0.000 N 
ATOM     22  C   UNL     1      46.348  10.257  12.111  0.00  0.00    +0.000 A 
ATOM     23  C   UNL     1      45.293   9.461  12.592  0.00  0.00    +0.000 A 
ATOM     24  N   UNL     1      44.059   9.389  12.033  0.00  0.00    +0.000 NA
ATOM     25  C   UNL     1      43.889  10.205  10.961  0.00  0.00    +0.000 A 
ATOM     26  C   UNL     1      44.903  11.025  10.488  0.00  0.00    +0.000 A 
ATOM     27  N   UNL     1      46.151  11.059  11.046  0.00  0.00    +0.000 NA
ATOM     28  H   UNL     1      48.243  10.747  12.033  0.00  0.00    +0.000 HD
BRANCH  25  29
ATOM     29  C   UNL     1      42.556  10.192  10.298  0.00  0.00    +0.000 C 
ATOM     30  N   UNL     1      41.522   9.587  10.982  0.00  0.00    +0.000 N 
ATOM     31  O   UNL     1      42.377  10.685   9.199  0.00  0.00    +0.000 OA
ATOM     32  H   UNL     1      41.664   9.183  11.902  0.00  0.00    +0.000 HD
ATOM     33  H   UNL     1      40.599   9.579  10.563  0.00  0.00    +0.000 HD
ENDBRANCH  25  29
ENDBRANCH  20  21
ENDBRANCH  19  20
ENDBRANCH   3  19
TORSDOF 6
ENDMDL
MODEL 7
REMARK VINA RESULT:    -6.606      4.887      6.672
REMARK INTER + INTRA:         -10.056
REMARK INTER:                  -8.947
REMARK INTRA:                  -1.109
REMARK UNBOUND:                -1.133
REMARK  Name = 
REMARK  8 active torsions:
REMARK  status: ('A' for Active; 'I' for Inactive)
REMARK    1  A    between atoms: C_1  and  C_2
REMARK    2  A    between atoms: N_4  and  C_5
REMARK    3  A    between atoms: C_7  and  C_8
REMARK    4  A    between atoms: C_8  and  C_9
REMARK    5  A    between atoms: C_9  and  N_10
REMARK    6  A    between atoms: C_14  and  C_15
REMARK    7  A    between atoms: C_21  and  C_22
REMARK    8  A    between atoms: C_28  and  C_29
REMARK                            x       y       z     vdW  Elec       q    Type
REMARK                         _______ _______ _______ _____ _____    ______ ____
ROOT
ATOM      1  C   UNL     1      51.296   5.149  17.381  0.00  0.00    +0.000 A 
ATOM      2  C   UNL     1      50.822   6.264  16.669  0.00  0.00    +0.000 A 
ATOM      3  C   UNL     1      49.489   6.378  16.249  0.00  0.00    +0.000 A 
ATOM      4  C   UNL     1      48.596   5.353  16.571  0.00  0.00    +0.000 A 
ATOM      5  C   UNL     1      49.022   4.233  17.293  0.00  0.00    +0.000 A 
ATOM      6  C   UNL     1      50.363   4.156  17.705  0.00  0.00    +0.000 A 
ENDROOT
BRANCH   1  10
ATOM      7  C   UNL     1      52.956   7.043  20.154  0.00  0.00    +0.000 C 
ATOM      8  C   UNL     1      54.024   6.431  19.251  0.00  0.00    +0.000 C 
ATOM      9  C   UNL     1      53.529   6.212  17.806  0.00  0.00    +0.000 C 
ATOM     10  N   UNL     1      52.628   5.057  17.722  0.00  0.00    +0.000 N 
ATOM     11  C   UNL     1      53.159   3.831  18.343  0.00  0.00    +0.000 C 
ATOM     12  C   UNL     1      53.643   4.121  19.781  0.00  0.00    +0.000 C 
ATOM     13  C   UNL     1      54.350   2.897  20.353  0.00  0.00    +0.000 C 
ATOM     14  O   UNL     1      54.567   5.223  19.821  0.00  0.00    +0.000 OA
ENDBRANCH   1  10
BRANCH   5  15
ATOM     15  C   UNL     1      48.084   3.089  17.583  0.00  0.00    +0.000 C 
ATOM     16  F   UNL     1      46.773   3.400  17.378  0.00  0.00    +0.000 F 
ATOM     17  F   UNL     1      48.331   2.006  16.794  0.00  0.00    +0.000 F 
ATOM     18  F   UNL     1      48.167   2.644  18.866  0.00  0.00    +0.000 F 
ENDBRANCH   5  15
BRANCH   3  19
ATOM     19  C   UNL     1      49.047   7.544  15.393  0.00  0.00    +0.000 C 
BRANCH  19  20
ATOM     20  C   UNL     1      48.524   7.048  14.042  0.00  0.00    +0.000 C 
BRANCH  20  21
ATOM     21  N   UNL     1      47.125   7.399  13.827  0.00  0.00    +0.000 N 
ATOM     22  C   UNL     1      46.296   6.391  13.339  0.00  0.00    +0.000 A 
ATOM     23  C   UNL     1      46.474   5.027  13.630  0.00  0.00    +0.000 A 
ATOM     24  N   UNL     1      45.690   4.025  13.160  0.00  0.00    +0.000 NA
ATOM     25  C   UNL     1      44.650   4.449  12.396  0.00  0.00    +0.000 A 
ATOM     26  C   UNL     1      44.433   5.792  12.123  0.00  0.00    +0.000 A 
ATOM     27  N   UNL     1      45.255   6.784  12.580  0.00  0.00    +0.000 NA
ATOM     28  H   UNL     1      46.937   8.242  13.283  0.00  0.00    +0.000 HD
BRANCH  25  29
ATOM     29  C   UNL     1      43.735   3.409  11.852  0.00  0.00    +0.000 C 
ATOM     30  N   UNL     1      43.693   2.201  12.518  0.00  0.00    +0.000 N 
ATOM     31  O   UNL     1      43.055   3.602  10.861  0.00  0.00    +0.000 OA
ATOM     32  H   UNL     1      44.251   2.038  13.349  0.00  0.00    +0.000 HD
ATOM     33  H   UNL     1      43.065   1.481  12.181  0.00  0.00    +0.000 HD
ENDBRANCH  25  29
ENDBRANCH  20  21
ENDBRANCH  19  20
ENDBRANCH   3  19
TORSDOF 6
ENDMDL
MODEL 8
REMARK VINA RESULT:    -6.523      3.961      6.306
REMARK INTER + INTRA:          -9.944
REMARK INTER:                  -8.770
REMARK INTRA:                  -1.174
REMARK UNBOUND:                -1.133
REMARK  Name = 
REMARK  8 active torsions:
REMARK  status: ('A' for Active; 'I' for Inactive)
REMARK    1  A    between atoms: C_1  and  C_2
REMARK    2  A    between atoms: N_4  and  C_5
REMARK    3  A    between atoms: C_7  and  C_8
REMARK    4  A    between atoms: C_8  and  C_9
REMARK    5  A    between atoms: C_9  and  N_10
REMARK    6  A    between atoms: C_14  and  C_15
REMARK    7  A    between atoms: C_21  and  C_22
REMARK    8  A    between atoms: C_28  and  C_29
REMARK                            x       y       z     vdW  Elec       q    Type
REMARK                         _______ _______ _______ _____ _____    ______ ____
ROOT
ATOM      1  C   UNL     1      49.010   6.224  16.240  0.00  0.00    +0.000 A 
ATOM      2  C   UNL     1      48.411   6.617  15.032  0.00  0.00    +0.000 A 
ATOM      3  C   UNL     1      49.094   7.361  14.059  0.00  0.00    +0.000 A 
ATOM      4  C   UNL     1      50.427   7.705  14.294  0.00  0.00    +0.000 A 
ATOM      5  C   UNL     1      51.068   7.319  15.476  0.00  0.00    +0.000 A 
ATOM      6  C   UNL     1      50.356   6.566  16.425  0.00  0.00    +0.000 A 
ENDROOT
BRANCH   1  10
ATOM      7  C   UNL     1      49.349   2.576  17.024  0.00  0.00    +0.000 C 
ATOM      8  C   UNL     1      48.064   3.111  17.653  0.00  0.00    +0.000 C 
ATOM      9  C   UNL     1      47.498   4.335  16.902  0.00  0.00    +0.000 C 
ATOM     10  N   UNL     1      48.279   5.543  17.189  0.00  0.00    +0.000 N 
ATOM     11  C   UNL     1      48.497   5.794  18.624  0.00  0.00    +0.000 C 
ATOM     12  C   UNL     1      49.056   4.531  19.315  0.00  0.00    +0.000 C 
ATOM     13  C   UNL     1      49.112   4.740  20.824  0.00  0.00    +0.000 C 
ATOM     14  O   UNL     1      48.236   3.376  19.059  0.00  0.00    +0.000 OA
ENDBRANCH   1  10
BRANCH   5  15
ATOM     15  C   UNL     1      52.484   7.745  15.770  0.00  0.00    +0.000 C 
ATOM     16  F   UNL     1      53.377   6.715  15.733  0.00  0.00    +0.000 F 
ATOM     17  F   UNL     1      52.944   8.662  14.873  0.00  0.00    +0.000 F 
ATOM     18  F   UNL     1      52.625   8.318  16.996  0.00  0.00    +0.000 F 
ENDBRANCH   5  15
BRANCH   3  19
ATOM     19  C   UNL     1      48.378   7.856  12.822  0.00  0.00    +0.000 C 
BRANCH  19  20
ATOM     20  C   UNL     1      46.964   8.327  13.173  0.00  0.00    +0.000 C 
BRANCH  20  21
ATOM     21  N   UNL     1      46.009   8.058  12.104  0.00  0.00    +0.000 N 
ATOM     22  C   UNL     1      45.493   6.765  12.038  0.00  0.00    +0.000 A 
ATOM     23  C   UNL     1      45.291   5.949  13.165  0.00  0.00    +0.000 A 
ATOM     24  N   UNL     1      44.801   4.684  13.129  0.00  0.00    +0.000 NA
ATOM     25  C   UNL     1      44.463   4.258  11.885  0.00  0.00    +0.000 A 
ATOM     26  C   UNL     1      44.621   5.057  10.762  0.00  0.00    +0.000 A 
ATOM     27  N   UNL     1      45.147   6.317  10.816  0.00  0.00    +0.000 NA
ATOM     28  H   UNL     1      46.283   8.328  11.159  0.00  0.00    +0.000 HD
BRANCH  25  29
ATOM     29  C   UNL     1      43.907   2.883  11.763  0.00  0.00    +0.000 C 
ATOM     30  N   UNL     1      44.054   2.253  10.544  0.00  0.00    +0.000 N 
ATOM     31  O   UNL     1      43.340   2.332  12.689  0.00  0.00    +0.000 OA
ATOM     32  H   UNL     1      44.533   2.705   9.772  0.00  0.00    +0.000 HD
ATOM     33  H   UNL     1      43.701   1.309  10.438  0.00  0.00    +0.000 HD
ENDBRANCH  25  29
ENDBRANCH  20  21
ENDBRANCH  19  20
ENDBRANCH   3  19
TORSDOF 6
ENDMDL
MODEL 9
REMARK VINA RESULT:    -6.500      4.268      6.345
REMARK INTER + INTRA:          -9.913
REMARK INTER:                  -8.841
REMARK INTRA:                  -1.072
REMARK UNBOUND:                -1.133
REMARK  Name = 
REMARK  8 active torsions:
REMARK  status: ('A' for Active; 'I' for Inactive)
REMARK    1  A    between atoms: C_1  and  C_2
REMARK    2  A    between atoms: N_4  and  C_5
REMARK    3  A    between atoms: C_7  and  C_8
REMARK    4  A    between atoms: C_8  and  C_9
REMARK    5  A    between atoms: C_9  and  N_10
REMARK    6  A    between atoms: C_14  and  C_15
REMARK    7  A    between atoms: C_21  and  C_22
REMARK    8  A    between atoms: C_28  and  C_29
REMARK                            x       y       z     vdW  Elec       q    Type
REMARK                         _______ _______ _______ _____ _____    ______ ____
ROOT
ATOM      1  C   UNL     1      48.401   7.027  18.653  0.00  0.00    +0.000 A 
ATOM      2  C   UNL     1      48.796   7.561  17.416  0.00  0.00    +0.000 A 
ATOM      3  C   UNL     1      48.955   6.769  16.270  0.00  0.00    +0.000 A 
ATOM      4  C   UNL     1      48.689   5.401  16.360  0.00  0.00    +0.000 A 
ATOM      5  C   UNL     1      48.276   4.830  17.569  0.00  0.00    +0.000 A 
ATOM      6  C   UNL     1      48.119   5.656  18.695  0.00  0.00    +0.000 A 
ENDROOT
BRANCH   1  10
ATOM      7  C   UNL     1      50.495  10.069  19.280  0.00  0.00    +0.000 C 
ATOM      8  C   UNL     1      49.788   9.667  20.573  0.00  0.00    +0.000 C 
ATOM      9  C   UNL     1      49.456   8.162  20.627  0.00  0.00    +0.000 C 
ATOM     10  N   UNL     1      48.314   7.838  19.765  0.00  0.00    +0.000 N 
ATOM     11  C   UNL     1      47.137   8.698  19.974  0.00  0.00    +0.000 C 
ATOM     12  C   UNL     1      47.539  10.188  19.915  0.00  0.00    +0.000 C 
ATOM     13  C   UNL     1      46.356  11.066  20.306  0.00  0.00    +0.000 C 
ATOM     14  O   UNL     1      48.624  10.483  20.812  0.00  0.00    +0.000 OA
ENDBRANCH   1  10
BRANCH   5  15
ATOM     15  C   UNL     1      48.055   3.344  17.695  0.00  0.00    +0.000 C 
ATOM     16  F   UNL     1      48.759   2.614  16.785  0.00  0.00    +0.000 F 
ATOM     17  F   UNL     1      48.429   2.869  18.916  0.00  0.00    +0.000 F 
ATOM     18  F   UNL     1      46.752   2.984  17.537  0.00  0.00    +0.000 F 
ENDBRANCH   5  15
BRANCH   3  19
ATOM     19  C   UNL     1      49.486   7.366  14.986  0.00  0.00    +0.000 C 
BRANCH  19  20
ATOM     20  C   UNL     1      48.736   6.797  13.779  0.00  0.00    +0.000 C 
BRANCH  20  21
ATOM     21  N   UNL     1      47.335   7.202  13.756  0.00  0.00    +0.000 N 
ATOM     22  C   UNL     1      46.416   6.249  13.322  0.00  0.00    +0.000 A 
ATOM     23  C   UNL     1      46.578   4.866  13.517  0.00  0.00    +0.000 A 
ATOM     24  N   UNL     1      45.706   3.916  13.095  0.00  0.00    +0.000 NA
ATOM     25  C   UNL     1      44.598   4.414  12.488  0.00  0.00    +0.000 A 
ATOM     26  C   UNL     1      44.399   5.776  12.314  0.00  0.00    +0.000 A 
ATOM     27  N   UNL     1      45.306   6.716  12.718  0.00  0.00    +0.000 NA
ATOM     28  H   UNL     1      47.114   8.080  13.285  0.00  0.00    +0.000 HD
BRANCH  25  29
ATOM     29  C   UNL     1      43.586   3.435  12.007  0.00  0.00    +0.000 C 
ATOM     30  N   UNL     1      43.718   2.132  12.442  0.00  0.00    +0.000 N 
ATOM     31  O   UNL     1      42.682   3.756  11.257  0.00  0.00    +0.000 OA
ATOM     32  H   UNL     1      44.464   1.861  13.074  0.00  0.00    +0.000 HD
ATOM     33  H   UNL     1      43.032   1.447  12.145  0.00  0.00    +0.000 HD
ENDBRANCH  25  29
ENDBRANCH  20  21
ENDBRANCH  19  20
ENDBRANCH   3  19
TORSDOF 6
ENDMDL
