MODEL 1
REMARK VINA RESULT:    -7.997      0.000      0.000
REMARK INTER + INTRA:         -10.545
REMARK INTER:                 -10.101
REMARK INTRA:                  -0.445
REMARK UNBOUND:                -0.445
REMARK  Name = 
REMARK  8 active torsions:
REMARK  status: ('A' for Active; 'I' for Inactive)
REMARK    1  A    between atoms: C_1  and  C_2
REMARK    2  A    between atoms: C_2  and  C_3
REMARK    3  A    between atoms: C_2  and  C_4
REMARK    4  A    between atoms: C_2  and  C_5
REMARK    5  A    between atoms: C_7  and  C_8
REMARK    6  A    between atoms: C_8  and  N_9
REMARK    7  A    between atoms: C_14  and  C_15
REMARK    8  A    between atoms: C_23  and  O_24
REMARK                            x       y       z     vdW  Elec       q    Type
REMARK                         _______ _______ _______ _____ _____    ______ ____
ROOT
ATOM      1  N   UNL     1      43.971   4.456  10.487  0.00  0.00    +0.000 N 
ATOM      2  N   UNL     1      43.378   3.396  11.080  0.00  0.00    +0.000 NA
ATOM      3  N   UNL     1      43.905   2.298  10.560  0.00  0.00    +0.000 NA
ATOM      4  C   UNL     1      44.825   2.671   9.616  0.00  0.00    +0.000 A 
ATOM      5  C   UNL     1      45.586   1.891   8.734  0.00  0.00    +0.000 A 
ATOM      6  C   UNL     1      46.436   2.545   7.827  0.00  0.00    +0.000 A 
ATOM      7  C   UNL     1      46.525   3.950   7.832  0.00  0.00    +0.000 A 
ATOM      8  C   UNL     1      45.772   4.738   8.709  0.00  0.00    +0.000 A 
ATOM      9  C   UNL     1      44.916   4.056   9.580  0.00  0.00    +0.000 A 
ENDROOT
BRANCH   6  10
ATOM     10  C   UNL     1      47.253   1.816   6.813  0.00  0.00    +0.000 C 
ATOM     11  N   UNL     1      48.248   2.492   6.165  0.00  0.00    +0.000 N 
ATOM     12  O   UNL     1      47.050   0.638   6.561  0.00  0.00    +0.000 OA
ATOM     13  H   UNL     1      48.478   3.464   6.287  0.00  0.00    +0.000 HD
ATOM     14  H   UNL     1      48.770   1.967   5.474  0.00  0.00    +0.000 HD
ENDBRANCH   6  10
BRANCH   1  15
ATOM     15  C   UNL     1      43.392   5.781  10.632  0.00  0.00    +0.000 C 
BRANCH  15  18
ATOM     16  C   UNL     1      46.346   7.110  12.712  0.00  0.00    +0.000 A 
ATOM     17  C   UNL     1      45.417   6.258  12.057  0.00  0.00    +0.000 A 
ATOM     18  C   UNL     1      44.286   6.743  11.377  0.00  0.00    +0.000 A 
ATOM     19  C   UNL     1      44.066   8.123  11.353  0.00  0.00    +0.000 A 
ATOM     20  C   UNL     1      44.970   8.987  11.968  0.00  0.00    +0.000 A 
ATOM     21  C   UNL     1      46.094   8.487  12.634  0.00  0.00    +0.000 A 
BRANCH  16  23
ATOM     22  C   UNL     1      48.795   6.607  12.497  0.00  0.00    +0.000 C 
ATOM     23  C   UNL     1      47.563   6.467  13.417  0.00  0.00    +0.000 C 
ATOM     24  C   UNL     1      47.296   4.965  13.682  0.00  0.00    +0.000 C 
ATOM     25  C   UNL     1      47.950   7.076  14.782  0.00  0.00    +0.000 C 
ENDBRANCH  16  23
BRANCH  21  26
ATOM     26  O   UNL     1      46.942   9.394  13.197  0.00  0.00    +0.000 OA
ATOM     27  H   UNL     1      47.791   8.967  13.397  0.00  0.00    +0.000 HD
ENDBRANCH  21  26
ENDBRANCH  15  18
ENDBRANCH   1  15
TORSDOF 5
ENDMDL
MODEL 2
REMARK VINA RESULT:    -6.510      5.577      8.508
REMARK INTER + INTRA:          -8.667
REMARK INTER:                  -8.319
REMARK INTRA:                  -0.349
REMARK UNBOUND:                -0.445
REMARK  Name = 
REMARK  8 active torsions:
REMARK  status: ('A' for Active; 'I' for Inactive)
REMARK    1  A    between atoms: C_1  and  C_2
REMARK    2  A    between atoms: C_2  and  C_3
REMARK    3  A    between atoms: C_2  and  C_4
REMARK    4  A    between atoms: C_2  and  C_5
REMARK    5  A    between atoms: C_7  and  C_8
REMARK    6  A    between atoms: C_8  and  N_9
REMARK    7  A    between atoms: C_14  and  C_15
REMARK    8  A    between atoms: C_23  and  O_24
REMARK                            x       y       z     vdW  Elec       q    Type
REMARK                         _______ _______ _______ _____ _____    ______ ____
ROOT
ATOM      1  N   UNL     1      48.318   3.200  16.692  0.00  0.00    +0.000 N 
ATOM      2  N   UNL     1      48.604   2.160  15.876  0.00  0.00    +0.000 NA
ATOM      3  N   UNL     1      49.841   1.769  16.142  0.00  0.00    +0.000 NA
ATOM      4  C   UNL     1      50.345   2.583  17.122  0.00  0.00    +0.000 A 
ATOM      5  C   UNL     1      51.627   2.634  17.688  0.00  0.00    +0.000 A 
ATOM      6  C   UNL     1      51.890   3.610  18.664  0.00  0.00    +0.000 A 
ATOM      7  C   UNL     1      50.871   4.495  19.066  0.00  0.00    +0.000 A 
ATOM      8  C   UNL     1      49.588   4.452  18.510  0.00  0.00    +0.000 A 
ATOM      9  C   UNL     1      49.369   3.486  17.523  0.00  0.00    +0.000 A 
ENDROOT
BRANCH   6  10
ATOM     10  C   UNL     1      53.231   3.784  19.295  0.00  0.00    +0.000 C 
ATOM     11  N   UNL     1      53.684   2.815  20.146  0.00  0.00    +0.000 N 
ATOM     12  O   UNL     1      53.921   4.764  19.062  0.00  0.00    +0.000 OA
ATOM     13  H   UNL     1      53.184   1.985  20.416  0.00  0.00    +0.000 HD
ATOM     14  H   UNL     1      54.592   2.976  20.565  0.00  0.00    +0.000 HD
ENDBRANCH   6  10
BRANCH   1  15
ATOM     15  C   UNL     1      47.154   4.027  16.427  0.00  0.00    +0.000 C 
BRANCH  15  18
ATOM     16  C   UNL     1      46.366   5.413  12.922  0.00  0.00    +0.000 A 
ATOM     17  C   UNL     1      46.363   4.633  14.110  0.00  0.00    +0.000 A 
ATOM     18  C   UNL     1      47.276   4.839  15.160  0.00  0.00    +0.000 A 
ATOM     19  C   UNL     1      48.229   5.851  15.022  0.00  0.00    +0.000 A 
ATOM     20  C   UNL     1      48.245   6.648  13.879  0.00  0.00    +0.000 A 
ATOM     21  C   UNL     1      47.325   6.433  12.847  0.00  0.00    +0.000 A 
BRANCH  16  23
ATOM     22  C   UNL     1      44.024   5.902  12.166  0.00  0.00    +0.000 C 
ATOM     23  C   UNL     1      45.307   5.106  11.839  0.00  0.00    +0.000 C 
ATOM     24  C   UNL     1      44.975   3.593  11.827  0.00  0.00    +0.000 C 
ATOM     25  C   UNL     1      45.701   5.465  10.390  0.00  0.00    +0.000 C 
ENDBRANCH  16  23
BRANCH  21  26
ATOM     26  O   UNL     1      47.391   7.263  11.767  0.00  0.00    +0.000 OA
ATOM     27  H   UNL     1      47.329   8.186  12.062  0.00  0.00    +0.000 HD
ENDBRANCH  21  26
ENDBRANCH  15  18
ENDBRANCH   1  15
TORSDOF 5
ENDMDL
MODEL 3
REMARK VINA RESULT:    -6.332      4.523      7.872
REMARK INTER + INTRA:          -8.443
REMARK INTER:                  -8.483
REMARK INTRA:                   0.040
REMARK UNBOUND:                -0.445
REMARK  Name = 
REMARK  8 active torsions:
REMARK  status: ('A' for Active; 'I' for Inactive)
REMARK    1  A    between atoms: C_1  and  C_2
REMARK    2  A    between atoms: C_2  and  C_3
REMARK    3  A    between atoms: C_2  and  C_4
REMARK    4  A    between atoms: C_2  and  C_5
REMARK    5  A    between atoms: C_7  and  C_8
REMARK    6  A    between atoms: C_8  and  N_9
REMARK    7  A    between atoms: C_14  and  C_15
REMARK    8  A    between atoms: C_23  and  O_24
REMARK                            x       y       z     vdW  Elec       q    Type
REMARK                         _______ _______ _______ _____ _____    ______ ____
ROOT
ATOM      1  N   UNL     1      47.866   5.316  14.889  0.00  0.00    +0.000 N 
ATOM      2  N   UNL     1      47.534   4.055  14.530  0.00  0.00    +0.000 NA
ATOM      3  N   UNL     1      47.606   3.297  15.614  0.00  0.00    +0.000 NA
ATOM      4  C   UNL     1      48.004   4.085  16.661  0.00  0.00    +0.000 A 
ATOM      5  C   UNL     1      48.306   3.745  17.987  0.00  0.00    +0.000 A 
ATOM      6  C   UNL     1      48.737   4.761  18.856  0.00  0.00    +0.000 A 
ATOM      7  C   UNL     1      48.838   6.087  18.394  0.00  0.00    +0.000 A 
ATOM      8  C   UNL     1      48.537   6.438  17.073  0.00  0.00    +0.000 A 
ATOM      9  C   UNL     1      48.138   5.397  16.229  0.00  0.00    +0.000 A 
ENDROOT
BRANCH   6  10
ATOM     10  C   UNL     1      49.130   4.503  20.272  0.00  0.00    +0.000 C 
ATOM     11  N   UNL     1      50.459   4.497  20.591  0.00  0.00    +0.000 N 
ATOM     12  O   UNL     1      48.293   4.303  21.139  0.00  0.00    +0.000 OA
ATOM     13  H   UNL     1      51.222   4.630  19.949  0.00  0.00    +0.000 HD
ATOM     14  H   UNL     1      50.687   4.304  21.560  0.00  0.00    +0.000 HD
ENDBRANCH   6  10
BRANCH   1  15
ATOM     15  C   UNL     1      48.167   6.302  13.866  0.00  0.00    +0.000 C 
BRANCH  15  18
ATOM     16  C   UNL     1      44.831   6.063  11.960  0.00  0.00    +0.000 A 
ATOM     17  C   UNL     1      46.030   5.741  12.649  0.00  0.00    +0.000 A 
ATOM     18  C   UNL     1      46.958   6.715  13.061  0.00  0.00    +0.000 A 
ATOM     19  C   UNL     1      46.687   8.054  12.772  0.00  0.00    +0.000 A 
ATOM     20  C   UNL     1      45.510   8.406  12.116  0.00  0.00    +0.000 A 
ATOM     21  C   UNL     1      44.595   7.424  11.719  0.00  0.00    +0.000 A 
BRANCH  16  23
ATOM     22  C   UNL     1      44.316   3.633  12.315  0.00  0.00    +0.000 C 
ATOM     23  C   UNL     1      43.877   4.911  11.567  0.00  0.00    +0.000 C 
ATOM     24  C   UNL     1      43.945   4.655  10.042  0.00  0.00    +0.000 C 
ATOM     25  C   UNL     1      42.384   5.132  11.893  0.00  0.00    +0.000 C 
ENDBRANCH  16  23
BRANCH  21  26
ATOM     26  O   UNL     1      43.456   7.845  11.097  0.00  0.00    +0.000 OA
ATOM     27  H   UNL     1      43.644   8.648  10.583  0.00  0.00    +0.000 HD
ENDBRANCH  21  26
ENDBRANCH  15  18
ENDBRANCH   1  15
TORSDOF 5
ENDMDL
MODEL 4
REMARK VINA RESULT:    -6.255      3.533      5.594
REMARK INTER + INTRA:          -8.345
REMARK INTER:                  -7.730
REMARK INTRA:                  -0.615
REMARK UNBOUND:                -0.445
REMARK  Name = 
REMARK  8 active torsions:
REMARK  status: ('A' for Active; 'I' for Inactive)
REMARK    1  A    between atoms: C_1  and  C_2
REMARK    2  A    between atoms: C_2  and  C_3
REMARK    3  A    between atoms: C_2  and  C_4
REMARK    4  A    between atoms: C_2  and  C_5
REMARK    5  A    between atoms: C_7  and  C_8
REMARK    6  A    between atoms: C_8  and  N_9
REMARK    7  A    between atoms: C_14  and  C_15
REMARK    8  A    between atoms: C_23  and  O_24
REMARK                            x       y       z     vdW  Elec       q    Type
REMARK                         _______ _______ _______ _____ _____    ______ ____
ROOT
ATOM      1  N   UNL     1      47.737   5.332  14.705  0.00  0.00    +0.000 N 
ATOM      2  N   UNL     1      47.928   4.093  15.211  0.00  0.00    +0.000 NA
ATOM      3  N   UNL     1      47.201   3.250  14.493  0.00  0.00    +0.000 NA
ATOM      4  C   UNL     1      46.532   3.968  13.538  0.00  0.00    +0.000 A 
ATOM      5  C   UNL     1      45.582   3.556  12.593  0.00  0.00    +0.000 A 
ATOM      6  C   UNL     1      45.015   4.523  11.747  0.00  0.00    +0.000 A 
ATOM      7  C   UNL     1      45.420   5.868  11.846  0.00  0.00    +0.000 A 
ATOM      8  C   UNL     1      46.370   6.291  12.783  0.00  0.00    +0.000 A 
ATOM      9  C   UNL     1      46.893   5.306  13.627  0.00  0.00    +0.000 A 
ENDROOT
BRANCH   6  10
ATOM     10  C   UNL     1      43.960   4.203  10.742  0.00  0.00    +0.000 C 
ATOM     11  N   UNL     1      44.083   4.713   9.480  0.00  0.00    +0.000 N 
ATOM     12  O   UNL     1      43.005   3.498  11.025  0.00  0.00    +0.000 OA
ATOM     13  H   UNL     1      44.820   5.317   9.156  0.00  0.00    +0.000 HD
ATOM     14  H   UNL     1      43.341   4.485   8.830  0.00  0.00    +0.000 HD
ENDBRANCH   6  10
BRANCH   1  15
ATOM     15  C   UNL     1      48.162   6.495  15.465  0.00  0.00    +0.000 C 
BRANCH  15  18
ATOM     16  C   UNL     1      50.750   8.337  13.289  0.00  0.00    +0.000 A 
ATOM     17  C   UNL     1      49.563   7.712  13.757  0.00  0.00    +0.000 A 
ATOM     18  C   UNL     1      49.483   7.060  15.000  0.00  0.00    +0.000 A 
ATOM     19  C   UNL     1      50.624   7.022  15.805  0.00  0.00    +0.000 A 
ATOM     20  C   UNL     1      51.799   7.644  15.385  0.00  0.00    +0.000 A 
ATOM     21  C   UNL     1      51.858   8.293  14.148  0.00  0.00    +0.000 A 
BRANCH  16  23
ATOM     22  C   UNL     1      49.261   9.055  11.402  0.00  0.00    +0.000 C 
ATOM     23  C   UNL     1      50.719   9.036  11.911  0.00  0.00    +0.000 C 
ATOM     24  C   UNL     1      51.600   8.264  10.898  0.00  0.00    +0.000 C 
ATOM     25  C   UNL     1      51.222  10.496  11.884  0.00  0.00    +0.000 C 
ENDBRANCH  16  23
BRANCH  21  26
ATOM     26  O   UNL     1      53.036   8.894  13.812  0.00  0.00    +0.000 OA
ATOM     27  H   UNL     1      52.870   9.815  13.552  0.00  0.00    +0.000 HD
ENDBRANCH  21  26
ENDBRANCH  15  18
ENDBRANCH   1  15
TORSDOF 5
ENDMDL
MODEL 5
REMARK VINA RESULT:    -6.239      4.549      8.382
REMARK INTER + INTRA:          -8.325
REMARK INTER:                  -7.900
REMARK INTRA:                  -0.424
REMARK UNBOUND:                -0.445
REMARK  Name = 
REMARK  8 active torsions:
REMARK  status: ('A' for Active; 'I' for Inactive)
REMARK    1  A    between atoms: C_1  and  C_2
REMARK    2  A    between atoms: C_2  and  C_3
REMARK    3  A    between atoms: C_2  and  C_4
REMARK    4  A    between atoms: C_2  and  C_5
REMARK    5  A    between atoms: C_7  and  C_8
REMARK    6  A    between atoms: C_8  and  N_9
REMARK    7  A    between atoms: C_14  and  C_15
REMARK    8  A    between atoms: C_23  and  O_24
REMARK                            x       y       z     vdW  Elec       q    Type
REMARK                         _______ _______ _______ _____ _____    ______ ____
ROOT
ATOM      1  N   UNL     1      47.364   4.291  16.025  0.00  0.00    +0.000 N 
ATOM      2  N   UNL     1      46.553   3.623  16.875  0.00  0.00    +0.000 NA
ATOM      3  N   UNL     1      46.784   4.082  18.096  0.00  0.00    +0.000 NA
ATOM      4  C   UNL     1      47.764   5.036  18.015  0.00  0.00    +0.000 A 
ATOM      5  C   UNL     1      48.416   5.754  19.027  0.00  0.00    +0.000 A 
ATOM      6  C   UNL     1      49.428   6.656  18.662  0.00  0.00    +0.000 A 
ATOM      7  C   UNL     1      49.753   6.837  17.304  0.00  0.00    +0.000 A 
ATOM      8  C   UNL     1      49.108   6.128  16.285  0.00  0.00    +0.000 A 
ATOM      9  C   UNL     1      48.124   5.219  16.687  0.00  0.00    +0.000 A 
ENDROOT
BRANCH   6  10
ATOM     10  C   UNL     1      50.218   7.435  19.660  0.00  0.00    +0.000 C 
ATOM     11  N   UNL     1      49.735   7.547  20.933  0.00  0.00    +0.000 N 
ATOM     12  O   UNL     1      51.278   7.962  19.360  0.00  0.00    +0.000 OA
ATOM     13  H   UNL     1      48.866   7.168  21.271  0.00  0.00    +0.000 HD
ATOM     14  H   UNL     1      50.292   8.095  21.578  0.00  0.00    +0.000 HD
ENDBRANCH   6  10
BRANCH   1  15
ATOM     15  C   UNL     1      47.552   3.800  14.671  0.00  0.00    +0.000 C 
BRANCH  15  18
ATOM     16  C   UNL     1      44.985   5.029  12.078  0.00  0.00    +0.000 A 
ATOM     17  C   UNL     1      45.704   4.234  13.011  0.00  0.00    +0.000 A 
ATOM     18  C   UNL     1      46.893   4.667  13.625  0.00  0.00    +0.000 A 
ATOM     19  C   UNL     1      47.388   5.931  13.297  0.00  0.00    +0.000 A 
ATOM     20  C   UNL     1      46.695   6.745  12.402  0.00  0.00    +0.000 A 
ATOM     21  C   UNL     1      45.510   6.300  11.805  0.00  0.00    +0.000 A 
BRANCH  16  23
ATOM     22  C   UNL     1      43.440   3.052  12.071  0.00  0.00    +0.000 C 
ATOM     23  C   UNL     1      43.682   4.456  11.475  0.00  0.00    +0.000 C 
ATOM     24  C   UNL     1      43.810   4.339   9.937  0.00  0.00    +0.000 C 
ATOM     25  C   UNL     1      42.401   5.279  11.733  0.00  0.00    +0.000 C 
ENDBRANCH  16  23
BRANCH  21  26
ATOM     26  O   UNL     1      44.879   7.158  10.953  0.00  0.00    +0.000 OA
ATOM     27  H   UNL     1      44.928   8.062  11.305  0.00  0.00    +0.000 HD
ENDBRANCH  21  26
ENDBRANCH  15  18
ENDBRANCH   1  15
TORSDOF 5
ENDMDL
MODEL 6
REMARK VINA RESULT:    -6.190      4.180      6.239
REMARK INTER + INTRA:          -8.263
REMARK INTER:                  -8.172
REMARK INTRA:                  -0.091
REMARK UNBOUND:                -0.445
REMARK  Name = 
REMARK  8 active torsions:
REMARK  status: ('A' for Active; 'I' for Inactive)
REMARK    1  A    between atoms: C_1  and  C_2
REMARK    2  A    between atoms: C_2  and  C_3
REMARK    3  A    between atoms: C_2  and  C_4
REMARK    4  A    between atoms: C_2  and  C_5
REMARK    5  A    between atoms: C_7  and  C_8
REMARK    6  A    between atoms: C_8  and  N_9
REMARK    7  A    between atoms: C_14  and  C_15
REMARK    8  A    between atoms: C_23  and  O_24
REMARK                            x       y       z     vdW  Elec       q    Type
REMARK                         _______ _______ _______ _____ _____    ______ ____
ROOT
ATOM      1  N   UNL     1      47.800   5.672  14.328  0.00  0.00    +0.000 N 
ATOM      2  N   UNL     1      47.899   4.566  15.100  0.00  0.00    +0.000 NA
ATOM      3  N   UNL     1      47.136   3.629  14.558  0.00  0.00    +0.000 NA
ATOM      4  C   UNL     1      46.538   4.156  13.444  0.00  0.00    +0.000 A 
ATOM      5  C   UNL     1      45.585   3.602  12.578  0.00  0.00    +0.000 A 
ATOM      6  C   UNL     1      45.102   4.390  11.521  0.00  0.00    +0.000 A 
ATOM      7  C   UNL     1      45.591   5.698  11.337  0.00  0.00    +0.000 A 
ATOM      8  C   UNL     1      46.544   6.261  12.193  0.00  0.00    +0.000 A 
ATOM      9  C   UNL     1      46.982   5.458  13.251  0.00  0.00    +0.000 A 
ENDROOT
BRANCH   6  10
ATOM     10  C   UNL     1      44.053   3.917  10.571  0.00  0.00    +0.000 C 
ATOM     11  N   UNL     1      43.899   4.578   9.384  0.00  0.00    +0.000 N 
ATOM     12  O   UNL     1      43.342   2.959  10.834  0.00  0.00    +0.000 OA
ATOM     13  H   UNL     1      44.419   5.386   9.086  0.00  0.00    +0.000 HD
ATOM     14  H   UNL     1      43.167   4.236   8.773  0.00  0.00    +0.000 HD
ENDBRANCH   6  10
BRANCH   1  15
ATOM     15  C   UNL     1      48.282   6.948  14.830  0.00  0.00    +0.000 C 
BRANCH  15  18
ATOM     16  C   UNL     1      49.478   6.375  18.445  0.00  0.00    +0.000 A 
ATOM     17  C   UNL     1      48.670   6.593  17.297  0.00  0.00    +0.000 A 
ATOM     18  C   UNL     1      49.207   6.810  16.016  0.00  0.00    +0.000 A 
ATOM     19  C   UNL     1      50.597   6.818  15.871  0.00  0.00    +0.000 A 
ATOM     20  C   UNL     1      51.417   6.587  16.973  0.00  0.00    +0.000 A 
ATOM     21  C   UNL     1      50.865   6.366  18.239  0.00  0.00    +0.000 A 
BRANCH  16  23
ATOM     22  C   UNL     1      47.251   6.109  19.570  0.00  0.00    +0.000 C 
ATOM     23  C   UNL     1      48.778   6.133  19.801  0.00  0.00    +0.000 C 
ATOM     24  C   UNL     1      49.122   7.272  20.793  0.00  0.00    +0.000 C 
ATOM     25  C   UNL     1      49.143   4.818  20.523  0.00  0.00    +0.000 C 
ENDBRANCH  16  23
BRANCH  21  26
ATOM     26  O   UNL     1      51.731   6.130  19.266  0.00  0.00    +0.000 OA
ATOM     27  H   UNL     1      51.551   6.749  19.992  0.00  0.00    +0.000 HD
ENDBRANCH  21  26
ENDBRANCH  15  18
ENDBRANCH   1  15
TORSDOF 5
ENDMDL
MODEL 7
REMARK VINA RESULT:    -6.118      3.750      6.010
REMARK INTER + INTRA:          -8.173
REMARK INTER:                  -7.689
REMARK INTRA:                  -0.484
REMARK UNBOUND:                -0.445
REMARK  Name = 
REMARK  8 active torsions:
REMARK  status: ('A' for Active; 'I' for Inactive)
REMARK    1  A    between atoms: C_1  and  C_2
REMARK    2  A    between atoms: C_2  and  C_3
REMARK    3  A    between atoms: C_2  and  C_4
REMARK    4  A    between atoms: C_2  and  C_5
REMARK    5  A    between atoms: C_7  and  C_8
REMARK    6  A    between atoms: C_8  and  N_9
REMARK    7  A    between atoms: C_14  and  C_15
REMARK    8  A    between atoms: C_23  and  O_24
REMARK                            x       y       z     vdW  Elec       q    Type
REMARK                         _______ _______ _______ _____ _____    ______ ____
ROOT
ATOM      1  N   UNL     1      47.282   7.362  13.603  0.00  0.00    +0.000 N 
ATOM      2  N   UNL     1      46.574   8.473  13.299  0.00  0.00    +0.000 NA
ATOM      3  N   UNL     1      45.405   8.084  12.813  0.00  0.00    +0.000 NA
ATOM      4  C   UNL     1      45.384   6.714  12.795  0.00  0.00    +0.000 A 
ATOM      5  C   UNL     1      44.417   5.829  12.300  0.00  0.00    +0.000 A 
ATOM      6  C   UNL     1      44.672   4.449  12.372  0.00  0.00    +0.000 A 
ATOM      7  C   UNL     1      45.869   3.985  12.950  0.00  0.00    +0.000 A 
ATOM      8  C   UNL     1      46.841   4.859  13.450  0.00  0.00    +0.000 A 
ATOM      9  C   UNL     1      46.565   6.226  13.337  0.00  0.00    +0.000 A 
ENDROOT
BRANCH   6  10
ATOM     10  C   UNL     1      43.735   3.422  11.831  0.00  0.00    +0.000 C 
ATOM     11  N   UNL     1      43.708   2.188  12.418  0.00  0.00    +0.000 N 
ATOM     12  O   UNL     1      42.999   3.667  10.888  0.00  0.00    +0.000 OA
ATOM     13  H   UNL     1      44.286   1.885  13.183  0.00  0.00    +0.000 HD
ATOM     14  H   UNL     1      43.068   1.514  12.014  0.00  0.00    +0.000 HD
ENDBRANCH   6  10
BRANCH   1  15
ATOM     15  C   UNL     1      48.707   7.464  13.869  0.00  0.00    +0.000 C 
BRANCH  15  18
ATOM     16  C   UNL     1      49.335   5.721  17.244  0.00  0.00    +0.000 A 
ATOM     17  C   UNL     1      48.949   5.994  15.904  0.00  0.00    +0.000 A 
ATOM     18  C   UNL     1      49.055   7.272  15.326  0.00  0.00    +0.000 A 
ATOM     19  C   UNL     1      49.556   8.315  16.108  0.00  0.00    +0.000 A 
ATOM     20  C   UNL     1      49.963   8.076  17.419  0.00  0.00    +0.000 A 
ATOM     21  C   UNL     1      49.856   6.797  17.976  0.00  0.00    +0.000 A 
BRANCH  16  23
ATOM     22  C   UNL     1      50.567   3.584  17.706  0.00  0.00    +0.000 C 
ATOM     23  C   UNL     1      49.187   4.274  17.770  0.00  0.00    +0.000 C 
ATOM     24  C   UNL     1      48.183   3.485  16.894  0.00  0.00    +0.000 C 
ATOM     25  C   UNL     1      48.683   4.134  19.223  0.00  0.00    +0.000 C 
ENDBRANCH  16  23
BRANCH  21  26
ATOM     26  O   UNL     1      50.290   6.635  19.259  0.00  0.00    +0.000 OA
ATOM     27  H   UNL     1      50.300   7.495  19.710  0.00  0.00    +0.000 HD
ENDBRANCH  21  26
ENDBRANCH  15  18
ENDBRANCH   1  15
TORSDOF 5
ENDMDL
MODEL 8
REMARK VINA RESULT:    -6.017      4.744      6.795
REMARK INTER + INTRA:          -8.044
REMARK INTER:                  -7.852
REMARK INTRA:                  -0.193
REMARK UNBOUND:                -0.445
REMARK  Name = 
REMARK  8 active torsions:
REMARK  status: ('A' for Active; 'I' for Inactive)
REMARK    1  A    between atoms: C_1  and  C_2
REMARK    2  A    between atoms: C_2  and  C_3
REMARK    3  A    between atoms: C_2  and  C_4
REMARK    4  A    between atoms: C_2  and  C_5
REMARK    5  A    between atoms: C_7  and  C_8
REMARK    6  A    between atoms: C_8  and  N_9
REMARK    7  A    between atoms: C_14  and  C_15
REMARK    8  A    between atoms: C_23  and  O_24
REMARK                            x       y       z     vdW  Elec       q    Type
REMARK                         _______ _______ _______ _____ _____    ______ ____
ROOT
ATOM      1  N   UNL     1      47.872   5.245  14.884  0.00  0.00    +0.000 N 
ATOM      2  N   UNL     1      47.889   3.942  15.246  0.00  0.00    +0.000 NA
ATOM      3  N   UNL     1      47.089   3.285  14.419  0.00  0.00    +0.000 NA
ATOM      4  C   UNL     1      46.551   4.187  13.540  0.00  0.00    +0.000 A 
ATOM      5  C   UNL     1      45.591   4.009  12.534  0.00  0.00    +0.000 A 
ATOM      6  C   UNL     1      45.181   5.131  11.794  0.00  0.00    +0.000 A 
ATOM      7  C   UNL     1      45.746   6.393  12.058  0.00  0.00    +0.000 A 
ATOM      8  C   UNL     1      46.707   6.582  13.058  0.00  0.00    +0.000 A 
ATOM      9  C   UNL     1      47.072   5.449  13.793  0.00  0.00    +0.000 A 
ENDROOT
BRANCH   6  10
ATOM     10  C   UNL     1      44.132   5.064  10.735  0.00  0.00    +0.000 C 
ATOM     11  N   UNL     1      43.059   5.906  10.823  0.00  0.00    +0.000 N 
ATOM     12  O   UNL     1      44.219   4.280   9.803  0.00  0.00    +0.000 OA
ATOM     13  H   UNL     1      42.887   6.570  11.560  0.00  0.00    +0.000 HD
ATOM     14  H   UNL     1      42.362   5.821  10.093  0.00  0.00    +0.000 HD
ENDBRANCH   6  10
BRANCH   1  15
ATOM     15  C   UNL     1      48.411   6.250  15.784  0.00  0.00    +0.000 C 
BRANCH  15  18
ATOM     16  C   UNL     1      50.865   4.949  18.450  0.00  0.00    +0.000 A 
ATOM     17  C   UNL     1      50.298   5.414  17.233  0.00  0.00    +0.000 A 
ATOM     18  C   UNL     1      48.925   5.675  17.082  0.00  0.00    +0.000 A 
ATOM     19  C   UNL     1      48.084   5.460  18.177  0.00  0.00    +0.000 A 
ATOM     20  C   UNL     1      48.611   5.024  19.391  0.00  0.00    +0.000 A 
ATOM     21  C   UNL     1      49.981   4.775  19.524  0.00  0.00    +0.000 A 
BRANCH  16  23
ATOM     22  C   UNL     1      53.033   5.331  17.246  0.00  0.00    +0.000 C 
ATOM     23  C   UNL     1      52.391   4.709  18.505  0.00  0.00    +0.000 C 
ATOM     24  C   UNL     1      52.694   3.190  18.531  0.00  0.00    +0.000 C 
ATOM     25  C   UNL     1      53.124   5.308  19.725  0.00  0.00    +0.000 C 
ENDBRANCH  16  23
BRANCH  21  26
ATOM     26  O   UNL     1      50.426   4.367  20.747  0.00  0.00    +0.000 OA
ATOM     27  H   UNL     1      50.792   3.471  20.678  0.00  0.00    +0.000 HD
ENDBRANCH  21  26
ENDBRANCH  15  18
ENDBRANCH   1  15
TORSDOF 5
ENDMDL
MODEL 9
REMARK VINA RESULT:    -5.916      3.996      5.741
REMARK INTER + INTRA:          -7.917
REMARK INTER:                  -7.380
REMARK INTRA:                  -0.537
REMARK UNBOUND:                -0.445
REMARK  Name = 
REMARK  8 active torsions:
REMARK  status: ('A' for Active; 'I' for Inactive)
REMARK    1  A    between atoms: C_1  and  C_2
REMARK    2  A    between atoms: C_2  and  C_3
REMARK    3  A    between atoms: C_2  and  C_4
REMARK    4  A    between atoms: C_2  and  C_5
REMARK    5  A    between atoms: C_7  and  C_8
REMARK    6  A    between atoms: C_8  and  N_9
REMARK    7  A    between atoms: C_14  and  C_15
REMARK    8  A    between atoms: C_23  and  O_24
REMARK                            x       y       z     vdW  Elec       q    Type
REMARK                         _______ _______ _______ _____ _____    ______ ____
ROOT
ATOM      1  N   UNL     1      47.847   6.474  13.778  0.00  0.00    +0.000 N 
ATOM      2  N   UNL     1      48.007   5.494  14.696  0.00  0.00    +0.000 NA
ATOM      3  N   UNL     1      47.233   4.480  14.340  0.00  0.00    +0.000 NA
ATOM      4  C   UNL     1      46.564   4.833  13.198  0.00  0.00    +0.000 A 
ATOM      5  C   UNL     1      45.575   4.148  12.478  0.00  0.00    +0.000 A 
ATOM      6  C   UNL     1      45.021   4.769  11.346  0.00  0.00    +0.000 A 
ATOM      7  C   UNL     1      45.476   6.040  10.947  0.00  0.00    +0.000 A 
ATOM      8  C   UNL     1      46.464   6.731  11.656  0.00  0.00    +0.000 A 
ATOM      9  C   UNL     1      46.974   6.096  12.793  0.00  0.00    +0.000 A 
ENDROOT
BRANCH   6  10
ATOM     10  C   UNL     1      43.929   4.152  10.537  0.00  0.00    +0.000 C 
ATOM     11  N   UNL     1      43.864   4.436   9.202  0.00  0.00    +0.000 N 
ATOM     12  O   UNL     1      43.107   3.404  11.044  0.00  0.00    +0.000 OA
ATOM     13  H   UNL     1      44.480   5.052   8.698  0.00  0.00    +0.000 HD
ATOM     14  H   UNL     1      43.102   4.009   8.690  0.00  0.00    +0.000 HD
ENDBRANCH   6  10
BRANCH   1  15
ATOM     15  C   UNL     1      48.333   7.814  14.060  0.00  0.00    +0.000 C 
BRANCH  15  18
ATOM     16  C   UNL     1      52.115   8.367  13.600  0.00  0.00    +0.000 A 
ATOM     17  C   UNL     1      50.828   8.163  14.167  0.00  0.00    +0.000 A 
ATOM     18  C   UNL     1      49.653   8.122  13.395  0.00  0.00    +0.000 A 
ATOM     19  C   UNL     1      49.759   8.296  12.013  0.00  0.00    +0.000 A 
ATOM     20  C   UNL     1      51.008   8.477  11.424  0.00  0.00    +0.000 A 
ATOM     21  C   UNL     1      52.168   8.509  12.206  0.00  0.00    +0.000 A 
BRANCH  16  23
ATOM     22  C   UNL     1      52.857   8.078  15.980  0.00  0.00    +0.000 C 
ATOM     23  C   UNL     1      53.339   8.380  14.544  0.00  0.00    +0.000 C 
ATOM     24  C   UNL     1      54.020   9.771  14.519  0.00  0.00    +0.000 C 
ATOM     25  C   UNL     1      54.451   7.359  14.219  0.00  0.00    +0.000 C 
ENDBRANCH  16  23
BRANCH  21  26
ATOM     26  O   UNL     1      53.356   8.673  11.557  0.00  0.00    +0.000 OA
ATOM     27  H   UNL     1      53.780   9.494  11.856  0.00  0.00    +0.000 HD
ENDBRANCH  21  26
ENDBRANCH  15  18
ENDBRANCH   1  15
TORSDOF 5
ENDMDL
