MODEL 1
REMARK VINA RESULT:    -8.354      0.000      0.000
REMARK INTER + INTRA:         -11.499
REMARK INTER:                 -10.795
REMARK INTRA:                  -0.703
REMARK UNBOUND:                -0.703
REMARK  Name = 
REMARK  6 active torsions:
REMARK  status: ('A' for Active; 'I' for Inactive)
REMARK    1  A    between atoms: C_1  and  O_2
REMARK    2  A    between atoms: O_2  and  C_3
REMARK    3  A    between atoms: C_5  and  C_6
REMARK    4  A    between atoms: C_6  and  N_7
REMARK    5  A    between atoms: N_7  and  C_8
REMARK    6  A    between atoms: C_11  and  C_12
REMARK                            x       y       z     vdW  Elec       q    Type
REMARK                         _______ _______ _______ _____ _____    ______ ____
ROOT
ATOM      1  N   UNL     1      43.904   3.787  10.605  0.00  0.00    +0.000 N 
ATOM      2  H   UNL     1      43.455   2.947  10.963  0.00  0.00    +0.000 HD
ENDROOT
BRANCH   1   3
ATOM      3  C   UNL     1      44.855   3.510   9.609  0.00  0.00    +0.000 A 
ATOM      4  C   UNL     1      45.396   4.455   8.734  0.00  0.00    +0.000 A 
ATOM      5  C   UNL     1      46.236   4.046   7.690  0.00  0.00    +0.000 A 
ATOM      6  C   UNL     1      46.485   2.689   7.535  0.00  0.00    +0.000 A 
ATOM      7  N   UNL     1      45.984   1.733   8.359  0.00  0.00    +0.000 NA
ATOM      8  C   UNL     1      45.189   2.175   9.358  0.00  0.00    +0.000 A 
BRANCH   6   9
ATOM      9  C   UNL     1      47.302   2.183   6.387  0.00  0.00    +0.000 C 
ATOM     10  N   UNL     1      47.378   3.039   5.316  0.00  0.00    +0.000 N 
ATOM     11  O   UNL     1      47.874   1.103   6.399  0.00  0.00    +0.000 OA
ATOM     12  H   UNL     1      46.918   3.942   5.374  0.00  0.00    +0.000 HD
ATOM     13  H   UNL     1      47.958   2.808   4.524  0.00  0.00    +0.000 HD
ENDBRANCH   6   9
ENDBRANCH   1   3
BRANCH   1  14
ATOM     14  C   UNL     1      43.918   4.938  11.521  0.00  0.00    +0.000 C 
ATOM     15  C   UNL     1      42.997   6.114  11.274  0.00  0.00    +0.000 C 
ATOM     16  C   UNL     1      42.645   5.127  12.339  0.00  0.00    +0.000 C 
BRANCH  14  19
ATOM     17  C   UNL     1      46.976   4.232  13.690  0.00  0.00    +0.000 A 
ATOM     18  C   UNL     1      45.715   4.109  13.125  0.00  0.00    +0.000 A 
ATOM     19  C   UNL     1      45.239   5.108  12.259  0.00  0.00    +0.000 A 
ATOM     20  C   UNL     1      46.072   6.215  12.060  0.00  0.00    +0.000 A 
ATOM     21  C   UNL     1      47.313   6.258  12.680  0.00  0.00    +0.000 A 
ATOM     22  N   UNL     1      47.786   5.287  13.484  0.00  0.00    +0.000 NA
BRANCH  17  24
ATOM     23  C   UNL     1      47.519   3.558  15.861  0.00  0.00    +0.000 C 
ATOM     24  O   UNL     1      47.393   3.186  14.491  0.00  0.00    +0.000 OA
ENDBRANCH  17  24
ENDBRANCH  14  19
ENDBRANCH   1  14
TORSDOF 5
ENDMDL
MODEL 2
REMARK VINA RESULT:    -7.950      1.191      1.948
REMARK INTER + INTRA:         -10.977
REMARK INTER:                 -10.322
REMARK INTRA:                  -0.655
REMARK UNBOUND:                -0.703
REMARK  Name = 
REMARK  6 active torsions:
REMARK  status: ('A' for Active; 'I' for Inactive)
REMARK    1  A    between atoms: C_1  and  O_2
REMARK    2  A    between atoms: O_2  and  C_3
REMARK    3  A    between atoms: C_5  and  C_6
REMARK    4  A    between atoms: C_6  and  N_7
REMARK    5  A    between atoms: N_7  and  C_8
REMARK    6  A    between atoms: C_11  and  C_12
REMARK                            x       y       z     vdW  Elec       q    Type
REMARK                         _______ _______ _______ _____ _____    ______ ____
ROOT
ATOM      1  N   UNL     1      43.708   4.333  10.214  0.00  0.00    +0.000 N 
ATOM      2  H   UNL     1      42.890   3.731  10.266  0.00  0.00    +0.000 HD
ENDROOT
BRANCH   1   3
ATOM      3  C   UNL     1      44.731   3.789   9.419  0.00  0.00    +0.000 A 
ATOM      4  C   UNL     1      45.504   4.511   8.506  0.00  0.00    +0.000 A 
ATOM      5  C   UNL     1      46.406   3.842   7.667  0.00  0.00    +0.000 A 
ATOM      6  C   UNL     1      46.483   2.459   7.749  0.00  0.00    +0.000 A 
ATOM      7  N   UNL     1      45.754   1.714   8.619  0.00  0.00    +0.000 NA
ATOM      8  C   UNL     1      44.906   2.401   9.415  0.00  0.00    +0.000 A 
BRANCH   6   9
ATOM      9  C   UNL     1      47.362   1.682   6.819  0.00  0.00    +0.000 C 
ATOM     10  N   UNL     1      48.428   2.385   6.314  0.00  0.00    +0.000 N 
ATOM     11  O   UNL     1      47.165   0.508   6.538  0.00  0.00    +0.000 OA
ATOM     12  H   UNL     1      48.568   3.345   6.612  0.00  0.00    +0.000 HD
ATOM     13  H   UNL     1      49.108   1.923   5.730  0.00  0.00    +0.000 HD
ENDBRANCH   6   9
ENDBRANCH   1   3
BRANCH   1  14
ATOM     14  C   UNL     1      43.886   5.260  11.342  0.00  0.00    +0.000 C 
ATOM     15  C   UNL     1      43.186   6.602  11.337  0.00  0.00    +0.000 C 
ATOM     16  C   UNL     1      42.639   5.500  12.184  0.00  0.00    +0.000 C 
BRANCH  14  19
ATOM     17  C   UNL     1      47.301   5.890  12.921  0.00  0.00    +0.000 A 
ATOM     18  C   UNL     1      46.175   6.055  12.129  0.00  0.00    +0.000 A 
ATOM     19  C   UNL     1      45.193   5.051  12.096  0.00  0.00    +0.000 A 
ATOM     20  C   UNL     1      45.449   3.898  12.846  0.00  0.00    +0.000 A 
ATOM     21  C   UNL     1      46.612   3.815  13.599  0.00  0.00    +0.000 A 
ATOM     22  N   UNL     1      47.540   4.790  13.658  0.00  0.00    +0.000 NA
BRANCH  17  24
ATOM     23  C   UNL     1      48.258   7.636  11.696  0.00  0.00    +0.000 C 
ATOM     24  O   UNL     1      48.197   6.941  12.939  0.00  0.00    +0.000 OA
ENDBRANCH  17  24
ENDBRANCH  14  19
ENDBRANCH   1  14
TORSDOF 5
ENDMDL
MODEL 3
REMARK VINA RESULT:    -7.545      2.256      2.980
REMARK INTER + INTRA:         -10.454
REMARK INTER:                 -10.222
REMARK INTRA:                  -0.232
REMARK UNBOUND:                -0.703
REMARK  Name = 
REMARK  6 active torsions:
REMARK  status: ('A' for Active; 'I' for Inactive)
REMARK    1  A    between atoms: C_1  and  O_2
REMARK    2  A    between atoms: O_2  and  C_3
REMARK    3  A    between atoms: C_5  and  C_6
REMARK    4  A    between atoms: C_6  and  N_7
REMARK    5  A    between atoms: N_7  and  C_8
REMARK    6  A    between atoms: C_11  and  C_12
REMARK                            x       y       z     vdW  Elec       q    Type
REMARK                         _______ _______ _______ _____ _____    ______ ____
ROOT
ATOM      1  N   UNL     1      43.702   4.793   9.801  0.00  0.00    +0.000 N 
ATOM      2  H   UNL     1      42.787   4.588   9.407  0.00  0.00    +0.000 HD
ENDROOT
BRANCH   1   3
ATOM      3  C   UNL     1      44.735   4.078   9.172  0.00  0.00    +0.000 A 
ATOM      4  C   UNL     1      45.670   4.629   8.292  0.00  0.00    +0.000 A 
ATOM      5  C   UNL     1      46.574   3.799   7.617  0.00  0.00    +0.000 A 
ATOM      6  C   UNL     1      46.493   2.428   7.823  0.00  0.00    +0.000 A 
ATOM      7  N   UNL     1      45.604   1.845   8.667  0.00  0.00    +0.000 NA
ATOM      8  C   UNL     1      44.759   2.685   9.305  0.00  0.00    +0.000 A 
BRANCH   6   9
ATOM      9  C   UNL     1      47.372   1.484   7.065  0.00  0.00    +0.000 C 
ATOM     10  N   UNL     1      48.486   2.060   6.506  0.00  0.00    +0.000 N 
ATOM     11  O   UNL     1      47.135   0.289   6.960  0.00  0.00    +0.000 OA
ATOM     12  H   UNL     1      48.657   3.049   6.658  0.00  0.00    +0.000 HD
ATOM     13  H   UNL     1      49.167   1.487   6.030  0.00  0.00    +0.000 HD
ENDBRANCH   6   9
ENDBRANCH   1   3
BRANCH   1  14
ATOM     14  C   UNL     1      43.701   5.273  11.191  0.00  0.00    +0.000 C 
ATOM     15  C   UNL     1      42.401   5.362  11.962  0.00  0.00    +0.000 C 
ATOM     16  C   UNL     1      43.331   4.226  12.236  0.00  0.00    +0.000 C 
BRANCH  14  19
ATOM     17  C   UNL     1      45.770   8.364  12.038  0.00  0.00    +0.000 A 
ATOM     18  C   UNL     1      44.712   7.572  11.620  0.00  0.00    +0.000 A 
ATOM     19  C   UNL     1      44.880   6.181  11.519  0.00  0.00    +0.000 A 
ATOM     20  C   UNL     1      46.155   5.680  11.806  0.00  0.00    +0.000 A 
ATOM     21  C   UNL     1      47.159   6.552  12.203  0.00  0.00    +0.000 A 
ATOM     22  N   UNL     1      46.992   7.882  12.333  0.00  0.00    +0.000 NA
BRANCH  17  24
ATOM     23  C   UNL     1      44.621  10.200  11.160  0.00  0.00    +0.000 C 
ATOM     24  O   UNL     1      45.513   9.716  12.160  0.00  0.00    +0.000 OA
ENDBRANCH  17  24
ENDBRANCH  14  19
ENDBRANCH   1  14
TORSDOF 5
ENDMDL
MODEL 4
REMARK VINA RESULT:    -6.804      2.444      6.834
REMARK INTER + INTRA:          -9.496
REMARK INTER:                  -8.928
REMARK INTRA:                  -0.568
REMARK UNBOUND:                -0.703
REMARK  Name = 
REMARK  6 active torsions:
REMARK  status: ('A' for Active; 'I' for Inactive)
REMARK    1  A    between atoms: C_1  and  O_2
REMARK    2  A    between atoms: O_2  and  C_3
REMARK    3  A    between atoms: C_5  and  C_6
REMARK    4  A    between atoms: C_6  and  N_7
REMARK    5  A    between atoms: N_7  and  C_8
REMARK    6  A    between atoms: C_11  and  C_12
REMARK                            x       y       z     vdW  Elec       q    Type
REMARK                         _______ _______ _______ _____ _____    ______ ____
ROOT
ATOM      1  N   UNL     1      44.747   6.537  10.922  0.00  0.00    +0.000 N 
ATOM      2  H   UNL     1      44.812   6.891   9.971  0.00  0.00    +0.000 HD
ENDROOT
BRANCH   1   3
ATOM      3  C   UNL     1      45.757   7.042  11.758  0.00  0.00    +0.000 A 
ATOM      4  C   UNL     1      46.920   6.354  12.113  0.00  0.00    +0.000 A 
ATOM      5  C   UNL     1      47.797   6.899  13.060  0.00  0.00    +0.000 A 
ATOM      6  C   UNL     1      47.463   8.110  13.651  0.00  0.00    +0.000 A 
ATOM      7  N   UNL     1      46.345   8.816  13.340  0.00  0.00    +0.000 NA
ATOM      8  C   UNL     1      45.535   8.258  12.413  0.00  0.00    +0.000 A 
BRANCH   6   9
ATOM      9  C   UNL     1      48.313   8.699  14.733  0.00  0.00    +0.000 C 
ATOM     10  N   UNL     1      47.616   9.167  15.820  0.00  0.00    +0.000 N 
ATOM     11  O   UNL     1      49.532   8.747  14.672  0.00  0.00    +0.000 OA
ATOM     12  H   UNL     1      46.606   9.064  15.837  0.00  0.00    +0.000 HD
ATOM     13  H   UNL     1      48.111   9.522  16.624  0.00  0.00    +0.000 HD
ENDBRANCH   6   9
ENDBRANCH   1   3
BRANCH   1  14
ATOM     14  C   UNL     1      44.062   5.245  11.073  0.00  0.00    +0.000 C 
ATOM     15  C   UNL     1      43.531   4.822  12.426  0.00  0.00    +0.000 C 
ATOM     16  C   UNL     1      42.576   5.336  11.399  0.00  0.00    +0.000 C 
BRANCH  14  19
ATOM     17  C   UNL     1      45.667   3.630   8.012  0.00  0.00    +0.000 A 
ATOM     18  C   UNL     1      45.200   4.599   8.887  0.00  0.00    +0.000 A 
ATOM     19  C   UNL     1      44.473   4.217  10.027  0.00  0.00    +0.000 A 
ATOM     20  C   UNL     1      44.219   2.849  10.180  0.00  0.00    +0.000 A 
ATOM     21  C   UNL     1      44.715   1.952   9.244  0.00  0.00    +0.000 A 
ATOM     22  N   UNL     1      45.440   2.312   8.168  0.00  0.00    +0.000 NA
BRANCH  17  24
ATOM     23  C   UNL     1      46.768   3.036   6.038  0.00  0.00    +0.000 C 
ATOM     24  O   UNL     1      46.415   4.080   6.942  0.00  0.00    +0.000 OA
ENDBRANCH  17  24
ENDBRANCH  14  19
ENDBRANCH   1  14
TORSDOF 5
ENDMDL
MODEL 5
REMARK VINA RESULT:    -6.620      1.992      6.769
REMARK INTER + INTRA:          -9.258
REMARK INTER:                  -8.775
REMARK INTRA:                  -0.484
REMARK UNBOUND:                -0.703
REMARK  Name = 
REMARK  6 active torsions:
REMARK  status: ('A' for Active; 'I' for Inactive)
REMARK    1  A    between atoms: C_1  and  O_2
REMARK    2  A    between atoms: O_2  and  C_3
REMARK    3  A    between atoms: C_5  and  C_6
REMARK    4  A    between atoms: C_6  and  N_7
REMARK    5  A    between atoms: N_7  and  C_8
REMARK    6  A    between atoms: C_11  and  C_12
REMARK                            x       y       z     vdW  Elec       q    Type
REMARK                         _______ _______ _______ _____ _____    ______ ____
ROOT
ATOM      1  N   UNL     1      46.541   5.645  12.221  0.00  0.00    +0.000 N 
ATOM      2  H   UNL     1      47.314   5.638  11.561  0.00  0.00    +0.000 HD
ENDROOT
BRANCH   1   3
ATOM      3  C   UNL     1      46.896   5.126  13.478  0.00  0.00    +0.000 A 
ATOM      4  C   UNL     1      47.410   5.876  14.538  0.00  0.00    +0.000 A 
ATOM      5  C   UNL     1      47.857   5.234  15.701  0.00  0.00    +0.000 A 
ATOM      6  C   UNL     1      47.803   3.848  15.753  0.00  0.00    +0.000 A 
ATOM      7  N   UNL     1      47.313   3.076  14.750  0.00  0.00    +0.000 NA
ATOM      8  C   UNL     1      46.883   3.737  13.653  0.00  0.00    +0.000 A 
BRANCH   6   9
ATOM      9  C   UNL     1      48.347   3.101  16.930  0.00  0.00    +0.000 C 
ATOM     10  N   UNL     1      47.436   2.863  17.930  0.00  0.00    +0.000 N 
ATOM     11  O   UNL     1      49.505   2.714  16.999  0.00  0.00    +0.000 OA
ATOM     12  H   UNL     1      46.477   3.170  17.804  0.00  0.00    +0.000 HD
ATOM     13  H   UNL     1      47.699   2.311  18.732  0.00  0.00    +0.000 HD
ENDBRANCH   6   9
ENDBRANCH   1   3
BRANCH   1  14
ATOM     14  C   UNL     1      45.197   5.628  11.625  0.00  0.00    +0.000 C 
ATOM     15  C   UNL     1      43.996   6.042  12.449  0.00  0.00    +0.000 C 
ATOM     16  C   UNL     1      44.553   6.997  11.444  0.00  0.00    +0.000 C 
BRANCH  14  19
ATOM     17  C   UNL     1      45.660   3.931   8.240  0.00  0.00    +0.000 A 
ATOM     18  C   UNL     1      45.696   4.894   9.237  0.00  0.00    +0.000 A 
ATOM     19  C   UNL     1      45.062   4.648  10.466  0.00  0.00    +0.000 A 
ATOM     20  C   UNL     1      44.374   3.435  10.586  0.00  0.00    +0.000 A 
ATOM     21  C   UNL     1      44.380   2.537   9.528  0.00  0.00    +0.000 A 
ATOM     22  N   UNL     1      45.014   2.756   8.360  0.00  0.00    +0.000 NA
BRANCH  17  24
ATOM     23  C   UNL     1      47.190   3.158   6.651  0.00  0.00    +0.000 C 
ATOM     24  O   UNL     1      46.348   4.225   7.078  0.00  0.00    +0.000 OA
ENDBRANCH  17  24
ENDBRANCH  14  19
ENDBRANCH   1  14
TORSDOF 5
ENDMDL
MODEL 6
REMARK VINA RESULT:    -6.207      1.958      6.168
REMARK INTER + INTRA:          -8.725
REMARK INTER:                  -8.442
REMARK INTRA:                  -0.283
REMARK UNBOUND:                -0.703
REMARK  Name = 
REMARK  6 active torsions:
REMARK  status: ('A' for Active; 'I' for Inactive)
REMARK    1  A    between atoms: C_1  and  O_2
REMARK    2  A    between atoms: O_2  and  C_3
REMARK    3  A    between atoms: C_5  and  C_6
REMARK    4  A    between atoms: C_6  and  N_7
REMARK    5  A    between atoms: N_7  and  C_8
REMARK    6  A    between atoms: C_11  and  C_12
REMARK                            x       y       z     vdW  Elec       q    Type
REMARK                         _______ _______ _______ _____ _____    ______ ____
ROOT
ATOM      1  N   UNL     1      44.690   6.004  11.750  0.00  0.00    +0.000 N 
ATOM      2  H   UNL     1      44.419   6.739  11.101  0.00  0.00    +0.000 HD
ENDROOT
BRANCH   1   3
ATOM      3  C   UNL     1      45.811   6.351  12.524  0.00  0.00    +0.000 A 
ATOM      4  C   UNL     1      46.172   7.655  12.869  0.00  0.00    +0.000 A 
ATOM      5  C   UNL     1      47.384   7.896  13.530  0.00  0.00    +0.000 A 
ATOM      6  C   UNL     1      48.216   6.818  13.799  0.00  0.00    +0.000 A 
ATOM      7  N   UNL     1      47.909   5.534  13.484  0.00  0.00    +0.000 NA
ATOM      8  C   UNL     1      46.726   5.347  12.858  0.00  0.00    +0.000 A 
BRANCH   6   9
ATOM      9  C   UNL     1      49.561   7.022  14.423  0.00  0.00    +0.000 C 
ATOM     10  N   UNL     1      50.465   7.688  13.632  0.00  0.00    +0.000 N 
ATOM     11  O   UNL     1      49.838   6.645  15.552  0.00  0.00    +0.000 OA
ATOM     12  H   UNL     1      50.170   8.016  12.718  0.00  0.00    +0.000 HD
ATOM     13  H   UNL     1      51.376   7.926  13.995  0.00  0.00    +0.000 HD
ENDBRANCH   6   9
ENDBRANCH   1   3
BRANCH   1  14
ATOM     14  C   UNL     1      44.286   4.642  11.371  0.00  0.00    +0.000 C 
ATOM     15  C   UNL     1      43.736   3.696  12.417  0.00  0.00    +0.000 C 
ATOM     16  C   UNL     1      42.791   4.361  11.470  0.00  0.00    +0.000 C 
BRANCH  14  19
ATOM     17  C   UNL     1      45.669   2.295   8.701  0.00  0.00    +0.000 A 
ATOM     18  C   UNL     1      45.123   2.743   9.894  0.00  0.00    +0.000 A 
ATOM     19  C   UNL     1      45.001   4.122  10.131  0.00  0.00    +0.000 A 
ATOM     20  C   UNL     1      45.499   4.976   9.139  0.00  0.00    +0.000 A 
ATOM     21  C   UNL     1      46.042   4.436   7.982  0.00  0.00    +0.000 A 
ATOM     22  N   UNL     1      46.131   3.115   7.738  0.00  0.00    +0.000 NA
BRANCH  17  24
ATOM     23  C   UNL     1      46.771   0.515   7.661  0.00  0.00    +0.000 C 
ATOM     24  O   UNL     1      45.711   0.926   8.521  0.00  0.00    +0.000 OA
ENDBRANCH  17  24
ENDBRANCH  14  19
ENDBRANCH   1  14
TORSDOF 5
ENDMDL
MODEL 7
REMARK VINA RESULT:    -5.882      2.733      7.122
REMARK INTER + INTRA:          -8.305
REMARK INTER:                  -7.830
REMARK INTRA:                  -0.475
REMARK UNBOUND:                -0.703
REMARK  Name = 
REMARK  6 active torsions:
REMARK  status: ('A' for Active; 'I' for Inactive)
REMARK    1  A    between atoms: C_1  and  O_2
REMARK    2  A    between atoms: O_2  and  C_3
REMARK    3  A    between atoms: C_5  and  C_6
REMARK    4  A    between atoms: C_6  and  N_7
REMARK    5  A    between atoms: N_7  and  C_8
REMARK    6  A    between atoms: C_11  and  C_12
REMARK                            x       y       z     vdW  Elec       q    Type
REMARK                         _______ _______ _______ _____ _____    ______ ____
ROOT
ATOM      1  N   UNL     1      47.250   6.007  12.865  0.00  0.00    +0.000 N 
ATOM      2  H   UNL     1      47.745   5.435  12.185  0.00  0.00    +0.000 HD
ENDROOT
BRANCH   1   3
ATOM      3  C   UNL     1      47.511   5.620  14.191  0.00  0.00    +0.000 A 
ATOM      4  C   UNL     1      48.357   6.299  15.071  0.00  0.00    +0.000 A 
ATOM      5  C   UNL     1      48.651   5.750  16.327  0.00  0.00    +0.000 A 
ATOM      6  C   UNL     1      48.109   4.514  16.651  0.00  0.00    +0.000 A 
ATOM      7  N   UNL     1      47.283   3.816  15.830  0.00  0.00    +0.000 NA
ATOM      8  C   UNL     1      47.018   4.388  14.635  0.00  0.00    +0.000 A 
BRANCH   6   9
ATOM      9  C   UNL     1      48.457   3.836  17.939  0.00  0.00    +0.000 C 
ATOM     10  N   UNL     1      47.893   4.402  19.056  0.00  0.00    +0.000 N 
ATOM     11  O   UNL     1      49.171   2.847  18.001  0.00  0.00    +0.000 OA
ATOM     12  H   UNL     1      47.274   5.199  18.944  0.00  0.00    +0.000 HD
ATOM     13  H   UNL     1      48.021   3.974  19.960  0.00  0.00    +0.000 HD
ENDBRANCH   6   9
ENDBRANCH   1   3
BRANCH   1  14
ATOM     14  C   UNL     1      46.023   6.654  12.377  0.00  0.00    +0.000 C 
ATOM     15  C   UNL     1      45.634   8.024  12.889  0.00  0.00    +0.000 C 
ATOM     16  C   UNL     1      46.244   7.902  11.531  0.00  0.00    +0.000 C 
BRANCH  14  19
ATOM     17  C   UNL     1      44.202   4.061  10.251  0.00  0.00    +0.000 A 
ATOM     18  C   UNL     1      45.103   5.047  10.628  0.00  0.00    +0.000 A 
ATOM     19  C   UNL     1      44.974   5.666  11.882  0.00  0.00    +0.000 A 
ATOM     20  C   UNL     1      43.885   5.272  12.668  0.00  0.00    +0.000 A 
ATOM     21  C   UNL     1      43.025   4.287  12.202  0.00  0.00    +0.000 A 
ATOM     22  N   UNL     1      43.165   3.668  11.014  0.00  0.00    +0.000 NA
BRANCH  17  24
ATOM     23  C   UNL     1      44.994   2.164   9.139  0.00  0.00    +0.000 C 
ATOM     24  O   UNL     1      44.423   3.465   9.025  0.00  0.00    +0.000 OA
ENDBRANCH  17  24
ENDBRANCH  14  19
ENDBRANCH   1  14
TORSDOF 5
ENDMDL
MODEL 8
REMARK VINA RESULT:    -5.724      3.153      5.062
REMARK INTER + INTRA:          -8.100
REMARK INTER:                  -7.809
REMARK INTRA:                  -0.291
REMARK UNBOUND:                -0.703
REMARK  Name = 
REMARK  6 active torsions:
REMARK  status: ('A' for Active; 'I' for Inactive)
REMARK    1  A    between atoms: C_1  and  O_2
REMARK    2  A    between atoms: O_2  and  C_3
REMARK    3  A    between atoms: C_5  and  C_6
REMARK    4  A    between atoms: C_6  and  N_7
REMARK    5  A    between atoms: N_7  and  C_8
REMARK    6  A    between atoms: C_11  and  C_12
REMARK                            x       y       z     vdW  Elec       q    Type
REMARK                         _______ _______ _______ _____ _____    ______ ____
ROOT
ATOM      1  N   UNL     1      46.914   6.807  13.805  0.00  0.00    +0.000 N 
ATOM      2  H   UNL     1      46.391   6.996  14.656  0.00  0.00    +0.000 HD
ENDROOT
BRANCH   1   3
ATOM      3  C   UNL     1      46.302   5.833  12.997  0.00  0.00    +0.000 A 
ATOM      4  C   UNL     1      45.911   6.024  11.670  0.00  0.00    +0.000 A 
ATOM      5  C   UNL     1      45.188   5.027  11.001  0.00  0.00    +0.000 A 
ATOM      6  C   UNL     1      44.849   3.876  11.698  0.00  0.00    +0.000 A 
ATOM      7  N   UNL     1      45.206   3.644  12.987  0.00  0.00    +0.000 NA
ATOM      8  C   UNL     1      45.912   4.626  13.589  0.00  0.00    +0.000 A 
BRANCH   6   9
ATOM      9  C   UNL     1      44.002   2.816  11.066  0.00  0.00    +0.000 C 
ATOM     10  N   UNL     1      44.551   2.231   9.951  0.00  0.00    +0.000 N 
ATOM     11  O   UNL     1      42.915   2.478  11.510  0.00  0.00    +0.000 OA
ATOM     12  H   UNL     1      45.476   2.521   9.649  0.00  0.00    +0.000 HD
ATOM     13  H   UNL     1      44.078   1.464   9.498  0.00  0.00    +0.000 HD
ENDBRANCH   6   9
ENDBRANCH   1   3
BRANCH   1  14
ATOM     14  C   UNL     1      48.354   7.103  13.865  0.00  0.00    +0.000 C 
ATOM     15  C   UNL     1      49.152   7.245  12.587  0.00  0.00    +0.000 C 
ATOM     16  C   UNL     1      48.753   8.475  13.335  0.00  0.00    +0.000 C 
BRANCH  14  19
ATOM     17  C   UNL     1      48.988   5.322  17.179  0.00  0.00    +0.000 A 
ATOM     18  C   UNL     1      48.327   5.818  16.065  0.00  0.00    +0.000 A 
ATOM     19  C   UNL     1      49.010   6.652  15.163  0.00  0.00    +0.000 A 
ATOM     20  C   UNL     1      50.333   6.975  15.486  0.00  0.00    +0.000 A 
ATOM     21  C   UNL     1      50.907   6.443  16.632  0.00  0.00    +0.000 A 
ATOM     22  N   UNL     1      50.266   5.617  17.481  0.00  0.00    +0.000 NA
BRANCH  17  24
ATOM     23  C   UNL     1      47.531   3.496  17.254  0.00  0.00    +0.000 C 
ATOM     24  O   UNL     1      48.265   4.470  17.991  0.00  0.00    +0.000 OA
ENDBRANCH  17  24
ENDBRANCH  14  19
ENDBRANCH   1  14
TORSDOF 5
ENDMDL
