MODEL 1
REMARK VINA RESULT:    -8.354      0.000      0.000
REMARK INTER + INTRA:         -12.804
REMARK INTER:                 -12.016
REMARK INTRA:                  -0.788
REMARK UNBOUND:                -0.788
REMARK  Name = 
REMARK  8 active torsions:
REMARK  status: ('A' for Active; 'I' for Inactive)
REMARK    1  A    between atoms: C_2  and  C_3
REMARK    2  A    between atoms: N_7  and  C_8
REMARK    3  A    between atoms: C_8  and  C_9
REMARK    4  A    between atoms: C_9  and  C_10
REMARK    5  A    between atoms: C_9  and  C_12
REMARK    6  A    between atoms: C_10  and  O_11
REMARK    7  A    between atoms: C_16  and  N_17
REMARK    8  A    between atoms: N_17  and  C_18
REMARK                            x       y       z     vdW  Elec       q    Type
REMARK                         _______ _______ _______ _____ _____    ______ ____
ROOT
ATOM      1  C   UNL     1      43.526   5.070  12.042  0.00  0.00    +0.000 C 
ENDROOT
BRANCH   1   2
ATOM      2  C   UNL     1      44.964   5.186  12.575  0.00  0.00    +0.000 A 
ATOM      3  C   UNL     1      45.827   6.165  12.057  0.00  0.00    +0.000 A 
ATOM      4  C   UNL     1      47.102   6.356  12.598  0.00  0.00    +0.000 A 
ATOM      5  C   UNL     1      47.559   5.538  13.634  0.00  0.00    +0.000 A 
ATOM      6  C   UNL     1      46.742   4.534  14.144  0.00  0.00    +0.000 A 
ATOM      7  C   UNL     1      45.454   4.375  13.611  0.00  0.00    +0.000 A 
BRANCH   6   8
ATOM      8  N   UNL     1      47.135   3.642  15.158  0.00  0.00    +0.000 N 
ATOM      9  H   UNL     1      46.427   2.922  15.298  0.00  0.00    +0.000 HD
BRANCH   8  10
ATOM     10  C   UNL     1      47.904   3.942  16.328  0.00  0.00    +0.000 C 
ATOM     11  C   UNL     1      47.962   2.749  17.310  0.00  0.00    +0.000 C 
ATOM     12  N   UNL     1      47.711   3.685  18.427  0.00  0.00    +0.000 NA
ATOM     13  C   UNL     1      47.154   4.662  17.461  0.00  0.00    +0.000 C 
ATOM     14  H   UNL     1      48.570   4.006  18.875  0.00  0.00    +0.000 HD
ENDBRANCH   8  10
ENDBRANCH   6   8
ENDBRANCH   1   2
BRANCH   1  15
ATOM     15  C   UNL     1      43.481   3.891  11.031  0.00  0.00    +0.000 C 
BRANCH  15  20
ATOM     16  C   UNL     1      46.735   2.578   7.334  0.00  0.00    +0.000 A 
ATOM     17  C   UNL     1      46.073   1.765   8.246  0.00  0.00    +0.000 A 
ATOM     18  C   UNL     1      45.092   2.320   9.068  0.00  0.00    +0.000 A 
ATOM     19  C   UNL     1      44.801   3.675   8.970  0.00  0.00    +0.000 A 
ATOM     20  N   UNL     1      43.790   4.302   9.670  0.00  0.00    +0.000 N 
ATOM     21  N   UNL     1      45.451   4.475   8.100  0.00  0.00    +0.000 NA
ATOM     22  C   UNL     1      46.395   3.922   7.306  0.00  0.00    +0.000 A 
ATOM     23  H   UNL     1      43.942   5.297   9.508  0.00  0.00    +0.000 HD
BRANCH  16  25
ATOM     24  N   UNL     1      48.508   1.631   5.709  0.00  0.00    +0.000 NA
ATOM     25  C   UNL     1      47.707   2.056   6.436  0.00  0.00    +0.000 C 
ENDBRANCH  16  25
ENDBRANCH  15  20
ENDBRANCH   1  15
BRANCH   1  26
ATOM     26  C   UNL     1      42.975   6.362  11.393  0.00  0.00    +0.000 C 
BRANCH  26  27
ATOM     27  O   UNL     1      41.641   6.667  11.797  0.00  0.00    +0.000 OA
ATOM     28  H   UNL     1      41.059   6.643  11.019  0.00  0.00    +0.000 HD
ENDBRANCH  26  27
ENDBRANCH   1  26
TORSDOF 8
ENDMDL
MODEL 2
REMARK VINA RESULT:    -7.860      1.935      2.913
REMARK INTER + INTRA:         -12.094
REMARK INTER:                 -11.218
REMARK INTRA:                  -0.876
REMARK UNBOUND:                -0.788
REMARK  Name = 
REMARK  8 active torsions:
REMARK  status: ('A' for Active; 'I' for Inactive)
REMARK    1  A    between atoms: C_2  and  C_3
REMARK    2  A    between atoms: N_7  and  C_8
REMARK    3  A    between atoms: C_8  and  C_9
REMARK    4  A    between atoms: C_9  and  C_10
REMARK    5  A    between atoms: C_9  and  C_12
REMARK    6  A    between atoms: C_10  and  O_11
REMARK    7  A    between atoms: C_16  and  N_17
REMARK    8  A    between atoms: N_17  and  C_18
REMARK                            x       y       z     vdW  Elec       q    Type
REMARK                         _______ _______ _______ _____ _____    ______ ____
ROOT
ATOM      1  C   UNL     1      43.433   4.920  12.095  0.00  0.00    +0.000 C 
ENDROOT
BRANCH   1   2
ATOM      2  C   UNL     1      44.825   4.892  12.747  0.00  0.00    +0.000 A 
ATOM      3  C   UNL     1      45.481   3.667  12.949  0.00  0.00    +0.000 A 
ATOM      4  C   UNL     1      46.788   3.627  13.443  0.00  0.00    +0.000 A 
ATOM      5  C   UNL     1      47.447   4.807  13.794  0.00  0.00    +0.000 A 
ATOM      6  C   UNL     1      46.811   6.034  13.641  0.00  0.00    +0.000 A 
ATOM      7  C   UNL     1      45.511   6.060  13.115  0.00  0.00    +0.000 A 
BRANCH   6   8
ATOM      8  N   UNL     1      47.384   7.266  14.004  0.00  0.00    +0.000 N 
ATOM      9  H   UNL     1      46.701   7.856  14.478  0.00  0.00    +0.000 HD
BRANCH   8  10
ATOM     10  C   UNL     1      48.396   7.994  13.299  0.00  0.00    +0.000 C 
ATOM     11  C   UNL     1      48.712   7.369  11.920  0.00  0.00    +0.000 C 
ATOM     12  N   UNL     1      50.154   7.546  12.194  0.00  0.00    +0.000 NA
ATOM     13  C   UNL     1      49.850   7.631  13.643  0.00  0.00    +0.000 C 
ATOM     14  H   UNL     1      50.526   8.414  11.808  0.00  0.00    +0.000 HD
ENDBRANCH   8  10
ENDBRANCH   6   8
ENDBRANCH   1   2
BRANCH   1  15
ATOM     15  C   UNL     1      43.369   3.774  11.047  0.00  0.00    +0.000 C 
BRANCH  15  20
ATOM     16  C   UNL     1      46.688   2.535   7.382  0.00  0.00    +0.000 A 
ATOM     17  C   UNL     1      46.002   1.703   8.260  0.00  0.00    +0.000 A 
ATOM     18  C   UNL     1      45.009   2.244   9.076  0.00  0.00    +0.000 A 
ATOM     19  C   UNL     1      44.728   3.602   9.007  0.00  0.00    +0.000 A 
ATOM     20  N   UNL     1      43.707   4.218   9.703  0.00  0.00    +0.000 N 
ATOM     21  N   UNL     1      45.400   4.420   8.172  0.00  0.00    +0.000 NA
ATOM     22  C   UNL     1      46.357   3.881   7.383  0.00  0.00    +0.000 A 
ATOM     23  H   UNL     1      43.869   5.215   9.570  0.00  0.00    +0.000 HD
BRANCH  16  25
ATOM     24  N   UNL     1      48.478   1.622   5.756  0.00  0.00    +0.000 NA
ATOM     25  C   UNL     1      47.674   2.029   6.491  0.00  0.00    +0.000 C 
ENDBRANCH  16  25
ENDBRANCH  15  20
ENDBRANCH   1  15
BRANCH   1  26
ATOM     26  C   UNL     1      43.056   6.272  11.443  0.00  0.00    +0.000 C 
BRANCH  26  27
ATOM     27  O   UNL     1      41.726   6.690  11.748  0.00  0.00    +0.000 OA
ATOM     28  H   UNL     1      41.733   7.200  12.576  0.00  0.00    +0.000 HD
ENDBRANCH  26  27
ENDBRANCH   1  26
TORSDOF 8
ENDMDL
MODEL 3
REMARK VINA RESULT:    -7.740      2.367      3.867
REMARK INTER + INTRA:         -11.921
REMARK INTER:                 -11.401
REMARK INTRA:                  -0.520
REMARK UNBOUND:                -0.788
REMARK  Name = 
REMARK  8 active torsions:
REMARK  status: ('A' for Active; 'I' for Inactive)
REMARK    1  A    between atoms: C_2  and  C_3
REMARK    2  A    between atoms: N_7  and  C_8
REMARK    3  A    between atoms: C_8  and  C_9
REMARK    4  A    between atoms: C_9  and  C_10
REMARK    5  A    between atoms: C_9  and  C_12
REMARK    6  A    between atoms: C_10  and  O_11
REMARK    7  A    between atoms: C_16  and  N_17
REMARK    8  A    between atoms: N_17  and  C_18
REMARK                            x       y       z     vdW  Elec       q    Type
REMARK                         _______ _______ _______ _____ _____    ______ ____
ROOT
ATOM      1  C   UNL     1      43.218   4.564  12.352  0.00  0.00    +0.000 C 
ENDROOT
BRANCH   1   2
ATOM      2  C   UNL     1      44.611   5.073  12.758  0.00  0.00    +0.000 A 
ATOM      3  C   UNL     1      45.617   4.160  13.111  0.00  0.00    +0.000 A 
ATOM      4  C   UNL     1      46.917   4.594  13.383  0.00  0.00    +0.000 A 
ATOM      5  C   UNL     1      47.227   5.956  13.356  0.00  0.00    +0.000 A 
ATOM      6  C   UNL     1      46.245   6.890  13.045  0.00  0.00    +0.000 A 
ATOM      7  C   UNL     1      44.951   6.435  12.746  0.00  0.00    +0.000 A 
BRANCH   6   8
ATOM      8  N   UNL     1      46.458   8.280  13.033  0.00  0.00    +0.000 N 
ATOM      9  H   UNL     1      46.363   8.667  13.971  0.00  0.00    +0.000 HD
BRANCH   8  10
ATOM     10  C   UNL     1      46.132   9.198  11.984  0.00  0.00    +0.000 C 
ATOM     11  C   UNL     1      46.840  10.562  12.161  0.00  0.00    +0.000 C 
ATOM     12  N   UNL     1      45.570  11.240  11.820  0.00  0.00    +0.000 NA
ATOM     13  C   UNL     1      44.834  10.002  12.172  0.00  0.00    +0.000 C 
ATOM     14  H   UNL     1      45.504  11.481  10.831  0.00  0.00    +0.000 HD
ENDBRANCH   8  10
ENDBRANCH   6   8
ENDBRANCH   1   2
BRANCH   1  15
ATOM     15  C   UNL     1      43.405   3.459  11.276  0.00  0.00    +0.000 C 
BRANCH  15  20
ATOM     16  C   UNL     1      46.677   2.466   7.495  0.00  0.00    +0.000 A 
ATOM     17  C   UNL     1      45.994   1.577   8.317  0.00  0.00    +0.000 A 
ATOM     18  C   UNL     1      45.013   2.065   9.181  0.00  0.00    +0.000 A 
ATOM     19  C   UNL     1      44.742   3.426   9.214  0.00  0.00    +0.000 A 
ATOM     20  N   UNL     1      43.733   3.997   9.964  0.00  0.00    +0.000 N 
ATOM     21  N   UNL     1      45.412   4.298   8.434  0.00  0.00    +0.000 NA
ATOM     22  C   UNL     1      46.357   3.811   7.597  0.00  0.00    +0.000 A 
ATOM     23  H   UNL     1      43.901   5.001   9.901  0.00  0.00    +0.000 HD
BRANCH  16  25
ATOM     24  N   UNL     1      48.439   1.653   5.788  0.00  0.00    +0.000 NA
ATOM     25  C   UNL     1      47.650   2.019   6.560  0.00  0.00    +0.000 C 
ENDBRANCH  16  25
ENDBRANCH  15  20
ENDBRANCH   1  15
BRANCH   1  26
ATOM     26  C   UNL     1      42.258   5.664  11.838  0.00  0.00    +0.000 C 
BRANCH  26  27
ATOM     27  O   UNL     1      42.806   6.433  10.769  0.00  0.00    +0.000 OA
ATOM     28  H   UNL     1      42.429   7.329  10.794  0.00  0.00    +0.000 HD
ENDBRANCH  26  27
ENDBRANCH   1  26
TORSDOF 8
ENDMDL
MODEL 4
REMARK VINA RESULT:    -7.284      3.120      4.986
REMARK INTER + INTRA:         -11.266
REMARK INTER:                 -10.840
REMARK INTRA:                  -0.426
REMARK UNBOUND:                -0.788
REMARK  Name = 
REMARK  8 active torsions:
REMARK  status: ('A' for Active; 'I' for Inactive)
REMARK    1  A    between atoms: C_2  and  C_3
REMARK    2  A    between atoms: N_7  and  C_8
REMARK    3  A    between atoms: C_8  and  C_9
REMARK    4  A    between atoms: C_9  and  C_10
REMARK    5  A    between atoms: C_9  and  C_12
REMARK    6  A    between atoms: C_10  and  O_11
REMARK    7  A    between atoms: C_16  and  N_17
REMARK    8  A    between atoms: N_17  and  C_18
REMARK                            x       y       z     vdW  Elec       q    Type
REMARK                         _______ _______ _______ _____ _____    ______ ____
ROOT
ATOM      1  C   UNL     1      44.706   4.259  11.883  0.00  0.00    +0.000 C 
ENDROOT
BRANCH   1   2
ATOM      2  C   UNL     1      45.230   5.641  12.309  0.00  0.00    +0.000 A 
ATOM      3  C   UNL     1      46.439   5.746  13.016  0.00  0.00    +0.000 A 
ATOM      4  C   UNL     1      46.984   6.995  13.321  0.00  0.00    +0.000 A 
ATOM      5  C   UNL     1      46.308   8.166  12.971  0.00  0.00    +0.000 A 
ATOM      6  C   UNL     1      45.090   8.096  12.303  0.00  0.00    +0.000 A 
ATOM      7  C   UNL     1      44.570   6.834  11.977  0.00  0.00    +0.000 A 
BRANCH   6   8
ATOM      8  N   UNL     1      44.324   9.220  11.947  0.00  0.00    +0.000 N 
ATOM      9  H   UNL     1      43.785   9.556  12.744  0.00  0.00    +0.000 HD
BRANCH   8  10
ATOM     10  C   UNL     1      43.722   9.493  10.677  0.00  0.00    +0.000 C 
ATOM     11  C   UNL     1      44.103  10.892  10.139  0.00  0.00    +0.000 C 
ATOM     12  N   UNL     1      42.690  11.105   9.756  0.00  0.00    +0.000 NA
ATOM     13  C   UNL     1      42.288  10.050  10.717  0.00  0.00    +0.000 C 
ATOM     14  H   UNL     1      42.502  10.859   8.784  0.00  0.00    +0.000 HD
ENDBRANCH   8  10
ENDBRANCH   6   8
ENDBRANCH   1   2
BRANCH   1  15
ATOM     15  C   UNL     1      43.499   4.476  10.929  0.00  0.00    +0.000 C 
BRANCH  15  20
ATOM     16  C   UNL     1      46.726   2.673   7.419  0.00  0.00    +0.000 A 
ATOM     17  C   UNL     1      45.941   1.973   8.328  0.00  0.00    +0.000 A 
ATOM     18  C   UNL     1      44.998   2.664   9.088  0.00  0.00    +0.000 A 
ATOM     19  C   UNL     1      44.865   4.038   8.934  0.00  0.00    +0.000 A 
ATOM     20  N   UNL     1      43.905   4.800   9.569  0.00  0.00    +0.000 N 
ATOM     21  N   UNL     1      45.635   4.729   8.068  0.00  0.00    +0.000 NA
ATOM     22  C   UNL     1      46.541   4.045   7.333  0.00  0.00    +0.000 A 
ATOM     23  H   UNL     1      44.174   5.764   9.382  0.00  0.00    +0.000 HD
BRANCH  16  25
ATOM     24  N   UNL     1      48.440   1.469   5.905  0.00  0.00    +0.000 NA
ATOM     25  C   UNL     1      47.667   2.013   6.582  0.00  0.00    +0.000 C 
ENDBRANCH  16  25
ENDBRANCH  15  20
ENDBRANCH   1  15
BRANCH   1  26
ATOM     26  C   UNL     1      44.309   3.333  13.057  0.00  0.00    +0.000 C 
BRANCH  26  27
ATOM     27  O   UNL     1      43.490   2.236  12.654  0.00  0.00    +0.000 OA
ATOM     28  H   UNL     1      43.792   1.429  13.104  0.00  0.00    +0.000 HD
ENDBRANCH  26  27
ENDBRANCH   1  26
TORSDOF 8
ENDMDL
MODEL 5
REMARK VINA RESULT:    -7.237      1.427      7.903
REMARK INTER + INTRA:         -11.198
REMARK INTER:                 -10.734
REMARK INTRA:                  -0.464
REMARK UNBOUND:                -0.788
REMARK  Name = 
REMARK  8 active torsions:
REMARK  status: ('A' for Active; 'I' for Inactive)
REMARK    1  A    between atoms: C_2  and  C_3
REMARK    2  A    between atoms: N_7  and  C_8
REMARK    3  A    between atoms: C_8  and  C_9
REMARK    4  A    between atoms: C_9  and  C_10
REMARK    5  A    between atoms: C_9  and  C_12
REMARK    6  A    between atoms: C_10  and  O_11
REMARK    7  A    between atoms: C_16  and  N_17
REMARK    8  A    between atoms: N_17  and  C_18
REMARK                            x       y       z     vdW  Elec       q    Type
REMARK                         _______ _______ _______ _____ _____    ______ ____
ROOT
ATOM      1  C   UNL     1      45.260   6.152  11.181  0.00  0.00    +0.000 C 
ENDROOT
BRANCH   1   2
ATOM      2  C   UNL     1      45.076   4.825  10.426  0.00  0.00    +0.000 A 
ATOM      3  C   UNL     1      44.385   3.763  11.031  0.00  0.00    +0.000 A 
ATOM      4  C   UNL     1      44.116   2.588  10.325  0.00  0.00    +0.000 A 
ATOM      5  C   UNL     1      44.576   2.429   9.016  0.00  0.00    +0.000 A 
ATOM      6  C   UNL     1      45.295   3.448   8.400  0.00  0.00    +0.000 A 
ATOM      7  C   UNL     1      45.531   4.634   9.112  0.00  0.00    +0.000 A 
BRANCH   6   8
ATOM      8  N   UNL     1      45.827   3.359   7.101  0.00  0.00    +0.000 N 
ATOM      9  H   UNL     1      45.168   2.903   6.472  0.00  0.00    +0.000 HD
BRANCH   8  10
ATOM     10  C   UNL     1      47.201   3.184   6.737  0.00  0.00    +0.000 C 
ATOM     11  C   UNL     1      47.367   2.807   5.246  0.00  0.00    +0.000 C 
ATOM     12  N   UNL     1      48.355   1.780   5.638  0.00  0.00    +0.000 NA
ATOM     13  C   UNL     1      47.800   1.795   7.013  0.00  0.00    +0.000 C 
ATOM     14  H   UNL     1      49.317   2.117   5.588  0.00  0.00    +0.000 HD
ENDBRANCH   8  10
ENDBRANCH   6   8
ENDBRANCH   1   2
BRANCH   1  15
ATOM     15  C   UNL     1      46.440   5.979  12.177  0.00  0.00    +0.000 C 
BRANCH  15  20
ATOM     16  C   UNL     1      48.530   4.822  16.679  0.00  0.00    +0.000 A 
ATOM     17  C   UNL     1      48.702   5.961  15.902  0.00  0.00    +0.000 A 
ATOM     18  C   UNL     1      47.898   6.146  14.777  0.00  0.00    +0.000 A 
ATOM     19  C   UNL     1      46.948   5.189  14.447  0.00  0.00    +0.000 A 
ATOM     20  N   UNL     1      46.044   5.319  13.412  0.00  0.00    +0.000 N 
ATOM     21  N   UNL     1      46.786   4.071  15.186  0.00  0.00    +0.000 NA
ATOM     22  C   UNL     1      47.569   3.908  16.276  0.00  0.00    +0.000 A 
ATOM     23  H   UNL     1      45.611   4.400  13.330  0.00  0.00    +0.000 HD
BRANCH  16  25
ATOM     24  N   UNL     1      49.912   4.425  18.827  0.00  0.00    +0.000 NA
ATOM     25  C   UNL     1      49.286   4.606  17.864  0.00  0.00    +0.000 C 
ENDBRANCH  16  25
ENDBRANCH  15  20
ENDBRANCH   1  15
BRANCH   1  26
ATOM     26  C   UNL     1      43.995   6.652  11.919  0.00  0.00    +0.000 C 
BRANCH  26  27
ATOM     27  O   UNL     1      42.986   7.139  11.036  0.00  0.00    +0.000 OA
ATOM     28  H   UNL     1      43.358   7.227  10.143  0.00  0.00    +0.000 HD
ENDBRANCH  26  27
ENDBRANCH   1  26
TORSDOF 8
ENDMDL
MODEL 6
REMARK VINA RESULT:    -6.807      1.816      2.203
REMARK INTER + INTRA:         -10.579
REMARK INTER:                  -9.681
REMARK INTRA:                  -0.897
REMARK UNBOUND:                -0.788
REMARK  Name = 
REMARK  8 active torsions:
REMARK  status: ('A' for Active; 'I' for Inactive)
REMARK    1  A    between atoms: C_2  and  C_3
REMARK    2  A    between atoms: N_7  and  C_8
REMARK    3  A    between atoms: C_8  and  C_9
REMARK    4  A    between atoms: C_9  and  C_10
REMARK    5  A    between atoms: C_9  and  C_12
REMARK    6  A    between atoms: C_10  and  O_11
REMARK    7  A    between atoms: C_16  and  N_17
REMARK    8  A    between atoms: N_17  and  C_18
REMARK                            x       y       z     vdW  Elec       q    Type
REMARK                         _______ _______ _______ _____ _____    ______ ____
ROOT
ATOM      1  C   UNL     1      44.010   6.135  12.169  0.00  0.00    +0.000 C 
ENDROOT
BRANCH   1   2
ATOM      2  C   UNL     1      45.235   5.477  12.825  0.00  0.00    +0.000 A 
ATOM      3  C   UNL     1      45.284   4.082  12.981  0.00  0.00    +0.000 A 
ATOM      4  C   UNL     1      46.431   3.457  13.478  0.00  0.00    +0.000 A 
ATOM      5  C   UNL     1      47.533   4.215  13.877  0.00  0.00    +0.000 A 
ATOM      6  C   UNL     1      47.503   5.602  13.770  0.00  0.00    +0.000 A 
ATOM      7  C   UNL     1      46.356   6.213  13.241  0.00  0.00    +0.000 A 
BRANCH   6   8
ATOM      8  N   UNL     1      48.550   6.444  14.183  0.00  0.00    +0.000 N 
ATOM      9  H   UNL     1      49.414   6.210  13.697  0.00  0.00    +0.000 HD
BRANCH   8  10
ATOM     10  C   UNL     1      48.746   7.012  15.483  0.00  0.00    +0.000 C 
ATOM     11  C   UNL     1      50.243   7.205  15.817  0.00  0.00    +0.000 C 
ATOM     12  N   UNL     1      49.989   6.657  17.167  0.00  0.00    +0.000 NA
ATOM     13  C   UNL     1      48.752   6.020  16.658  0.00  0.00    +0.000 C 
ATOM     14  H   UNL     1      49.813   7.384  17.862  0.00  0.00    +0.000 HD
ENDBRANCH   8  10
ENDBRANCH   6   8
ENDBRANCH   1   2
BRANCH   1  15
ATOM     15  C   UNL     1      43.305   5.067  11.289  0.00  0.00    +0.000 C 
BRANCH  15  20
ATOM     16  C   UNL     1      46.211   2.520   7.965  0.00  0.00    +0.000 A 
ATOM     17  C   UNL     1      45.415   2.024   8.991  0.00  0.00    +0.000 A 
ATOM     18  C   UNL     1      44.566   2.893   9.676  0.00  0.00    +0.000 A 
ATOM     19  C   UNL     1      44.538   4.238   9.331  0.00  0.00    +0.000 A 
ATOM     20  N   UNL     1      43.672   5.161   9.884  0.00  0.00    +0.000 N 
ATOM     21  N   UNL     1      45.320   4.732   8.350  0.00  0.00    +0.000 NA
ATOM     22  C   UNL     1      46.133   3.877   7.690  0.00  0.00    +0.000 A 
ATOM     23  H   UNL     1      44.009   6.063   9.551  0.00  0.00    +0.000 HD
BRANCH  16  25
ATOM     24  N   UNL     1      47.741   0.976   6.566  0.00  0.00    +0.000 NA
ATOM     25  C   UNL     1      47.056   1.671   7.199  0.00  0.00    +0.000 C 
ENDBRANCH  16  25
ENDBRANCH  15  20
ENDBRANCH   1  15
BRANCH   1  26
ATOM     26  C   UNL     1      44.328   7.400  11.337  0.00  0.00    +0.000 C 
BRANCH  26  27
ATOM     27  O   UNL     1      44.228   8.607  12.091  0.00  0.00    +0.000 OA
ATOM     28  H   UNL     1      44.160   8.389  13.036  0.00  0.00    +0.000 HD
ENDBRANCH  26  27
ENDBRANCH   1  26
TORSDOF 8
ENDMDL
MODEL 7
REMARK VINA RESULT:    -6.677      2.790      7.490
REMARK INTER + INTRA:         -10.392
REMARK INTER:                 -10.056
REMARK INTRA:                  -0.336
REMARK UNBOUND:                -0.788
REMARK  Name = 
REMARK  8 active torsions:
REMARK  status: ('A' for Active; 'I' for Inactive)
REMARK    1  A    between atoms: C_2  and  C_3
REMARK    2  A    between atoms: N_7  and  C_8
REMARK    3  A    between atoms: C_8  and  C_9
REMARK    4  A    between atoms: C_9  and  C_10
REMARK    5  A    between atoms: C_9  and  C_12
REMARK    6  A    between atoms: C_10  and  O_11
REMARK    7  A    between atoms: C_16  and  N_17
REMARK    8  A    between atoms: N_17  and  C_18
REMARK                            x       y       z     vdW  Elec       q    Type
REMARK                         _______ _______ _______ _____ _____    ______ ____
ROOT
ATOM      1  C   UNL     1      45.295   6.238  11.220  0.00  0.00    +0.000 C 
ENDROOT
BRANCH   1   2
ATOM      2  C   UNL     1      45.095   4.897  10.494  0.00  0.00    +0.000 A 
ATOM      3  C   UNL     1      44.410   3.850  11.130  0.00  0.00    +0.000 A 
ATOM      4  C   UNL     1      44.127   2.662  10.451  0.00  0.00    +0.000 A 
ATOM      5  C   UNL     1      44.568   2.475   9.139  0.00  0.00    +0.000 A 
ATOM      6  C   UNL     1      45.282   3.479   8.493  0.00  0.00    +0.000 A 
ATOM      7  C   UNL     1      45.532   4.678   9.178  0.00  0.00    +0.000 A 
BRANCH   6   8
ATOM      8  N   UNL     1      45.796   3.362   7.190  0.00  0.00    +0.000 N 
ATOM      9  H   UNL     1      45.123   2.906   6.576  0.00  0.00    +0.000 HD
BRANCH   8  10
ATOM     10  C   UNL     1      47.162   3.162   6.811  0.00  0.00    +0.000 C 
ATOM     11  C   UNL     1      47.307   2.802   5.314  0.00  0.00    +0.000 C 
ATOM     12  N   UNL     1      48.275   1.747   5.683  0.00  0.00    +0.000 NA
ATOM     13  C   UNL     1      47.732   1.756   7.063  0.00  0.00    +0.000 C 
ATOM     14  H   UNL     1      49.244   2.063   5.629  0.00  0.00    +0.000 HD
ENDBRANCH   8  10
ENDBRANCH   6   8
ENDBRANCH   1   2
BRANCH   1  15
ATOM     15  C   UNL     1      45.739   5.934  12.678  0.00  0.00    +0.000 C 
BRANCH  15  20
ATOM     16  C   UNL     1      50.318   8.146  13.026  0.00  0.00    +0.000 A 
ATOM     17  C   UNL     1      49.721   7.539  11.927  0.00  0.00    +0.000 A 
ATOM     18  C   UNL     1      48.385   7.146  12.009  0.00  0.00    +0.000 A 
ATOM     19  C   UNL     1      47.678   7.355  13.185  0.00  0.00    +0.000 A 
ATOM     20  N   UNL     1      46.332   7.087  13.339  0.00  0.00    +0.000 N 
ATOM     21  N   UNL     1      48.254   7.927  14.263  0.00  0.00    +0.000 NA
ATOM     22  C   UNL     1      49.548   8.308  14.168  0.00  0.00    +0.000 A 
ATOM     23  H   UNL     1      46.161   7.188  14.339  0.00  0.00    +0.000 HD
BRANCH  16  25
ATOM     24  N   UNL     1      52.761   8.987  12.951  0.00  0.00    +0.000 NA
ATOM     25  C   UNL     1      51.660   8.613  12.982  0.00  0.00    +0.000 C 
ENDBRANCH  16  25
ENDBRANCH  15  20
ENDBRANCH   1  15
BRANCH   1  26
ATOM     26  C   UNL     1      44.054   7.163  11.213  0.00  0.00    +0.000 C 
BRANCH  26  27
ATOM     27  O   UNL     1      42.869   6.507  10.763  0.00  0.00    +0.000 OA
ATOM     28  H   UNL     1      43.022   5.548  10.744  0.00  0.00    +0.000 HD
ENDBRANCH  26  27
ENDBRANCH   1  26
TORSDOF 8
ENDMDL
MODEL 8
REMARK VINA RESULT:    -6.649      2.658      8.220
REMARK INTER + INTRA:         -10.353
REMARK INTER:                  -9.795
REMARK INTRA:                  -0.558
REMARK UNBOUND:                -0.788
REMARK  Name = 
REMARK  8 active torsions:
REMARK  status: ('A' for Active; 'I' for Inactive)
REMARK    1  A    between atoms: C_2  and  C_3
REMARK    2  A    between atoms: N_7  and  C_8
REMARK    3  A    between atoms: C_8  and  C_9
REMARK    4  A    between atoms: C_9  and  C_10
REMARK    5  A    between atoms: C_9  and  C_12
REMARK    6  A    between atoms: C_10  and  O_11
REMARK    7  A    between atoms: C_16  and  N_17
REMARK    8  A    between atoms: N_17  and  C_18
REMARK                            x       y       z     vdW  Elec       q    Type
REMARK                         _______ _______ _______ _____ _____    ______ ____
ROOT
ATOM      1  C   UNL     1      45.407   6.329  11.084  0.00  0.00    +0.000 C 
ENDROOT
BRANCH   1   2
ATOM      2  C   UNL     1      45.148   4.978  10.397  0.00  0.00    +0.000 A 
ATOM      3  C   UNL     1      44.411   3.983  11.060  0.00  0.00    +0.000 A 
ATOM      4  C   UNL     1      44.076   2.790  10.415  0.00  0.00    +0.000 A 
ATOM      5  C   UNL     1      44.514   2.544   9.111  0.00  0.00    +0.000 A 
ATOM      6  C   UNL     1      45.276   3.494   8.440  0.00  0.00    +0.000 A 
ATOM      7  C   UNL     1      45.579   4.699   9.091  0.00  0.00    +0.000 A 
BRANCH   6   8
ATOM      8  N   UNL     1      45.790   3.314   7.143  0.00  0.00    +0.000 N 
ATOM      9  H   UNL     1      45.139   2.781   6.568  0.00  0.00    +0.000 HD
BRANCH   8  10
ATOM     10  C   UNL     1      47.163   3.161   6.768  0.00  0.00    +0.000 C 
ATOM     11  C   UNL     1      47.324   2.801   5.272  0.00  0.00    +0.000 C 
ATOM     12  N   UNL     1      48.328   1.783   5.648  0.00  0.00    +0.000 NA
ATOM     13  C   UNL     1      47.783   1.777   7.026  0.00  0.00    +0.000 C 
ATOM     14  H   UNL     1      49.285   2.133   5.594  0.00  0.00    +0.000 HD
ENDBRANCH   8  10
ENDBRANCH   6   8
ENDBRANCH   1   2
BRANCH   1  15
ATOM     15  C   UNL     1      46.623   6.159  12.036  0.00  0.00    +0.000 C 
BRANCH  15  20
ATOM     16  C   UNL     1      48.891   8.175  16.131  0.00  0.00    +0.000 A 
ATOM     17  C   UNL     1      48.983   6.883  15.628  0.00  0.00    +0.000 A 
ATOM     18  C   UNL     1      48.407   6.591  14.391  0.00  0.00    +0.000 A 
ATOM     19  C   UNL     1      47.744   7.589  13.690  0.00  0.00    +0.000 A 
ATOM     20  N   UNL     1      47.220   7.428  12.423  0.00  0.00    +0.000 N 
ATOM     21  N   UNL     1      47.634   8.842  14.179  0.00  0.00    +0.000 NA
ATOM     22  C   UNL     1      48.202   9.112  15.376  0.00  0.00    +0.000 A 
ATOM     23  H   UNL     1      46.668   8.270  12.263  0.00  0.00    +0.000 HD
BRANCH  16  25
ATOM     24  N   UNL     1      50.009   8.834  18.367  0.00  0.00    +0.000 NA
ATOM     25  C   UNL     1      49.503   8.542  17.361  0.00  0.00    +0.000 C 
ENDBRANCH  16  25
ENDBRANCH  15  20
ENDBRANCH   1  15
BRANCH   1  26
ATOM     26  C   UNL     1      44.192   6.902  11.853  0.00  0.00    +0.000 C 
BRANCH  26  27
ATOM     27  O   UNL     1      43.217   7.497  10.997  0.00  0.00    +0.000 OA
ATOM     28  H   UNL     1      43.431   7.284  10.073  0.00  0.00    +0.000 HD
ENDBRANCH  26  27
ENDBRANCH   1  26
TORSDOF 8
ENDMDL
MODEL 9
REMARK VINA RESULT:    -6.520      3.051      4.090
REMARK INTER + INTRA:         -10.167
REMARK INTER:                  -9.438
REMARK INTRA:                  -0.729
REMARK UNBOUND:                -0.788
REMARK  Name = 
REMARK  8 active torsions:
REMARK  status: ('A' for Active; 'I' for Inactive)
REMARK    1  A    between atoms: C_2  and  C_3
REMARK    2  A    between atoms: N_7  and  C_8
REMARK    3  A    between atoms: C_8  and  C_9
REMARK    4  A    between atoms: C_9  and  C_10
REMARK    5  A    between atoms: C_9  and  C_12
REMARK    6  A    between atoms: C_10  and  O_11
REMARK    7  A    between atoms: C_16  and  N_17
REMARK    8  A    between atoms: N_17  and  C_18
REMARK                            x       y       z     vdW  Elec       q    Type
REMARK                         _______ _______ _______ _____ _____    ______ ____
ROOT
ATOM      1  C   UNL     1      45.446   5.427  12.266  0.00  0.00    +0.000 C 
ENDROOT
BRANCH   1   2
ATOM      2  C   UNL     1      46.048   6.841  12.211  0.00  0.00    +0.000 A 
ATOM      3  C   UNL     1      45.253   7.956  12.523  0.00  0.00    +0.000 A 
ATOM      4  C   UNL     1      45.807   9.237  12.581  0.00  0.00    +0.000 A 
ATOM      5  C   UNL     1      47.155   9.439  12.277  0.00  0.00    +0.000 A 
ATOM      6  C   UNL     1      47.961   8.361  11.928  0.00  0.00    +0.000 A 
ATOM      7  C   UNL     1      47.397   7.076  11.904  0.00  0.00    +0.000 A 
BRANCH   6   8
ATOM      8  N   UNL     1      49.316   8.477  11.570  0.00  0.00    +0.000 N 
ATOM      9  H   UNL     1      49.583   7.737  10.922  0.00  0.00    +0.000 HD
BRANCH   8  10
ATOM     10  C   UNL     1      50.391   8.955  12.386  0.00  0.00    +0.000 C 
ATOM     11  C   UNL     1      51.760   8.396  11.936  0.00  0.00    +0.000 C 
ATOM     12  N   UNL     1      52.097   8.138  13.352  0.00  0.00    +0.000 NA
ATOM     13  C   UNL     1      50.652   8.172  13.684  0.00  0.00    +0.000 C 
ATOM     14  H   UNL     1      52.626   8.899  13.778  0.00  0.00    +0.000 HD
ENDBRANCH   8  10
ENDBRANCH   6   8
ENDBRANCH   1   2
BRANCH   1  15
ATOM     15  C   UNL     1      44.079   5.458  11.528  0.00  0.00    +0.000 C 
BRANCH  15  20
ATOM     16  C   UNL     1      46.070   2.375   7.990  0.00  0.00    +0.000 A 
ATOM     17  C   UNL     1      45.400   2.044   9.162  0.00  0.00    +0.000 A 
ATOM     18  C   UNL     1      44.787   3.053   9.905  0.00  0.00    +0.000 A 
ATOM     19  C   UNL     1      44.864   4.369   9.469  0.00  0.00    +0.000 A 
ATOM     20  N   UNL     1      44.218   5.426  10.079  0.00  0.00    +0.000 N 
ATOM     21  N   UNL     1      45.527   4.702   8.343  0.00  0.00    +0.000 NA
ATOM     22  C   UNL     1      46.112   3.713   7.630  0.00  0.00    +0.000 A 
ATOM     23  H   UNL     1      44.602   6.257   9.631  0.00  0.00    +0.000 HD
BRANCH  16  25
ATOM     24  N   UNL     1      47.163   0.566   6.502  0.00  0.00    +0.000 NA
ATOM     25  C   UNL     1      46.669   1.382   7.167  0.00  0.00    +0.000 C 
ENDBRANCH  16  25
ENDBRANCH  15  20
ENDBRANCH   1  15
BRANCH   1  26
ATOM     26  C   UNL     1      45.278   4.856  13.694  0.00  0.00    +0.000 C 
BRANCH  26  27
ATOM     27  O   UNL     1      46.428   5.054  14.516  0.00  0.00    +0.000 OA
ATOM     28  H   UNL     1      46.452   4.365  15.202  0.00  0.00    +0.000 HD
ENDBRANCH  26  27
ENDBRANCH   1  26
TORSDOF 8
ENDMDL
