MODEL 1
REMARK VINA RESULT:    -9.468      0.000      0.000
REMARK INTER + INTRA:         -14.503
REMARK INTER:                 -13.343
REMARK INTRA:                  -1.160
REMARK UNBOUND:                -1.160
REMARK  Name = 
REMARK  7 active torsions:
REMARK  status: ('A' for Active; 'I' for Inactive)
REMARK    1  A    between atoms: C_2  and  C_4
REMARK    2  A    between atoms: C_7  and  O_8
REMARK    3  A    between atoms: O_8  and  C_9
REMARK    4  A    between atoms: C_9  and  C_10
REMARK    5  A    between atoms: C_10  and  C_13
REMARK    6  A    between atoms: C_17  and  C_18
REMARK    7  A    between atoms: C_21  and  C_22
REMARK                            x       y       z     vdW  Elec       q    Type
REMARK                         _______ _______ _______ _____ _____    ______ ____
ROOT
ATOM      1  C   UNL     1      43.343   5.464  11.882  0.00  0.00    +0.000 C 
ATOM      2  F   UNL     1      42.636   6.536  11.410  0.00  0.00    +0.000 F 
ATOM      3  F   UNL     1      42.672   5.059  13.005  0.00  0.00    +0.000 F 
ENDROOT
BRANCH   1   4
ATOM      4  C   UNL     1      44.776   5.863  12.233  0.00  0.00    +0.000 A 
ATOM      5  C   UNL     1      45.373   6.910  11.515  0.00  0.00    +0.000 A 
ATOM      6  C   UNL     1      46.660   7.342  11.831  0.00  0.00    +0.000 A 
ATOM      7  C   UNL     1      47.360   6.754  12.887  0.00  0.00    +0.000 A 
ATOM      8  C   UNL     1      46.795   5.719  13.648  0.00  0.00    +0.000 A 
ATOM      9  C   UNL     1      45.516   5.266  13.276  0.00  0.00    +0.000 A 
BRANCH   8  10
ATOM     10  C   UNL     1      47.476   5.156  14.833  0.00  0.00    +0.000 A 
ATOM     11  C   UNL     1      48.295   5.932  15.652  0.00  0.00    +0.000 A 
ATOM     12  C   UNL     1      48.887   5.358  16.773  0.00  0.00    +0.000 A 
ATOM     13  C   UNL     1      48.652   4.016  17.070  0.00  0.00    +0.000 A 
ATOM     14  C   UNL     1      47.808   3.316  16.221  0.00  0.00    +0.000 A 
ATOM     15  N   UNL     1      47.219   3.855  15.123  0.00  0.00    +0.000 NA
BRANCH  13  16
ATOM     16  C   UNL     1      49.274   3.333  18.248  0.00  0.00    +0.000 C 
ATOM     17  F   UNL     1      50.014   2.240  17.908  0.00  0.00    +0.000 F 
ATOM     18  F   UNL     1      50.113   4.147  18.945  0.00  0.00    +0.000 F 
ATOM     19  F   UNL     1      48.350   2.890  19.143  0.00  0.00    +0.000 F 
ENDBRANCH  13  16
ENDBRANCH   8  10
ENDBRANCH   1   4
BRANCH   1  20
ATOM     20  C   UNL     1      43.265   4.338  10.846  0.00  0.00    +0.000 C 
BRANCH  20  21
ATOM     21  O   UNL     1      43.571   4.763   9.507  0.00  0.00    +0.000 OA
BRANCH  21  25
ATOM     22  C   UNL     1      46.385   2.261   7.826  0.00  0.00    +0.000 A 
ATOM     23  C   UNL     1      45.445   1.741   8.722  0.00  0.00    +0.000 A 
ATOM     24  C   UNL     1      44.503   2.596   9.299  0.00  0.00    +0.000 A 
ATOM     25  C   UNL     1      44.536   3.939   8.953  0.00  0.00    +0.000 A 
ATOM     26  N   UNL     1      45.447   4.467   8.105  0.00  0.00    +0.000 NA
ATOM     27  C   UNL     1      46.355   3.622   7.567  0.00  0.00    +0.000 A 
BRANCH  22  29
ATOM     28  N   UNL     1      48.373   2.108   6.446  0.00  0.00    +0.000 N 
ATOM     29  C   UNL     1      47.399   1.443   7.134  0.00  0.00    +0.000 C 
ATOM     30  O   UNL     1      47.395   0.221   7.211  0.00  0.00    +0.000 OA
ATOM     31  H   UNL     1      49.133   1.539   6.091  0.00  0.00    +0.000 HD
ATOM     32  H   UNL     1      48.556   3.091   6.582  0.00  0.00    +0.000 HD
ENDBRANCH  22  29
ENDBRANCH  21  25
ENDBRANCH  20  21
ENDBRANCH   1  20
TORSDOF 7
ENDMDL
MODEL 2
REMARK VINA RESULT:    -8.297      3.663      4.950
REMARK INTER + INTRA:         -12.853
REMARK INTER:                 -11.547
REMARK INTRA:                  -1.306
REMARK UNBOUND:                -1.160
REMARK  Name = 
REMARK  7 active torsions:
REMARK  status: ('A' for Active; 'I' for Inactive)
REMARK    1  A    between atoms: C_2  and  C_4
REMARK    2  A    between atoms: C_7  and  O_8
REMARK    3  A    between atoms: O_8  and  C_9
REMARK    4  A    between atoms: C_9  and  C_10
REMARK    5  A    between atoms: C_10  and  C_13
REMARK    6  A    between atoms: C_17  and  C_18
REMARK    7  A    between atoms: C_21  and  C_22
REMARK                            x       y       z     vdW  Elec       q    Type
REMARK                         _______ _______ _______ _____ _____    ______ ____
ROOT
ATOM      1  C   UNL     1      43.419   5.695  11.668  0.00  0.00    +0.000 C 
ATOM      2  F   UNL     1      42.938   6.967  11.514  0.00  0.00    +0.000 F 
ATOM      3  F   UNL     1      42.501   5.059  12.460  0.00  0.00    +0.000 F 
ENDROOT
BRANCH   1   4
ATOM      4  C   UNL     1      44.789   5.705  12.343  0.00  0.00    +0.000 A 
ATOM      5  C   UNL     1      45.097   4.680  13.250  0.00  0.00    +0.000 A 
ATOM      6  C   UNL     1      46.352   4.618  13.853  0.00  0.00    +0.000 A 
ATOM      7  C   UNL     1      47.329   5.565  13.539  0.00  0.00    +0.000 A 
ATOM      8  C   UNL     1      47.076   6.596  12.621  0.00  0.00    +0.000 A 
ATOM      9  C   UNL     1      45.785   6.666  12.066  0.00  0.00    +0.000 A 
BRANCH   8  10
ATOM     10  C   UNL     1      48.128   7.544  12.198  0.00  0.00    +0.000 A 
ATOM     11  C   UNL     1      47.836   8.858  11.838  0.00  0.00    +0.000 A 
ATOM     12  C   UNL     1      48.870   9.718  11.476  0.00  0.00    +0.000 A 
ATOM     13  C   UNL     1      50.187   9.259  11.482  0.00  0.00    +0.000 A 
ATOM     14  C   UNL     1      50.399   7.946  11.874  0.00  0.00    +0.000 A 
ATOM     15  N   UNL     1      49.408   7.090  12.231  0.00  0.00    +0.000 NA
BRANCH  13  16
ATOM     16  C   UNL     1      51.341  10.125  11.085  0.00  0.00    +0.000 C 
ATOM     17  F   UNL     1      52.225   9.499  10.258  0.00  0.00    +0.000 F 
ATOM     18  F   UNL     1      50.952  11.251  10.427  0.00  0.00    +0.000 F 
ATOM     19  F   UNL     1      52.070  10.546  12.154  0.00  0.00    +0.000 F 
ENDBRANCH  13  16
ENDBRANCH   8  10
ENDBRANCH   1   4
BRANCH   1  20
ATOM     20  C   UNL     1      43.424   5.009  10.298  0.00  0.00    +0.000 C 
BRANCH  20  21
ATOM     21  O   UNL     1      43.670   3.594  10.361  0.00  0.00    +0.000 OA
BRANCH  21  25
ATOM     22  C   UNL     1      46.564   2.573   7.606  0.00  0.00    +0.000 A 
ATOM     23  C   UNL     1      46.131   3.900   7.694  0.00  0.00    +0.000 A 
ATOM     24  C   UNL     1      45.140   4.237   8.619  0.00  0.00    +0.000 A 
ATOM     25  C   UNL     1      44.624   3.233   9.425  0.00  0.00    +0.000 A 
ATOM     26  N   UNL     1      45.013   1.940   9.344  0.00  0.00    +0.000 NA
ATOM     27  C   UNL     1      45.965   1.636   8.435  0.00  0.00    +0.000 A 
BRANCH  22  29
ATOM     28  N   UNL     1      48.555   3.037   6.301  0.00  0.00    +0.000 N 
ATOM     29  C   UNL     1      47.627   2.115   6.691  0.00  0.00    +0.000 C 
ATOM     30  O   UNL     1      47.701   0.947   6.333  0.00  0.00    +0.000 OA
ATOM     31  H   UNL     1      49.348   2.677   5.784  0.00  0.00    +0.000 HD
ATOM     32  H   UNL     1      48.675   3.919   6.778  0.00  0.00    +0.000 HD
ENDBRANCH  22  29
ENDBRANCH  21  25
ENDBRANCH  20  21
ENDBRANCH   1  20
TORSDOF 7
ENDMDL
MODEL 3
REMARK VINA RESULT:    -8.167      4.002      8.165
REMARK INTER + INTRA:         -12.669
REMARK INTER:                 -11.433
REMARK INTRA:                  -1.236
REMARK UNBOUND:                -1.160
REMARK  Name = 
REMARK  7 active torsions:
REMARK  status: ('A' for Active; 'I' for Inactive)
REMARK    1  A    between atoms: C_2  and  C_4
REMARK    2  A    between atoms: C_7  and  O_8
REMARK    3  A    between atoms: O_8  and  C_9
REMARK    4  A    between atoms: C_9  and  C_10
REMARK    5  A    between atoms: C_10  and  C_13
REMARK    6  A    between atoms: C_17  and  C_18
REMARK    7  A    between atoms: C_21  and  C_22
REMARK                            x       y       z     vdW  Elec       q    Type
REMARK                         _______ _______ _______ _____ _____    ______ ____
ROOT
ATOM      1  C   UNL     1      45.800   8.244  12.461  0.00  0.00    +0.000 C 
ATOM      2  F   UNL     1      44.891   9.168  12.900  0.00  0.00    +0.000 F 
ATOM      3  F   UNL     1      46.422   8.833  11.393  0.00  0.00    +0.000 F 
ENDROOT
BRANCH   1   4
ATOM      4  C   UNL     1      45.105   6.954  12.027  0.00  0.00    +0.000 A 
ATOM      5  C   UNL     1      43.855   6.647  12.585  0.00  0.00    +0.000 A 
ATOM      6  C   UNL     1      43.160   5.507  12.185  0.00  0.00    +0.000 A 
ATOM      7  C   UNL     1      43.690   4.671  11.199  0.00  0.00    +0.000 A 
ATOM      8  C   UNL     1      44.926   4.949  10.596  0.00  0.00    +0.000 A 
ATOM      9  C   UNL     1      45.631   6.077  11.055  0.00  0.00    +0.000 A 
BRANCH   8  10
ATOM     10  C   UNL     1      45.454   4.136   9.481  0.00  0.00    +0.000 A 
ATOM     11  C   UNL     1      45.314   2.749   9.447  0.00  0.00    +0.000 A 
ATOM     12  C   UNL     1      45.803   2.035   8.356  0.00  0.00    +0.000 A 
ATOM     13  C   UNL     1      46.423   2.712   7.307  0.00  0.00    +0.000 A 
ATOM     14  C   UNL     1      46.505   4.093   7.403  0.00  0.00    +0.000 A 
ATOM     15  N   UNL     1      46.035   4.810   8.455  0.00  0.00    +0.000 NA
BRANCH  13  16
ATOM     16  C   UNL     1      46.989   2.003   6.116  0.00  0.00    +0.000 C 
ATOM     17  F   UNL     1      46.819   0.652   6.163  0.00  0.00    +0.000 F 
ATOM     18  F   UNL     1      46.426   2.408   4.945  0.00  0.00    +0.000 F 
ATOM     19  F   UNL     1      48.328   2.203   5.978  0.00  0.00    +0.000 F 
ENDBRANCH  13  16
ENDBRANCH   8  10
ENDBRANCH   1   4
BRANCH   1  20
ATOM     20  C   UNL     1      46.842   8.029  13.563  0.00  0.00    +0.000 C 
BRANCH  20  21
ATOM     21  O   UNL     1      47.767   6.964  13.283  0.00  0.00    +0.000 OA
BRANCH  21  25
ATOM     22  C   UNL     1      47.684   4.098  16.248  0.00  0.00    +0.000 A 
ATOM     23  C   UNL     1      46.914   3.921  15.093  0.00  0.00    +0.000 A 
ATOM     24  C   UNL     1      46.936   4.902  14.099  0.00  0.00    +0.000 A 
ATOM     25  C   UNL     1      47.730   6.021  14.296  0.00  0.00    +0.000 A 
ATOM     26  N   UNL     1      48.467   6.223  15.413  0.00  0.00    +0.000 NA
ATOM     27  C   UNL     1      48.422   5.266  16.365  0.00  0.00    +0.000 A 
BRANCH  22  29
ATOM     28  N   UNL     1      48.977   2.940  17.942  0.00  0.00    +0.000 N 
ATOM     29  C   UNL     1      47.762   3.111  17.342  0.00  0.00    +0.000 C 
ATOM     30  O   UNL     1      46.771   2.506  17.727  0.00  0.00    +0.000 OA
ATOM     31  H   UNL     1      48.983   2.362  18.773  0.00  0.00    +0.000 HD
ATOM     32  H   UNL     1      49.733   3.600  17.831  0.00  0.00    +0.000 HD
ENDBRANCH  22  29
ENDBRANCH  21  25
ENDBRANCH  20  21
ENDBRANCH   1  20
TORSDOF 7
ENDMDL
MODEL 4
REMARK VINA RESULT:    -7.887      2.361      2.943
REMARK INTER + INTRA:         -12.275
REMARK INTER:                 -10.952
REMARK INTRA:                  -1.323
REMARK UNBOUND:                -1.160
REMARK  Name = 
REMARK  7 active torsions:
REMARK  status: ('A' for Active; 'I' for Inactive)
REMARK    1  A    between atoms: C_2  and  C_4
REMARK    2  A    between atoms: C_7  and  O_8
REMARK    3  A    between atoms: O_8  and  C_9
REMARK    4  A    between atoms: C_9  and  C_10
REMARK    5  A    between atoms: C_10  and  C_13
REMARK    6  A    between atoms: C_17  and  C_18
REMARK    7  A    between atoms: C_21  and  C_22
REMARK                            x       y       z     vdW  Elec       q    Type
REMARK                         _______ _______ _______ _____ _____    ______ ____
ROOT
ATOM      1  C   UNL     1      44.016   4.218  12.544  0.00  0.00    +0.000 C 
ATOM      2  F   UNL     1      42.715   4.526  12.252  0.00  0.00    +0.000 F 
ATOM      3  F   UNL     1      44.005   3.826  13.856  0.00  0.00    +0.000 F 
ENDROOT
BRANCH   1   4
ATOM      4  C   UNL     1      44.922   5.435  12.359  0.00  0.00    +0.000 A 
ATOM      5  C   UNL     1      44.473   6.486  11.547  0.00  0.00    +0.000 A 
ATOM      6  C   UNL     1      45.242   7.638  11.387  0.00  0.00    +0.000 A 
ATOM      7  C   UNL     1      46.460   7.768  12.058  0.00  0.00    +0.000 A 
ATOM      8  C   UNL     1      46.940   6.752  12.899  0.00  0.00    +0.000 A 
ATOM      9  C   UNL     1      46.170   5.579  13.003  0.00  0.00    +0.000 A 
BRANCH   8  10
ATOM     10  C   UNL     1      48.173   6.914  13.698  0.00  0.00    +0.000 A 
ATOM     11  C   UNL     1      49.220   7.735  13.282  0.00  0.00    +0.000 A 
ATOM     12  C   UNL     1      50.346   7.875  14.089  0.00  0.00    +0.000 A 
ATOM     13  C   UNL     1      50.414   7.199  15.307  0.00  0.00    +0.000 A 
ATOM     14  C   UNL     1      49.323   6.420  15.662  0.00  0.00    +0.000 A 
ATOM     15  N   UNL     1      48.216   6.268  14.892  0.00  0.00    +0.000 NA
BRANCH  13  16
ATOM     16  C   UNL     1      51.603   7.290  16.211  0.00  0.00    +0.000 C 
ATOM     17  F   UNL     1      51.275   7.523  17.512  0.00  0.00    +0.000 F 
ATOM     18  F   UNL     1      52.350   6.152  16.215  0.00  0.00    +0.000 F 
ATOM     19  F   UNL     1      52.451   8.294  15.857  0.00  0.00    +0.000 F 
ENDBRANCH  13  16
ENDBRANCH   8  10
ENDBRANCH   1   4
BRANCH   1  20
ATOM     20  C   UNL     1      44.433   3.017  11.690  0.00  0.00    +0.000 C 
BRANCH  20  21
ATOM     21  O   UNL     1      43.704   2.905  10.455  0.00  0.00    +0.000 OA
BRANCH  21  25
ATOM     22  C   UNL     1      46.363   2.846   7.304  0.00  0.00    +0.000 A 
ATOM     23  C   UNL     1      45.740   4.047   7.659  0.00  0.00    +0.000 A 
ATOM     24  C   UNL     1      44.829   4.057   8.718  0.00  0.00    +0.000 A 
ATOM     25  C   UNL     1      44.581   2.867   9.385  0.00  0.00    +0.000 A 
ATOM     26  N   UNL     1      45.157   1.691   9.046  0.00  0.00    +0.000 NA
ATOM     27  C   UNL     1      46.026   1.703   8.011  0.00  0.00    +0.000 A 
BRANCH  22  29
ATOM     28  N   UNL     1      48.630   2.366   6.588  0.00  0.00    +0.000 N 
ATOM     29  C   UNL     1      47.365   2.729   6.226  0.00  0.00    +0.000 C 
ATOM     30  O   UNL     1      47.063   2.904   5.053  0.00  0.00    +0.000 OA
ATOM     31  H   UNL     1      49.267   2.160   5.827  0.00  0.00    +0.000 HD
ATOM     32  H   UNL     1      48.841   1.963   7.490  0.00  0.00    +0.000 HD
ENDBRANCH  22  29
ENDBRANCH  21  25
ENDBRANCH  20  21
ENDBRANCH   1  20
TORSDOF 7
ENDMDL
MODEL 5
REMARK VINA RESULT:    -7.178      4.220      8.033
REMARK INTER + INTRA:         -11.276
REMARK INTER:                  -9.524
REMARK INTRA:                  -1.753
REMARK UNBOUND:                -1.160
REMARK  Name = 
REMARK  7 active torsions:
REMARK  status: ('A' for Active; 'I' for Inactive)
REMARK    1  A    between atoms: C_2  and  C_4
REMARK    2  A    between atoms: C_7  and  O_8
REMARK    3  A    between atoms: O_8  and  C_9
REMARK    4  A    between atoms: C_9  and  C_10
REMARK    5  A    between atoms: C_10  and  C_13
REMARK    6  A    between atoms: C_17  and  C_18
REMARK    7  A    between atoms: C_21  and  C_22
REMARK                            x       y       z     vdW  Elec       q    Type
REMARK                         _______ _______ _______ _____ _____    ______ ____
ROOT
ATOM      1  C   UNL     1      48.879   9.155  16.414  0.00  0.00    +0.000 C 
ATOM      2  F   UNL     1      47.579   9.423  16.748  0.00  0.00    +0.000 F 
ATOM      3  F   UNL     1      49.505  10.372  16.408  0.00  0.00    +0.000 F 
ENDROOT
BRANCH   1   4
ATOM      4  C   UNL     1      48.967   8.503  15.035  0.00  0.00    +0.000 A 
ATOM      5  C   UNL     1      50.116   8.723  14.263  0.00  0.00    +0.000 A 
ATOM      6  C   UNL     1      50.265   8.111  13.019  0.00  0.00    +0.000 A 
ATOM      7  C   UNL     1      49.278   7.245  12.541  0.00  0.00    +0.000 A 
ATOM      8  C   UNL     1      48.121   6.976  13.287  0.00  0.00    +0.000 A 
ATOM      9  C   UNL     1      47.972   7.647  14.515  0.00  0.00    +0.000 A 
BRANCH   8  10
ATOM     10  C   UNL     1      47.118   5.985  12.847  0.00  0.00    +0.000 A 
ATOM     11  C   UNL     1      46.821   4.850  13.599  0.00  0.00    +0.000 A 
ATOM     12  C   UNL     1      45.844   3.964  13.152  0.00  0.00    +0.000 A 
ATOM     13  C   UNL     1      45.168   4.223  11.960  0.00  0.00    +0.000 A 
ATOM     14  C   UNL     1      45.503   5.383  11.280  0.00  0.00    +0.000 A 
ATOM     15  N   UNL     1      46.451   6.261  11.696  0.00  0.00    +0.000 NA
BRANCH  13  16
ATOM     16  C   UNL     1      44.123   3.301  11.414  0.00  0.00    +0.000 C 
ATOM     17  F   UNL     1      43.624   2.440  12.344  0.00  0.00    +0.000 F 
ATOM     18  F   UNL     1      43.047   3.965  10.908  0.00  0.00    +0.000 F 
ATOM     19  F   UNL     1      44.593   2.522  10.402  0.00  0.00    +0.000 F 
ENDBRANCH  13  16
ENDBRANCH   8  10
ENDBRANCH   1   4
BRANCH   1  20
ATOM     20  C   UNL     1      49.498   8.303  17.527  0.00  0.00    +0.000 C 
BRANCH  20  21
ATOM     21  O   UNL     1      48.567   7.403  18.152  0.00  0.00    +0.000 OA
BRANCH  21  25
ATOM     22  C   UNL     1      49.578   3.506  17.259  0.00  0.00    +0.000 A 
ATOM     23  C   UNL     1      48.264   3.942  17.061  0.00  0.00    +0.000 A 
ATOM     24  C   UNL     1      47.924   5.259  17.379  0.00  0.00    +0.000 A 
ATOM     25  C   UNL     1      48.915   6.091  17.878  0.00  0.00    +0.000 A 
ATOM     26  N   UNL     1      50.187   5.686  18.096  0.00  0.00    +0.000 NA
ATOM     27  C   UNL     1      50.489   4.405  17.791  0.00  0.00    +0.000 A 
BRANCH  22  29
ATOM     28  N   UNL     1      50.951   1.575  17.778  0.00  0.00    +0.000 N 
ATOM     29  C   UNL     1      50.053   2.149  16.925  0.00  0.00    +0.000 C 
ATOM     30  O   UNL     1      49.624   1.546  15.950  0.00  0.00    +0.000 OA
ATOM     31  H   UNL     1      51.162   0.599  17.608  0.00  0.00    +0.000 HD
ATOM     32  H   UNL     1      51.115   1.929  18.709  0.00  0.00    +0.000 HD
ENDBRANCH  22  29
ENDBRANCH  21  25
ENDBRANCH  20  21
ENDBRANCH   1  20
TORSDOF 7
ENDMDL
MODEL 6
REMARK VINA RESULT:    -6.755      4.476      8.301
REMARK INTER + INTRA:         -10.679
REMARK INTER:                  -9.128
REMARK INTRA:                  -1.551
REMARK UNBOUND:                -1.160
REMARK  Name = 
REMARK  7 active torsions:
REMARK  status: ('A' for Active; 'I' for Inactive)
REMARK    1  A    between atoms: C_2  and  C_4
REMARK    2  A    between atoms: C_7  and  O_8
REMARK    3  A    between atoms: O_8  and  C_9
REMARK    4  A    between atoms: C_9  and  C_10
REMARK    5  A    between atoms: C_10  and  C_13
REMARK    6  A    between atoms: C_17  and  C_18
REMARK    7  A    between atoms: C_21  and  C_22
REMARK                            x       y       z     vdW  Elec       q    Type
REMARK                         _______ _______ _______ _____ _____    ______ ____
ROOT
ATOM      1  C   UNL     1      49.439   9.928  14.936  0.00  0.00    +0.000 C 
ATOM      2  F   UNL     1      49.097  11.230  14.692  0.00  0.00    +0.000 F 
ATOM      3  F   UNL     1      50.753   9.968  15.317  0.00  0.00    +0.000 F 
ENDROOT
BRANCH   1   4
ATOM      4  C   UNL     1      49.272   9.072  13.681  0.00  0.00    +0.000 A 
ATOM      5  C   UNL     1      50.351   8.974  12.790  0.00  0.00    +0.000 A 
ATOM      6  C   UNL     1      50.264   8.167  11.657  0.00  0.00    +0.000 A 
ATOM      7  C   UNL     1      49.108   7.423  11.411  0.00  0.00    +0.000 A 
ATOM      8  C   UNL     1      48.011   7.471  12.285  0.00  0.00    +0.000 A 
ATOM      9  C   UNL     1      48.105   8.333  13.394  0.00  0.00    +0.000 A 
BRANCH   8  10
ATOM     10  C   UNL     1      46.822   6.614  12.099  0.00  0.00    +0.000 A 
ATOM     11  C   UNL     1      46.322   6.311  10.834  0.00  0.00    +0.000 A 
ATOM     12  C   UNL     1      45.216   5.473  10.714  0.00  0.00    +0.000 A 
ATOM     13  C   UNL     1      44.624   4.940  11.859  0.00  0.00    +0.000 A 
ATOM     14  C   UNL     1      45.193   5.270  13.080  0.00  0.00    +0.000 A 
ATOM     15  N   UNL     1      46.270   6.084  13.220  0.00  0.00    +0.000 NA
BRANCH  13  16
ATOM     16  C   UNL     1      43.422   4.050  11.801  0.00  0.00    +0.000 C 
ATOM     17  F   UNL     1      43.388   3.263  10.690  0.00  0.00    +0.000 F 
ATOM     18  F   UNL     1      43.345   3.200  12.861  0.00  0.00    +0.000 F 
ATOM     19  F   UNL     1      42.255   4.750  11.795  0.00  0.00    +0.000 F 
ENDBRANCH  13  16
ENDBRANCH   8  10
ENDBRANCH   1   4
BRANCH   1  20
ATOM     20  C   UNL     1      48.612   9.426  16.125  0.00  0.00    +0.000 C 
BRANCH  20  21
ATOM     21  O   UNL     1      49.391   8.741  17.121  0.00  0.00    +0.000 OA
BRANCH  21  25
ATOM     22  C   UNL     1      48.003   4.898  17.682  0.00  0.00    +0.000 A 
ATOM     23  C   UNL     1      48.613   5.243  16.472  0.00  0.00    +0.000 A 
ATOM     24  C   UNL     1      49.068   6.550  16.282  0.00  0.00    +0.000 A 
ATOM     25  C   UNL     1      48.900   7.461  17.314  0.00  0.00    +0.000 A 
ATOM     26  N   UNL     1      48.295   7.155  18.485  0.00  0.00    +0.000 NA
ATOM     27  C   UNL     1      47.853   5.888  18.641  0.00  0.00    +0.000 A 
BRANCH  22  29
ATOM     28  N   UNL     1      48.101   2.903  19.058  0.00  0.00    +0.000 N 
ATOM     29  C   UNL     1      47.518   3.541  18.000  0.00  0.00    +0.000 C 
ATOM     30  O   UNL     1      46.602   3.027  17.373  0.00  0.00    +0.000 OA
ATOM     31  H   UNL     1      47.667   2.033  19.344  0.00  0.00    +0.000 HD
ATOM     32  H   UNL     1      48.657   3.391  19.745  0.00  0.00    +0.000 HD
ENDBRANCH  22  29
ENDBRANCH  21  25
ENDBRANCH  20  21
ENDBRANCH   1  20
TORSDOF 7
ENDMDL
MODEL 7
REMARK VINA RESULT:    -6.548      3.677      6.026
REMARK INTER + INTRA:         -10.388
REMARK INTER:                  -9.445
REMARK INTRA:                  -0.943
REMARK UNBOUND:                -1.160
REMARK  Name = 
REMARK  7 active torsions:
REMARK  status: ('A' for Active; 'I' for Inactive)
REMARK    1  A    between atoms: C_2  and  C_4
REMARK    2  A    between atoms: C_7  and  O_8
REMARK    3  A    between atoms: O_8  and  C_9
REMARK    4  A    between atoms: C_9  and  C_10
REMARK    5  A    between atoms: C_10  and  C_13
REMARK    6  A    between atoms: C_17  and  C_18
REMARK    7  A    between atoms: C_21  and  C_22
REMARK                            x       y       z     vdW  Elec       q    Type
REMARK                         _______ _______ _______ _____ _____    ______ ____
ROOT
ATOM      1  C   UNL     1      49.005   7.311  15.436  0.00  0.00    +0.000 C 
ATOM      2  F   UNL     1      50.183   7.895  15.056  0.00  0.00    +0.000 F 
ATOM      3  F   UNL     1      48.163   8.354  15.718  0.00  0.00    +0.000 F 
ENDROOT
BRANCH   1   4
ATOM      4  C   UNL     1      49.201   6.434  16.671  0.00  0.00    +0.000 A 
ATOM      5  C   UNL     1      48.308   6.579  17.744  0.00  0.00    +0.000 A 
ATOM      6  C   UNL     1      48.417   5.767  18.872  0.00  0.00    +0.000 A 
ATOM      7  C   UNL     1      49.402   4.779  18.934  0.00  0.00    +0.000 A 
ATOM      8  C   UNL     1      50.303   4.581  17.877  0.00  0.00    +0.000 A 
ATOM      9  C   UNL     1      50.205   5.447  16.772  0.00  0.00    +0.000 A 
BRANCH   8  10
ATOM     10  C   UNL     1      51.283   3.475  17.879  0.00  0.00    +0.000 A 
ATOM     11  C   UNL     1      52.572   3.631  18.384  0.00  0.00    +0.000 A 
ATOM     12  C   UNL     1      53.445   2.547  18.390  0.00  0.00    +0.000 A 
ATOM     13  C   UNL     1      53.021   1.314  17.896  0.00  0.00    +0.000 A 
ATOM     14  C   UNL     1      51.717   1.231  17.431  0.00  0.00    +0.000 A 
ATOM     15  N   UNL     1      50.849   2.274  17.416  0.00  0.00    +0.000 NA
BRANCH  13  16
ATOM     16  C   UNL     1      53.915   0.115  17.854  0.00  0.00    +0.000 C 
ATOM     17  F   UNL     1      55.164   0.356  18.344  0.00  0.00    +0.000 F 
ATOM     18  F   UNL     1      53.429  -0.931  18.577  0.00  0.00    +0.000 F 
ATOM     19  F   UNL     1      54.099  -0.355  16.590  0.00  0.00    +0.000 F 
ENDBRANCH  13  16
ENDBRANCH   8  10
ENDBRANCH   1   4
BRANCH   1  20
ATOM     20  C   UNL     1      48.434   6.548  14.236  0.00  0.00    +0.000 C 
BRANCH  20  21
ATOM     21  O   UNL     1      47.786   5.314  14.591  0.00  0.00    +0.000 OA
BRANCH  21  25
ATOM     22  C   UNL     1      44.876   4.456  11.798  0.00  0.00    +0.000 A 
ATOM     23  C   UNL     1      45.260   5.784  12.010  0.00  0.00    +0.000 A 
ATOM     24  C   UNL     1      46.236   6.070  12.968  0.00  0.00    +0.000 A 
ATOM     25  C   UNL     1      46.794   5.014  13.673  0.00  0.00    +0.000 A 
ATOM     26  N   UNL     1      46.424   3.725  13.499  0.00  0.00    +0.000 NA
ATOM     27  C   UNL     1      45.471   3.473  12.575  0.00  0.00    +0.000 A 
BRANCH  22  29
ATOM     28  N   UNL     1      43.911   4.680   9.584  0.00  0.00    +0.000 N 
ATOM     29  C   UNL     1      43.883   4.039  10.790  0.00  0.00    +0.000 C 
ATOM     30  O   UNL     1      43.097   3.126  11.007  0.00  0.00    +0.000 OA
ATOM     31  H   UNL     1      43.315   4.293   8.863  0.00  0.00    +0.000 HD
ATOM     32  H   UNL     1      44.699   5.237   9.286  0.00  0.00    +0.000 HD
ENDBRANCH  22  29
ENDBRANCH  21  25
ENDBRANCH  20  21
ENDBRANCH   1  20
TORSDOF 7
ENDMDL
MODEL 8
REMARK VINA RESULT:    -6.537      4.429      8.214
REMARK INTER + INTRA:         -10.372
REMARK INTER:                  -9.033
REMARK INTRA:                  -1.339
REMARK UNBOUND:                -1.160
REMARK  Name = 
REMARK  7 active torsions:
REMARK  status: ('A' for Active; 'I' for Inactive)
REMARK    1  A    between atoms: C_2  and  C_4
REMARK    2  A    between atoms: C_7  and  O_8
REMARK    3  A    between atoms: O_8  and  C_9
REMARK    4  A    between atoms: C_9  and  C_10
REMARK    5  A    between atoms: C_10  and  C_13
REMARK    6  A    between atoms: C_17  and  C_18
REMARK    7  A    between atoms: C_21  and  C_22
REMARK                            x       y       z     vdW  Elec       q    Type
REMARK                         _______ _______ _______ _____ _____    ______ ____
ROOT
ATOM      1  C   UNL     1      50.574   8.958  14.013  0.00  0.00    +0.000 C 
ATOM      2  F   UNL     1      51.248  10.148  13.983  0.00  0.00    +0.000 F 
ATOM      3  F   UNL     1      51.350   8.089  13.295  0.00  0.00    +0.000 F 
ENDROOT
BRANCH   1   4
ATOM      4  C   UNL     1      49.193   9.094  13.373  0.00  0.00    +0.000 A 
ATOM      5  C   UNL     1      48.782  10.359  12.930  0.00  0.00    +0.000 A 
ATOM      6  C   UNL     1      47.552  10.525  12.296  0.00  0.00    +0.000 A 
ATOM      7  C   UNL     1      46.725   9.422  12.069  0.00  0.00    +0.000 A 
ATOM      8  C   UNL     1      47.103   8.132  12.473  0.00  0.00    +0.000 A 
ATOM      9  C   UNL     1      48.326   8.001  13.157  0.00  0.00    +0.000 A 
BRANCH   8  10
ATOM     10  C   UNL     1      46.292   6.940  12.150  0.00  0.00    +0.000 A 
ATOM     11  C   UNL     1      46.209   6.433  10.854  0.00  0.00    +0.000 A 
ATOM     12  C   UNL     1      45.455   5.288  10.611  0.00  0.00    +0.000 A 
ATOM     13  C   UNL     1      44.794   4.657  11.664  0.00  0.00    +0.000 A 
ATOM     14  C   UNL     1      44.943   5.209  12.928  0.00  0.00    +0.000 A 
ATOM     15  N   UNL     1      45.673   6.323  13.189  0.00  0.00    +0.000 NA
BRANCH  13  16
ATOM     16  C   UNL     1      43.951   3.437  11.467  0.00  0.00    +0.000 C 
ATOM     17  F   UNL     1      44.029   2.554  12.502  0.00  0.00    +0.000 F 
ATOM     18  F   UNL     1      42.628   3.728  11.326  0.00  0.00    +0.000 F 
ATOM     19  F   UNL     1      44.301   2.735  10.355  0.00  0.00    +0.000 F 
ENDBRANCH  13  16
ENDBRANCH   8  10
ENDBRANCH   1   4
BRANCH   1  20
ATOM     20  C   UNL     1      50.523   8.467  15.464  0.00  0.00    +0.000 C 
BRANCH  20  21
ATOM     21  O   UNL     1      51.207   7.219  15.675  0.00  0.00    +0.000 OA
BRANCH  21  25
ATOM     22  C   UNL     1      48.625   4.452  17.312  0.00  0.00    +0.000 A 
ATOM     23  C   UNL     1      48.114   5.507  16.549  0.00  0.00    +0.000 A 
ATOM     24  C   UNL     1      48.992   6.449  16.009  0.00  0.00    +0.000 A 
ATOM     25  C   UNL     1      50.349   6.297  16.250  0.00  0.00    +0.000 A 
ATOM     26  N   UNL     1      50.864   5.296  17.001  0.00  0.00    +0.000 NA
ATOM     27  C   UNL     1      49.994   4.403  17.522  0.00  0.00    +0.000 A 
BRANCH  22  29
ATOM     28  N   UNL     1      48.198   2.862  19.094  0.00  0.00    +0.000 N 
ATOM     29  C   UNL     1      47.792   3.384  17.899  0.00  0.00    +0.000 C 
ATOM     30  O   UNL     1      46.757   3.014  17.361  0.00  0.00    +0.000 OA
ATOM     31  H   UNL     1      47.547   2.230  19.545  0.00  0.00    +0.000 HD
ATOM     32  H   UNL     1      48.881   3.319  19.680  0.00  0.00    +0.000 HD
ENDBRANCH  22  29
ENDBRANCH  21  25
ENDBRANCH  20  21
ENDBRANCH   1  20
TORSDOF 7
ENDMDL
MODEL 9
REMARK VINA RESULT:    -6.520      3.622      8.065
REMARK INTER + INTRA:         -10.348
REMARK INTER:                  -8.346
REMARK INTRA:                  -2.002
REMARK UNBOUND:                -1.160
REMARK  Name = 
REMARK  7 active torsions:
REMARK  status: ('A' for Active; 'I' for Inactive)
REMARK    1  A    between atoms: C_2  and  C_4
REMARK    2  A    between atoms: C_7  and  O_8
REMARK    3  A    between atoms: O_8  and  C_9
REMARK    4  A    between atoms: C_9  and  C_10
REMARK    5  A    between atoms: C_10  and  C_13
REMARK    6  A    between atoms: C_17  and  C_18
REMARK    7  A    between atoms: C_21  and  C_22
REMARK                            x       y       z     vdW  Elec       q    Type
REMARK                         _______ _______ _______ _____ _____    ______ ____
ROOT
ATOM      1  C   UNL     1      48.488   6.111  18.891  0.00  0.00    +0.000 C 
ATOM      2  F   UNL     1      49.788   6.198  19.308  0.00  0.00    +0.000 F 
ATOM      3  F   UNL     1      47.768   5.822  20.019  0.00  0.00    +0.000 F 
ENDROOT
BRANCH   1   4
ATOM      4  C   UNL     1      48.318   5.003  17.852  0.00  0.00    +0.000 A 
ATOM      5  C   UNL     1      48.625   3.685  18.223  0.00  0.00    +0.000 A 
ATOM      6  C   UNL     1      48.441   2.634  17.326  0.00  0.00    +0.000 A 
ATOM      7  C   UNL     1      47.919   2.880  16.054  0.00  0.00    +0.000 A 
ATOM      8  C   UNL     1      47.576   4.178  15.646  0.00  0.00    +0.000 A 
ATOM      9  C   UNL     1      47.821   5.227  16.550  0.00  0.00    +0.000 A 
BRANCH   8  10
ATOM     10  C   UNL     1      46.928   4.444  14.345  0.00  0.00    +0.000 A 
ATOM     11  C   UNL     1      46.956   5.704  13.750  0.00  0.00    +0.000 A 
ATOM     12  C   UNL     1      46.355   5.892  12.508  0.00  0.00    +0.000 A 
ATOM     13  C   UNL     1      45.736   4.819  11.869  0.00  0.00    +0.000 A 
ATOM     14  C   UNL     1      45.769   3.591  12.514  0.00  0.00    +0.000 A 
ATOM     15  N   UNL     1      46.349   3.385  13.723  0.00  0.00    +0.000 NA
BRANCH  13  16
ATOM     16  C   UNL     1      45.053   4.958  10.544  0.00  0.00    +0.000 C 
ATOM     17  F   UNL     1      45.710   5.786   9.684  0.00  0.00    +0.000 F 
ATOM     18  F   UNL     1      44.925   3.771   9.890  0.00  0.00    +0.000 F 
ATOM     19  F   UNL     1      43.795   5.464  10.656  0.00  0.00    +0.000 F 
ENDBRANCH  13  16
ENDBRANCH   8  10
ENDBRANCH   1   4
BRANCH   1  20
ATOM     20  C   UNL     1      48.049   7.488  18.383  0.00  0.00    +0.000 C 
BRANCH  20  21
ATOM     21  O   UNL     1      49.143   8.333  17.987  0.00  0.00    +0.000 OA
BRANCH  21  25
ATOM     22  C   UNL     1      49.549   8.228  13.885  0.00  0.00    +0.000 A 
ATOM     23  C   UNL     1      50.528   7.639  14.691  0.00  0.00    +0.000 A 
ATOM     24  C   UNL     1      50.392   7.691  16.080  0.00  0.00    +0.000 A 
ATOM     25  C   UNL     1      49.278   8.325  16.609  0.00  0.00    +0.000 A 
ATOM     26  N   UNL     1      48.329   8.918  15.849  0.00  0.00    +0.000 NA
ATOM     27  C   UNL     1      48.487   8.865  14.509  0.00  0.00    +0.000 A 
BRANCH  22  29
ATOM     28  N   UNL     1      50.453   7.339  11.817  0.00  0.00    +0.000 N 
ATOM     29  C   UNL     1      49.575   8.201  12.409  0.00  0.00    +0.000 C 
ATOM     30  O   UNL     1      48.810   8.888  11.745  0.00  0.00    +0.000 OA
ATOM     31  H   UNL     1      50.364   7.237  10.813  0.00  0.00    +0.000 HD
ATOM     32  H   UNL     1      50.896   6.585  12.322  0.00  0.00    +0.000 HD
ENDBRANCH  22  29
ENDBRANCH  21  25
ENDBRANCH  20  21
ENDBRANCH   1  20
TORSDOF 7
ENDMDL
