MODEL 1
REMARK VINA RESULT:    -9.048      0.000      0.000
REMARK INTER + INTRA:         -12.000
REMARK INTER:                 -11.164
REMARK INTRA:                  -0.835
REMARK UNBOUND:                -0.835
REMARK  Name = 
REMARK  4 active torsions:
REMARK  status: ('A' for Active; 'I' for Inactive)
REMARK    1  A    between atoms: C_2  and  C_4
REMARK    2  A    between atoms: N_8  and  C_9
REMARK    3  A    between atoms: C_9  and  C_10
REMARK    4  A    between atoms: C_14  and  C_15
REMARK                            x       y       z     vdW  Elec       q    Type
REMARK                         _______ _______ _______ _____ _____    ______ ____
ROOT
ATOM      1  C   UNL     1      46.384   2.270   7.699  0.00  0.00    +0.000 A 
ATOM      2  C   UNL     1      45.624   1.800   8.766  0.00  0.00    +0.000 A 
ATOM      3  C   UNL     1      44.786   2.683   9.446  0.00  0.00    +0.000 A 
ATOM      4  C   UNL     1      44.725   4.018   9.060  0.00  0.00    +0.000 A 
ATOM      5  N   UNL     1      43.864   4.936   9.609  0.00  0.00    +0.000 N 
ATOM      6  N   UNL     1      45.462   4.485   8.033  0.00  0.00    +0.000 NA
ATOM      7  C   UNL     1      46.281   3.616   7.384  0.00  0.00    +0.000 A 
ATOM      8  H   UNL     1      44.043   5.845   9.192  0.00  0.00    +0.000 HD
ENDROOT
BRANCH   1  10
ATOM      9  N   UNL     1      48.413   1.999   6.384  0.00  0.00    +0.000 N 
ATOM     10  C   UNL     1      47.291   1.414   6.905  0.00  0.00    +0.000 C 
ATOM     11  O   UNL     1      47.073   0.222   6.752  0.00  0.00    +0.000 OA
ATOM     12  H   UNL     1      49.072   1.378   5.933  0.00  0.00    +0.000 HD
ATOM     13  H   UNL     1      48.759   2.895   6.698  0.00  0.00    +0.000 HD
ENDBRANCH   1  10
BRANCH   5  14
ATOM     14  C   UNL     1      43.480   4.944  11.004  0.00  0.00    +0.000 C 
BRANCH  14  15
ATOM     15  C   UNL     1      44.609   5.197  11.982  0.00  0.00    +0.000 A 
ATOM     16  C   UNL     1      45.012   4.267  12.947  0.00  0.00    +0.000 A 
ATOM     17  C   UNL     1      46.133   4.511  13.740  0.00  0.00    +0.000 A 
ATOM     18  C   UNL     1      46.885   5.674  13.561  0.00  0.00    +0.000 A 
ATOM     19  C   UNL     1      46.546   6.616  12.578  0.00  0.00    +0.000 A 
ATOM     20  C   UNL     1      45.387   6.364  11.816  0.00  0.00    +0.000 A 
BRANCH  19  21
ATOM     21  C   UNL     1      47.416   7.776  12.287  0.00  0.00    +0.000 A 
ATOM     22  C   UNL     1      48.755   7.612  11.900  0.00  0.00    +0.000 A 
ATOM     23  C   UNL     1      49.540   8.712  11.554  0.00  0.00    +0.000 A 
ATOM     24  C   UNL     1      48.968   9.968  11.603  0.00  0.00    +0.000 A 
ATOM     25  N   UNL     1      47.694  10.189  11.984  0.00  0.00    +0.000 NA
ATOM     26  C   UNL     1      46.959   9.096  12.317  0.00  0.00    +0.000 A 
ENDBRANCH  19  21
ENDBRANCH  14  15
ENDBRANCH   5  14
TORSDOF 4
ENDMDL
MODEL 2
REMARK VINA RESULT:    -8.363      2.131      3.482
REMARK INTER + INTRA:         -11.154
REMARK INTER:                 -10.343
REMARK INTRA:                  -0.811
REMARK UNBOUND:                -0.835
REMARK  Name = 
REMARK  4 active torsions:
REMARK  status: ('A' for Active; 'I' for Inactive)
REMARK    1  A    between atoms: C_2  and  C_4
REMARK    2  A    between atoms: N_8  and  C_9
REMARK    3  A    between atoms: C_9  and  C_10
REMARK    4  A    between atoms: C_14  and  C_15
REMARK                            x       y       z     vdW  Elec       q    Type
REMARK                         _______ _______ _______ _____ _____    ______ ____
ROOT
ATOM      1  C   UNL     1      46.209   2.008   7.962  0.00  0.00    +0.000 A 
ATOM      2  C   UNL     1      45.540   1.766   9.158  0.00  0.00    +0.000 A 
ATOM      3  C   UNL     1      44.755   2.775   9.716  0.00  0.00    +0.000 A 
ATOM      4  C   UNL     1      44.657   4.009   9.080  0.00  0.00    +0.000 A 
ATOM      5  N   UNL     1      43.839   5.026   9.505  0.00  0.00    +0.000 N 
ATOM      6  N   UNL     1      45.307   4.256   7.927  0.00  0.00    +0.000 NA
ATOM      7  C   UNL     1      46.075   3.267   7.398  0.00  0.00    +0.000 A 
ATOM      8  H   UNL     1      43.979   5.833   8.905  0.00  0.00    +0.000 HD
ENDROOT
BRANCH   1  10
ATOM      9  N   UNL     1      46.811  -0.315   7.563  0.00  0.00    +0.000 N 
ATOM     10  C   UNL     1      47.053   1.002   7.282  0.00  0.00    +0.000 C 
ATOM     11  O   UNL     1      47.906   1.327   6.471  0.00  0.00    +0.000 OA
ATOM     12  H   UNL     1      47.327  -0.991   7.014  0.00  0.00    +0.000 HD
ATOM     13  H   UNL     1      45.965  -0.631   8.015  0.00  0.00    +0.000 HD
ENDBRANCH   1  10
BRANCH   5  14
ATOM     14  C   UNL     1      43.569   5.313  10.898  0.00  0.00    +0.000 C 
BRANCH  14  15
ATOM     15  C   UNL     1      44.689   6.013  11.641  0.00  0.00    +0.000 A 
ATOM     16  C   UNL     1      44.887   7.397  11.603  0.00  0.00    +0.000 A 
ATOM     17  C   UNL     1      45.863   7.994  12.400  0.00  0.00    +0.000 A 
ATOM     18  C   UNL     1      46.634   7.221  13.270  0.00  0.00    +0.000 A 
ATOM     19  C   UNL     1      46.442   5.835  13.376  0.00  0.00    +0.000 A 
ATOM     20  C   UNL     1      45.477   5.251  12.531  0.00  0.00    +0.000 A 
BRANCH  19  21
ATOM     21  C   UNL     1      47.154   5.032  14.395  0.00  0.00    +0.000 A 
ATOM     22  C   UNL     1      47.788   5.634  15.493  0.00  0.00    +0.000 A 
ATOM     23  C   UNL     1      48.388   4.859  16.486  0.00  0.00    +0.000 A 
ATOM     24  C   UNL     1      48.344   3.485  16.362  0.00  0.00    +0.000 A 
ATOM     25  N   UNL     1      47.766   2.851  15.321  0.00  0.00    +0.000 NA
ATOM     26  C   UNL     1      47.195   3.636  14.371  0.00  0.00    +0.000 A 
ENDBRANCH  19  21
ENDBRANCH  14  15
ENDBRANCH   5  14
TORSDOF 4
ENDMDL
MODEL 3
REMARK VINA RESULT:    -7.638      1.782      2.477
REMARK INTER + INTRA:         -10.259
REMARK INTER:                 -10.209
REMARK INTRA:                  -0.050
REMARK UNBOUND:                -0.835
REMARK  Name = 
REMARK  4 active torsions:
REMARK  status: ('A' for Active; 'I' for Inactive)
REMARK    1  A    between atoms: C_2  and  C_4
REMARK    2  A    between atoms: N_8  and  C_9
REMARK    3  A    between atoms: C_9  and  C_10
REMARK    4  A    between atoms: C_14  and  C_15
REMARK                            x       y       z     vdW  Elec       q    Type
REMARK                         _______ _______ _______ _____ _____    ______ ____
ROOT
ATOM      1  C   UNL     1      46.725   2.510   7.121  0.00  0.00    +0.000 A 
ATOM      2  C   UNL     1      46.257   3.730   7.601  0.00  0.00    +0.000 A 
ATOM      3  C   UNL     1      45.506   3.757   8.775  0.00  0.00    +0.000 A 
ATOM      4  C   UNL     1      45.225   2.571   9.447  0.00  0.00    +0.000 A 
ATOM      5  N   UNL     1      44.572   2.509  10.653  0.00  0.00    +0.000 N 
ATOM      6  N   UNL     1      45.665   1.383   8.986  0.00  0.00    +0.000 NA
ATOM      7  C   UNL     1      46.391   1.371   7.836  0.00  0.00    +0.000 A 
ATOM      8  H   UNL     1      44.450   1.534  10.911  0.00  0.00    +0.000 HD
ENDROOT
BRANCH   1  10
ATOM      9  N   UNL     1      47.363   3.313   4.915  0.00  0.00    +0.000 N 
ATOM     10  C   UNL     1      47.541   2.375   5.896  0.00  0.00    +0.000 C 
ATOM     11  O   UNL     1      48.372   1.488   5.776  0.00  0.00    +0.000 OA
ATOM     12  H   UNL     1      48.000   3.266   4.130  0.00  0.00    +0.000 HD
ATOM     13  H   UNL     1      46.890   4.190   5.077  0.00  0.00    +0.000 HD
ENDBRANCH   1  10
BRANCH   5  14
ATOM     14  C   UNL     1      43.502   3.405  11.036  0.00  0.00    +0.000 C 
BRANCH  14  15
ATOM     15  C   UNL     1      43.909   4.854  11.216  0.00  0.00    +0.000 A 
ATOM     16  C   UNL     1      43.006   5.920  11.134  0.00  0.00    +0.000 A 
ATOM     17  C   UNL     1      43.419   7.220  11.424  0.00  0.00    +0.000 A 
ATOM     18  C   UNL     1      44.731   7.470  11.830  0.00  0.00    +0.000 A 
ATOM     19  C   UNL     1      45.661   6.428  11.970  0.00  0.00    +0.000 A 
ATOM     20  C   UNL     1      45.229   5.130  11.633  0.00  0.00    +0.000 A 
BRANCH  19  21
ATOM     21  C   UNL     1      47.007   6.666  12.534  0.00  0.00    +0.000 A 
ATOM     22  C   UNL     1      47.923   7.530  11.913  0.00  0.00    +0.000 A 
ATOM     23  C   UNL     1      49.159   7.804  12.498  0.00  0.00    +0.000 A 
ATOM     24  C   UNL     1      49.461   7.203  13.705  0.00  0.00    +0.000 A 
ATOM     25  N   UNL     1      48.631   6.352  14.338  0.00  0.00    +0.000 NA
ATOM     26  C   UNL     1      47.437   6.105  13.739  0.00  0.00    +0.000 A 
ENDBRANCH  19  21
ENDBRANCH  14  15
ENDBRANCH   5  14
TORSDOF 4
ENDMDL
MODEL 4
REMARK VINA RESULT:    -7.325      3.273      7.265
REMARK INTER + INTRA:          -9.874
REMARK INTER:                  -9.465
REMARK INTRA:                  -0.409
REMARK UNBOUND:                -0.835
REMARK  Name = 
REMARK  4 active torsions:
REMARK  status: ('A' for Active; 'I' for Inactive)
REMARK    1  A    between atoms: C_2  and  C_4
REMARK    2  A    between atoms: N_8  and  C_9
REMARK    3  A    between atoms: C_9  and  C_10
REMARK    4  A    between atoms: C_14  and  C_15
REMARK                            x       y       z     vdW  Elec       q    Type
REMARK                         _______ _______ _______ _____ _____    ______ ____
ROOT
ATOM      1  C   UNL     1      47.908   5.298  15.492  0.00  0.00    +0.000 A 
ATOM      2  C   UNL     1      46.968   4.537  14.804  0.00  0.00    +0.000 A 
ATOM      3  C   UNL     1      46.455   5.016  13.598  0.00  0.00    +0.000 A 
ATOM      4  C   UNL     1      46.879   6.246  13.104  0.00  0.00    +0.000 A 
ATOM      5  N   UNL     1      46.499   6.754  11.887  0.00  0.00    +0.000 N 
ATOM      6  N   UNL     1      47.782   6.995  13.767  0.00  0.00    +0.000 NA
ATOM      7  C   UNL     1      48.268   6.519  14.945  0.00  0.00    +0.000 A 
ATOM      8  H   UNL     1      46.904   7.679  11.776  0.00  0.00    +0.000 HD
ENDROOT
BRANCH   1  10
ATOM      9  N   UNL     1      48.120   5.521  17.906  0.00  0.00    +0.000 N 
ATOM     10  C   UNL     1      48.522   4.874  16.769  0.00  0.00    +0.000 C 
ATOM     11  O   UNL     1      49.327   3.957  16.816  0.00  0.00    +0.000 OA
ATOM     12  H   UNL     1      48.472   5.150  18.779  0.00  0.00    +0.000 HD
ATOM     13  H   UNL     1      47.287   6.090  17.946  0.00  0.00    +0.000 HD
ENDBRANCH   1  10
BRANCH   5  14
ATOM     14  C   UNL     1      45.186   6.564  11.309  0.00  0.00    +0.000 C 
BRANCH  14  15
ATOM     15  C   UNL     1      44.855   5.137  10.917  0.00  0.00    +0.000 A 
ATOM     16  C   UNL     1      43.776   4.426  11.452  0.00  0.00    +0.000 A 
ATOM     17  C   UNL     1      43.454   3.159  10.966  0.00  0.00    +0.000 A 
ATOM     18  C   UNL     1      44.186   2.597   9.919  0.00  0.00    +0.000 A 
ATOM     19  C   UNL     1      45.251   3.290   9.320  0.00  0.00    +0.000 A 
ATOM     20  C   UNL     1      45.579   4.552   9.856  0.00  0.00    +0.000 A 
BRANCH  19  21
ATOM     21  C   UNL     1      45.938   2.764   8.121  0.00  0.00    +0.000 A 
ATOM     22  C   UNL     1      46.183   3.572   7.000  0.00  0.00    +0.000 A 
ATOM     23  C   UNL     1      46.901   3.084   5.909  0.00  0.00    +0.000 A 
ATOM     24  C   UNL     1      47.366   1.784   5.958  0.00  0.00    +0.000 A 
ATOM     25  N   UNL     1      47.147   0.956   6.998  0.00  0.00    +0.000 NA
ATOM     26  C   UNL     1      46.441   1.463   8.042  0.00  0.00    +0.000 A 
ENDBRANCH  19  21
ENDBRANCH  14  15
ENDBRANCH   5  14
TORSDOF 4
ENDMDL
MODEL 5
REMARK VINA RESULT:    -7.306      2.550      3.179
REMARK INTER + INTRA:          -9.850
REMARK INTER:                  -9.181
REMARK INTRA:                  -0.669
REMARK UNBOUND:                -0.835
REMARK  Name = 
REMARK  4 active torsions:
REMARK  status: ('A' for Active; 'I' for Inactive)
REMARK    1  A    between atoms: C_2  and  C_4
REMARK    2  A    between atoms: N_8  and  C_9
REMARK    3  A    between atoms: C_9  and  C_10
REMARK    4  A    between atoms: C_14  and  C_15
REMARK                            x       y       z     vdW  Elec       q    Type
REMARK                         _______ _______ _______ _____ _____    ______ ____
ROOT
ATOM      1  C   UNL     1      46.594   2.663   7.338  0.00  0.00    +0.000 A 
ATOM      2  C   UNL     1      46.344   3.948   7.809  0.00  0.00    +0.000 A 
ATOM      3  C   UNL     1      45.546   4.116   8.940  0.00  0.00    +0.000 A 
ATOM      4  C   UNL     1      45.003   3.004   9.577  0.00  0.00    +0.000 A 
ATOM      5  N   UNL     1      44.284   3.065  10.744  0.00  0.00    +0.000 N 
ATOM      6  N   UNL     1      45.232   1.756   9.124  0.00  0.00    +0.000 NA
ATOM      7  C   UNL     1      46.006   1.607   8.016  0.00  0.00    +0.000 A 
ATOM      8  H   UNL     1      43.960   2.132  10.980  0.00  0.00    +0.000 HD
ENDROOT
BRANCH   1  10
ATOM      9  N   UNL     1      47.257   3.161   5.050  0.00  0.00    +0.000 N 
ATOM     10  C   UNL     1      47.438   2.377   6.157  0.00  0.00    +0.000 C 
ATOM     11  O   UNL     1      48.292   1.505   6.179  0.00  0.00    +0.000 OA
ATOM     12  H   UNL     1      47.910   3.020   4.291  0.00  0.00    +0.000 HD
ATOM     13  H   UNL     1      46.759   4.040   5.078  0.00  0.00    +0.000 HD
ENDBRANCH   1  10
BRANCH   5  14
ATOM     14  C   UNL     1      43.387   4.150  11.080  0.00  0.00    +0.000 C 
BRANCH  14  15
ATOM     15  C   UNL     1      44.051   5.372  11.683  0.00  0.00    +0.000 A 
ATOM     16  C   UNL     1      45.160   5.302  12.533  0.00  0.00    +0.000 A 
ATOM     17  C   UNL     1      45.797   6.466  12.961  0.00  0.00    +0.000 A 
ATOM     18  C   UNL     1      45.355   7.715  12.523  0.00  0.00    +0.000 A 
ATOM     19  C   UNL     1      44.273   7.835  11.635  0.00  0.00    +0.000 A 
ATOM     20  C   UNL     1      43.623   6.646  11.249  0.00  0.00    +0.000 A 
BRANCH  19  21
ATOM     21  C   UNL     1      43.890   9.141  11.057  0.00  0.00    +0.000 A 
ATOM     22  C   UNL     1      44.830  10.166  10.867  0.00  0.00    +0.000 A 
ATOM     23  C   UNL     1      44.470  11.362  10.249  0.00  0.00    +0.000 A 
ATOM     24  C   UNL     1      43.163  11.516   9.828  0.00  0.00    +0.000 A 
ATOM     25  N   UNL     1      42.213  10.575   9.998  0.00  0.00    +0.000 NA
ATOM     26  C   UNL     1      42.598   9.424  10.607  0.00  0.00    +0.000 A 
ENDBRANCH  19  21
ENDBRANCH  14  15
ENDBRANCH   5  14
TORSDOF 4
ENDMDL
MODEL 6
REMARK VINA RESULT:    -7.011      4.807      7.855
REMARK INTER + INTRA:          -9.486
REMARK INTER:                  -9.005
REMARK INTRA:                  -0.481
REMARK UNBOUND:                -0.835
REMARK  Name = 
REMARK  4 active torsions:
REMARK  status: ('A' for Active; 'I' for Inactive)
REMARK    1  A    between atoms: C_2  and  C_4
REMARK    2  A    between atoms: N_8  and  C_9
REMARK    3  A    between atoms: C_9  and  C_10
REMARK    4  A    between atoms: C_14  and  C_15
REMARK                            x       y       z     vdW  Elec       q    Type
REMARK                         _______ _______ _______ _____ _____    ______ ____
ROOT
ATOM      1  C   UNL     1      49.682   3.726  17.284  0.00  0.00    +0.000 A 
ATOM      2  C   UNL     1      49.114   4.986  17.116  0.00  0.00    +0.000 A 
ATOM      3  C   UNL     1      48.016   5.130  16.268  0.00  0.00    +0.000 A 
ATOM      4  C   UNL     1      47.508   4.022  15.597  0.00  0.00    +0.000 A 
ATOM      5  N   UNL     1      46.379   4.051  14.816  0.00  0.00    +0.000 N 
ATOM      6  N   UNL     1      48.055   2.800  15.746  0.00  0.00    +0.000 NA
ATOM      7  C   UNL     1      49.130   2.675  16.570  0.00  0.00    +0.000 A 
ATOM      8  H   UNL     1      46.242   3.133  14.402  0.00  0.00    +0.000 HD
ENDROOT
BRANCH   1  10
ATOM      9  N   UNL     1      51.389   2.213  18.131  0.00  0.00    +0.000 N 
ATOM     10  C   UNL     1      50.837   3.465  18.170  0.00  0.00    +0.000 C 
ATOM     11  O   UNL     1      51.308   4.340  18.880  0.00  0.00    +0.000 OA
ATOM     12  H   UNL     1      52.239   2.083  18.665  0.00  0.00    +0.000 HD
ATOM     13  H   UNL     1      51.202   1.556  17.387  0.00  0.00    +0.000 HD
ENDBRANCH   1  10
BRANCH   5  14
ATOM     14  C   UNL     1      45.996   5.179  13.995  0.00  0.00    +0.000 C 
BRANCH  14  15
ATOM     15  C   UNL     1      45.005   4.867  12.892  0.00  0.00    +0.000 A 
ATOM     16  C   UNL     1      43.688   5.339  12.889  0.00  0.00    +0.000 A 
ATOM     17  C   UNL     1      42.859   5.114  11.790  0.00  0.00    +0.000 A 
ATOM     18  C   UNL     1      43.344   4.443  10.666  0.00  0.00    +0.000 A 
ATOM     19  C   UNL     1      44.671   3.989  10.604  0.00  0.00    +0.000 A 
ATOM     20  C   UNL     1      45.475   4.194  11.744  0.00  0.00    +0.000 A 
BRANCH  19  21
ATOM     21  C   UNL     1      45.231   3.404   9.367  0.00  0.00    +0.000 A 
ATOM     22  C   UNL     1      45.706   4.213   8.322  0.00  0.00    +0.000 A 
ATOM     23  C   UNL     1      46.302   3.648   7.195  0.00  0.00    +0.000 A 
ATOM     24  C   UNL     1      46.414   2.272   7.131  0.00  0.00    +0.000 A 
ATOM     25  N   UNL     1      45.960   1.445   8.094  0.00  0.00    +0.000 NA
ATOM     26  C   UNL     1      45.382   2.029   9.175  0.00  0.00    +0.000 A 
ENDBRANCH  19  21
ENDBRANCH  14  15
ENDBRANCH   5  14
TORSDOF 4
ENDMDL
MODEL 7
REMARK VINA RESULT:    -6.926      1.800      2.507
REMARK INTER + INTRA:          -9.381
REMARK INTER:                  -8.774
REMARK INTRA:                  -0.607
REMARK UNBOUND:                -0.835
REMARK  Name = 
REMARK  4 active torsions:
REMARK  status: ('A' for Active; 'I' for Inactive)
REMARK    1  A    between atoms: C_2  and  C_4
REMARK    2  A    between atoms: N_8  and  C_9
REMARK    3  A    between atoms: C_9  and  C_10
REMARK    4  A    between atoms: C_14  and  C_15
REMARK                            x       y       z     vdW  Elec       q    Type
REMARK                         _______ _______ _______ _____ _____    ______ ____
ROOT
ATOM      1  C   UNL     1      46.240   2.031   7.998  0.00  0.00    +0.000 A 
ATOM      2  C   UNL     1      45.644   1.857   9.244  0.00  0.00    +0.000 A 
ATOM      3  C   UNL     1      44.926   2.910   9.808  0.00  0.00    +0.000 A 
ATOM      4  C   UNL     1      44.820   4.120   9.129  0.00  0.00    +0.000 A 
ATOM      5  N   UNL     1      44.061   5.178   9.563  0.00  0.00    +0.000 N 
ATOM      6  N   UNL     1      45.401   4.302   7.927  0.00  0.00    +0.000 NA
ATOM      7  C   UNL     1      46.104   3.270   7.392  0.00  0.00    +0.000 A 
ATOM      8  H   UNL     1      44.184   5.956   8.922  0.00  0.00    +0.000 HD
ENDROOT
BRANCH   1  10
ATOM      9  N   UNL     1      46.736  -0.324   7.644  0.00  0.00    +0.000 N 
ATOM     10  C   UNL     1      47.010   0.974   7.308  0.00  0.00    +0.000 C 
ATOM     11  O   UNL     1      47.829   1.241   6.443  0.00  0.00    +0.000 OA
ATOM     12  H   UNL     1      47.197  -1.036   7.091  0.00  0.00    +0.000 HD
ATOM     13  H   UNL     1      45.905  -0.595   8.150  0.00  0.00    +0.000 HD
ENDBRANCH   1  10
BRANCH   5  14
ATOM     14  C   UNL     1      43.890   5.528  10.957  0.00  0.00    +0.000 C 
BRANCH  14  15
ATOM     15  C   UNL     1      44.529   6.837  11.376  0.00  0.00    +0.000 A 
ATOM     16  C   UNL     1      43.956   8.087  11.121  0.00  0.00    +0.000 A 
ATOM     17  C   UNL     1      44.535   9.248  11.634  0.00  0.00    +0.000 A 
ATOM     18  C   UNL     1      45.676   9.174  12.434  0.00  0.00    +0.000 A 
ATOM     19  C   UNL     1      46.263   7.939  12.753  0.00  0.00    +0.000 A 
ATOM     20  C   UNL     1      45.681   6.785  12.191  0.00  0.00    +0.000 A 
BRANCH  19  21
ATOM     21  C   UNL     1      47.385   7.842  13.712  0.00  0.00    +0.000 A 
ATOM     22  C   UNL     1      47.976   6.609  14.030  0.00  0.00    +0.000 A 
ATOM     23  C   UNL     1      49.083   6.543  14.876  0.00  0.00    +0.000 A 
ATOM     24  C   UNL     1      49.584   7.721  15.395  0.00  0.00    +0.000 A 
ATOM     25  N   UNL     1      49.048   8.931  15.140  0.00  0.00    +0.000 NA
ATOM     26  C   UNL     1      47.969   8.959  14.316  0.00  0.00    +0.000 A 
ENDBRANCH  19  21
ENDBRANCH  14  15
ENDBRANCH   5  14
TORSDOF 4
ENDMDL
MODEL 8
REMARK VINA RESULT:    -6.717      2.917      6.967
REMARK INTER + INTRA:          -9.124
REMARK INTER:                  -8.318
REMARK INTRA:                  -0.805
REMARK UNBOUND:                -0.835
REMARK  Name = 
REMARK  4 active torsions:
REMARK  status: ('A' for Active; 'I' for Inactive)
REMARK    1  A    between atoms: C_2  and  C_4
REMARK    2  A    between atoms: N_8  and  C_9
REMARK    3  A    between atoms: C_9  and  C_10
REMARK    4  A    between atoms: C_14  and  C_15
REMARK                            x       y       z     vdW  Elec       q    Type
REMARK                         _______ _______ _______ _____ _____    ______ ____
ROOT
ATOM      1  C   UNL     1      47.916   9.282  11.947  0.00  0.00    +0.000 A 
ATOM      2  C   UNL     1      46.767   9.140  12.721  0.00  0.00    +0.000 A 
ATOM      3  C   UNL     1      46.470   7.895  13.276  0.00  0.00    +0.000 A 
ATOM      4  C   UNL     1      47.313   6.813  13.045  0.00  0.00    +0.000 A 
ATOM      5  N   UNL     1      47.151   5.578  13.623  0.00  0.00    +0.000 N 
ATOM      6  N   UNL     1      48.423   6.938  12.291  0.00  0.00    +0.000 NA
ATOM      7  C   UNL     1      48.697   8.154  11.749  0.00  0.00    +0.000 A 
ATOM      8  H   UNL     1      47.864   4.951  13.263  0.00  0.00    +0.000 HD
ENDROOT
BRANCH   1  10
ATOM      9  N   UNL     1      47.362  11.514  11.153  0.00  0.00    +0.000 N 
ATOM     10  C   UNL     1      48.327  10.559  11.327  0.00  0.00    +0.000 C 
ATOM     11  O   UNL     1      49.489  10.774  11.018  0.00  0.00    +0.000 OA
ATOM     12  H   UNL     1      47.680  12.416  10.824  0.00  0.00    +0.000 HD
ATOM     13  H   UNL     1      46.468  11.479  11.622  0.00  0.00    +0.000 HD
ENDBRANCH   1  10
BRANCH   5  14
ATOM     14  C   UNL     1      45.861   4.981  13.896  0.00  0.00    +0.000 C 
BRANCH  14  15
ATOM     15  C   UNL     1      44.960   4.813  12.689  0.00  0.00    +0.000 A 
ATOM     16  C   UNL     1      43.706   5.423  12.577  0.00  0.00    +0.000 A 
ATOM     17  C   UNL     1      42.974   5.325  11.394  0.00  0.00    +0.000 A 
ATOM     18  C   UNL     1      43.498   4.642  10.295  0.00  0.00    +0.000 A 
ATOM     19  C   UNL     1      44.771   4.050  10.344  0.00  0.00    +0.000 A 
ATOM     20  C   UNL     1      45.472   4.131  11.564  0.00  0.00    +0.000 A 
BRANCH  19  21
ATOM     21  C   UNL     1      45.390   3.449   9.143  0.00  0.00    +0.000 A 
ATOM     22  C   UNL     1      45.905   4.243   8.106  0.00  0.00    +0.000 A 
ATOM     23  C   UNL     1      46.556   3.664   7.017  0.00  0.00    +0.000 A 
ATOM     24  C   UNL     1      46.680   2.289   6.982  0.00  0.00    +0.000 A 
ATOM     25  N   UNL     1      46.190   1.475   7.939  0.00  0.00    +0.000 NA
ATOM     26  C   UNL     1      45.560   2.072   8.983  0.00  0.00    +0.000 A 
ENDBRANCH  19  21
ENDBRANCH  14  15
ENDBRANCH   5  14
TORSDOF 4
ENDMDL
MODEL 9
REMARK VINA RESULT:    -6.507      5.595      8.197
REMARK INTER + INTRA:          -8.864
REMARK INTER:                  -8.154
REMARK INTRA:                  -0.710
REMARK UNBOUND:                -0.835
REMARK  Name = 
REMARK  4 active torsions:
REMARK  status: ('A' for Active; 'I' for Inactive)
REMARK    1  A    between atoms: C_2  and  C_4
REMARK    2  A    between atoms: N_8  and  C_9
REMARK    3  A    between atoms: C_9  and  C_10
REMARK    4  A    between atoms: C_14  and  C_15
REMARK                            x       y       z     vdW  Elec       q    Type
REMARK                         _______ _______ _______ _____ _____    ______ ____
ROOT
ATOM      1  C   UNL     1      51.422   2.596  17.530  0.00  0.00    +0.000 A 
ATOM      2  C   UNL     1      51.888   3.904  17.619  0.00  0.00    +0.000 A 
ATOM      3  C   UNL     1      51.006   4.959  17.387  0.00  0.00    +0.000 A 
ATOM      4  C   UNL     1      49.679   4.694  17.061  0.00  0.00    +0.000 A 
ATOM      5  N   UNL     1      48.721   5.664  16.906  0.00  0.00    +0.000 N 
ATOM      6  N   UNL     1      49.220   3.431  16.964  0.00  0.00    +0.000 NA
ATOM      7  C   UNL     1      50.092   2.412  17.185  0.00  0.00    +0.000 A 
ATOM      8  H   UNL     1      47.849   5.224  16.627  0.00  0.00    +0.000 HD
ENDROOT
BRANCH   1  10
ATOM      9  N   UNL     1      51.643   0.250  18.139  0.00  0.00    +0.000 N 
ATOM     10  C   UNL     1      52.272   1.409  17.772  0.00  0.00    +0.000 C 
ATOM     11  O   UNL     1      53.481   1.447  17.612  0.00  0.00    +0.000 OA
ATOM     12  H   UNL     1      52.227  -0.574  18.200  0.00  0.00    +0.000 HD
ATOM     13  H   UNL     1      50.649   0.109  18.030  0.00  0.00    +0.000 HD
ENDBRANCH   1  10
BRANCH   5  14
ATOM     14  C   UNL     1      48.981   6.969  16.336  0.00  0.00    +0.000 C 
BRANCH  14  15
ATOM     15  C   UNL     1      48.696   7.093  14.852  0.00  0.00    +0.000 A 
ATOM     16  C   UNL     1      49.526   7.788  13.966  0.00  0.00    +0.000 A 
ATOM     17  C   UNL     1      49.271   7.768  12.595  0.00  0.00    +0.000 A 
ATOM     18  C   UNL     1      48.202   7.028  12.087  0.00  0.00    +0.000 A 
ATOM     19  C   UNL     1      47.367   6.280  12.931  0.00  0.00    +0.000 A 
ATOM     20  C   UNL     1      47.623   6.348  14.315  0.00  0.00    +0.000 A 
BRANCH  19  21
ATOM     21  C   UNL     1      46.323   5.384  12.388  0.00  0.00    +0.000 A 
ATOM     22  C   UNL     1      45.696   5.645  11.160  0.00  0.00    +0.000 A 
ATOM     23  C   UNL     1      44.770   4.750  10.624  0.00  0.00    +0.000 A 
ATOM     24  C   UNL     1      44.485   3.599  11.332  0.00  0.00    +0.000 A 
ATOM     25  N   UNL     1      45.042   3.303  12.523  0.00  0.00    +0.000 NA
ATOM     26  C   UNL     1      45.936   4.198  13.017  0.00  0.00    +0.000 A 
ENDBRANCH  19  21
ENDBRANCH  14  15
ENDBRANCH   5  14
TORSDOF 4
ENDMDL
