MODEL 1
REMARK VINA RESULT:    -8.525      0.000      0.000
REMARK INTER + INTRA:         -10.549
REMARK INTER:                 -10.020
REMARK INTRA:                  -0.529
REMARK UNBOUND:                -0.529
REMARK  Name = 
REMARK  3 active torsions:
REMARK  status: ('A' for Active; 'I' for Inactive)
REMARK    1  A    between atoms: C_2  and  C_4
REMARK    2  A    between atoms: N_8  and  C_9
REMARK    3  A    between atoms: C_9  and  C_10
REMARK                            x       y       z     vdW  Elec       q    Type
REMARK                         _______ _______ _______ _____ _____    ______ ____
ROOT
ATOM      1  C   UNL     1      46.537   2.741   7.490  0.00  0.00    +0.000 A 
ATOM      2  C   UNL     1      46.182   4.073   7.702  0.00  0.00    +0.000 A 
ATOM      3  C   UNL     1      45.339   4.391   8.770  0.00  0.00    +0.000 A 
ATOM      4  C   UNL     1      44.857   3.388   9.599  0.00  0.00    +0.000 A 
ATOM      5  N   UNL     1      43.943   3.615  10.629  0.00  0.00    +0.000 N 
ATOM      6  N   UNL     1      45.182   2.093   9.392  0.00  0.00    +0.000 NA
ATOM      7  C   UNL     1      45.999   1.795   8.346  0.00  0.00    +0.000 A 
ATOM      8  H   UNL     1      43.813   2.731  11.113  0.00  0.00    +0.000 HD
ENDROOT
BRANCH   1  10
ATOM      9  N   UNL     1      47.324   2.993   5.210  0.00  0.00    +0.000 N 
ATOM     10  C   UNL     1      47.414   2.307   6.388  0.00  0.00    +0.000 C 
ATOM     11  O   UNL     1      48.219   1.399   6.531  0.00  0.00    +0.000 OA
ATOM     12  H   UNL     1      48.001   2.755   4.496  0.00  0.00    +0.000 HD
ATOM     13  H   UNL     1      46.860   3.886   5.129  0.00  0.00    +0.000 HD
ENDBRANCH   1  10
BRANCH   5  14
ATOM     14  C   UNL     1      43.890   4.826  11.470  0.00  0.00    +0.000 C 
ATOM     15  C   UNL     1      42.553   5.036  12.177  0.00  0.00    +0.000 C 
ATOM     16  C   UNL     1      43.009   6.023  11.158  0.00  0.00    +0.000 C 
BRANCH  14  17
ATOM     17  C   UNL     1      45.158   5.088  12.301  0.00  0.00    +0.000 A 
ATOM     18  C   UNL     1      45.998   6.169  12.002  0.00  0.00    +0.000 A 
ATOM     19  C   UNL     1      47.096   6.451  12.816  0.00  0.00    +0.000 A 
ATOM     20  C   UNL     1      47.341   5.637  13.907  0.00  0.00    +0.000 A 
ATOM     21  F   UNL     1      48.372   5.890  14.723  0.00  0.00    +0.000 F 
ATOM     22  C   UNL     1      46.496   4.571  14.141  0.00  0.00    +0.000 A 
ATOM     23  N   UNL     1      45.422   4.278  13.367  0.00  0.00    +0.000 NA
ENDBRANCH  14  17
ENDBRANCH   5  14
TORSDOF 3
ENDMDL
MODEL 2
REMARK VINA RESULT:    -6.662      3.686      6.266
REMARK INTER + INTRA:          -8.360
REMARK INTER:                  -7.996
REMARK INTRA:                  -0.364
REMARK UNBOUND:                -0.529
REMARK  Name = 
REMARK  3 active torsions:
REMARK  status: ('A' for Active; 'I' for Inactive)
REMARK    1  A    between atoms: C_2  and  C_4
REMARK    2  A    between atoms: N_8  and  C_9
REMARK    3  A    between atoms: C_9  and  C_10
REMARK                            x       y       z     vdW  Elec       q    Type
REMARK                         _______ _______ _______ _____ _____    ______ ____
ROOT
ATOM      1  C   UNL     1      48.404   6.667  13.546  0.00  0.00    +0.000 A 
ATOM      2  C   UNL     1      47.550   5.630  13.922  0.00  0.00    +0.000 A 
ATOM      3  C   UNL     1      46.433   5.347  13.132  0.00  0.00    +0.000 A 
ATOM      4  C   UNL     1      46.176   6.100  11.995  0.00  0.00    +0.000 A 
ATOM      5  N   UNL     1      45.036   5.937  11.207  0.00  0.00    +0.000 N 
ATOM      6  N   UNL     1      46.987   7.118  11.632  0.00  0.00    +0.000 NA
ATOM      7  C   UNL     1      48.069   7.387  12.412  0.00  0.00    +0.000 A 
ATOM      8  H   UNL     1      45.131   6.563  10.412  0.00  0.00    +0.000 HD
ENDROOT
BRANCH   1  10
ATOM      9  N   UNL     1      50.536   7.814  13.684  0.00  0.00    +0.000 N 
ATOM     10  C   UNL     1      49.602   7.044  14.318  0.00  0.00    +0.000 C 
ATOM     11  O   UNL     1      49.737   6.719  15.488  0.00  0.00    +0.000 OA
ATOM     12  H   UNL     1      51.302   8.152  14.253  0.00  0.00    +0.000 HD
ATOM     13  H   UNL     1      50.352   8.299  12.818  0.00  0.00    +0.000 HD
ENDBRANCH   1  10
BRANCH   5  14
ATOM     14  C   UNL     1      44.358   4.653  10.942  0.00  0.00    +0.000 C 
ATOM     15  C   UNL     1      42.837   4.718  11.047  0.00  0.00    +0.000 C 
ATOM     16  C   UNL     1      43.605   3.871  12.003  0.00  0.00    +0.000 C 
BRANCH  14  17
ATOM     17  C   UNL     1      44.935   3.854   9.761  0.00  0.00    +0.000 A 
ATOM     18  C   UNL     1      45.543   4.511   8.683  0.00  0.00    +0.000 A 
ATOM     19  C   UNL     1      46.143   3.775   7.660  0.00  0.00    +0.000 A 
ATOM     20  C   UNL     1      46.112   2.394   7.729  0.00  0.00    +0.000 A 
ATOM     21  F   UNL     1      46.697   1.655   6.778  0.00  0.00    +0.000 F 
ATOM     22  C   UNL     1      45.478   1.798   8.801  0.00  0.00    +0.000 A 
ATOM     23  N   UNL     1      44.891   2.491   9.807  0.00  0.00    +0.000 NA
ENDBRANCH  14  17
ENDBRANCH   5  14
TORSDOF 3
ENDMDL
