MODEL 1
REMARK VINA RESULT:    -7.329      0.000      0.000
REMARK INTER + INTRA:         -10.876
REMARK INTER:                  -9.900
REMARK INTRA:                  -0.975
REMARK UNBOUND:                -0.975
REMARK  Name = 
REMARK  6 active torsions:
REMARK  status: ('A' for Active; 'I' for Inactive)
REMARK    1  A    between atoms: C_2  and  C_20
REMARK    2  A    between atoms: N_3  and  C_4
REMARK    3  A    between atoms: C_4  and  C_5
REMARK    4  A    between atoms: C_8  and  C_9
REMARK    5  A    between atoms: C_9  and  N_10
REMARK    6  A    between atoms: C_11  and  C_13
REMARK                            x       y       z     vdW  Elec       q    Type
REMARK                         _______ _______ _______ _____ _____    ______ ____
ROOT
ATOM      1  C   UNL     1      47.169   3.465  16.763  0.00  0.00    +0.000 C 
ENDROOT
BRANCH   1   2
ATOM      2  C   UNL     1      48.638   3.610  17.073  0.00  0.00    +0.000 A 
ATOM      3  C   UNL     1      49.479   2.488  17.074  0.00  0.00    +0.000 A 
ATOM      4  C   UNL     1      50.833   2.611  17.401  0.00  0.00    +0.000 A 
ATOM      5  C   UNL     1      51.370   3.856  17.755  0.00  0.00    +0.000 A 
ATOM      6  C   UNL     1      50.529   4.977  17.755  0.00  0.00    +0.000 A 
ATOM      7  C   UNL     1      49.175   4.853  17.426  0.00  0.00    +0.000 A 
BRANCH   5   8
ATOM      8  C   UNL     1      52.820   3.990  18.138  0.00  0.00    +0.000 C 
BRANCH   8   9
ATOM      9  N   UNL     1      53.583   2.802  17.831  0.00  0.00    +0.000 N 
ATOM     10  C   UNL     1      54.169   2.072  18.836  0.00  0.00    +0.000 C 
ATOM     11  O   UNL     1      54.044   2.375  20.022  0.00  0.00    +0.000 OA
ATOM     12  H   UNL     1      53.802   2.605  16.859  0.00  0.00    +0.000 HD
BRANCH  10  13
ATOM     13  C   UNL     1      55.083   0.922  18.427  0.00  0.00    +0.000 C 
ATOM     14  C   UNL     1      54.365  -0.056  17.525  0.00  0.00    +0.000 C 
ATOM     15  C   UNL     1      53.708  -1.002  18.509  0.00  0.00    +0.000 C 
ATOM     16  O   UNL     1      54.493  -0.971  19.713  0.00  0.00    +0.000 OA
ATOM     17  C   UNL     1      55.520   0.028  19.566  0.00  0.00    +0.000 C 
ENDBRANCH  10  13
ENDBRANCH   8   9
ENDBRANCH   5   8
ENDBRANCH   1   2
BRANCH   1  20
ATOM     18  O   UNL     1      47.223   3.075  13.995  0.00  0.00    +0.000 OA
ATOM     19  C   UNL     1      46.766   4.126  14.430  0.00  0.00    +0.000 C 
ATOM     20  N   UNL     1      46.767   4.427  15.769  0.00  0.00    +0.000 N 
ATOM     21  H   UNL     1      46.196   5.197  16.099  0.00  0.00    +0.000 HD
BRANCH  19  22
ATOM     22  C   UNL     1      46.237   5.165  13.541  0.00  0.00    +0.000 A 
ATOM     23  C   UNL     1      47.001   6.284  13.241  0.00  0.00    +0.000 A 
ATOM     24  S   UNL     1      46.205   7.402  12.226  0.00  0.00    +0.000 S 
ATOM     25  C   UNL     1      44.830   6.405  12.109  0.00  0.00    +0.000 A 
ATOM     26  N   UNL     1      43.760   6.768  11.352  0.00  0.00    +0.000 NA
ATOM     27  C   UNL     1      42.806   5.901  11.328  0.00  0.00    +0.000 A 
ATOM     28  N   UNL     1      42.819   4.704  11.994  0.00  0.00    +0.000 N 
ATOM     29  C   UNL     1      43.863   4.308  12.793  0.00  0.00    +0.000 A 
ATOM     30  O   UNL     1      43.821   3.251  13.411  0.00  0.00    +0.000 OA
ATOM     31  C   UNL     1      44.970   5.244  12.848  0.00  0.00    +0.000 A 
ATOM     32  H   UNL     1      42.034   4.072  11.941  0.00  0.00    +0.000 HD
ENDBRANCH  19  22
ENDBRANCH   1  20
TORSDOF 6
ENDMDL
MODEL 2
REMARK VINA RESULT:    -7.315      4.633      9.262
REMARK INTER + INTRA:         -10.856
REMARK INTER:                  -9.145
REMARK INTRA:                  -1.711
REMARK UNBOUND:                -0.975
REMARK  Name = 
REMARK  6 active torsions:
REMARK  status: ('A' for Active; 'I' for Inactive)
REMARK    1  A    between atoms: C_2  and  C_20
REMARK    2  A    between atoms: N_3  and  C_4
REMARK    3  A    between atoms: C_4  and  C_5
REMARK    4  A    between atoms: C_8  and  C_9
REMARK    5  A    between atoms: C_9  and  N_10
REMARK    6  A    between atoms: C_11  and  C_13
REMARK                            x       y       z     vdW  Elec       q    Type
REMARK                         _______ _______ _______ _____ _____    ______ ____
ROOT
ATOM      1  C   UNL     1      49.359   8.165  13.766  0.00  0.00    +0.000 C 
ENDROOT
BRANCH   1   2
ATOM      2  C   UNL     1      48.015   8.047  13.093  0.00  0.00    +0.000 A 
ATOM      3  C   UNL     1      46.980   8.940  13.406  0.00  0.00    +0.000 A 
ATOM      4  C   UNL     1      45.720   8.810  12.814  0.00  0.00    +0.000 A 
ATOM      5  C   UNL     1      45.461   7.769  11.913  0.00  0.00    +0.000 A 
ATOM      6  C   UNL     1      46.494   6.875  11.601  0.00  0.00    +0.000 A 
ATOM      7  C   UNL     1      47.755   7.008  12.192  0.00  0.00    +0.000 A 
BRANCH   5   8
ATOM      8  C   UNL     1      44.097   7.604  11.297  0.00  0.00    +0.000 C 
BRANCH   8   9
ATOM      9  N   UNL     1      43.831   6.240  10.903  0.00  0.00    +0.000 N 
ATOM     10  C   UNL     1      43.232   5.368  11.778  0.00  0.00    +0.000 C 
ATOM     11  O   UNL     1      42.873   5.714  12.903  0.00  0.00    +0.000 OA
ATOM     12  H   UNL     1      44.230   5.901  10.033  0.00  0.00    +0.000 HD
BRANCH  10  13
ATOM     13  C   UNL     1      43.123   3.908  11.350  0.00  0.00    +0.000 C 
ATOM     14  C   UNL     1      43.706   2.984  12.394  0.00  0.00    +0.000 C 
ATOM     15  C   UNL     1      45.170   2.927  12.015  0.00  0.00    +0.000 C 
ATOM     16  O   UNL     1      45.253   3.205  10.607  0.00  0.00    +0.000 OA
ATOM     17  C   UNL     1      43.939   3.548  10.128  0.00  0.00    +0.000 C 
ENDBRANCH  10  13
ENDBRANCH   8   9
ENDBRANCH   5   8
ENDBRANCH   1   2
BRANCH   1  20
ATOM     18  O   UNL     1      48.730   8.691  16.439  0.00  0.00    +0.000 OA
ATOM     19  C   UNL     1      49.070   7.554  16.129  0.00  0.00    +0.000 C 
ATOM     20  N   UNL     1      49.461   7.228  14.855  0.00  0.00    +0.000 N 
ATOM     21  H   UNL     1      49.525   6.250  14.597  0.00  0.00    +0.000 HD
BRANCH  19  22
ATOM     22  C   UNL     1      49.135   6.472  17.116  0.00  0.00    +0.000 A 
ATOM     23  C   UNL     1      49.886   6.625  18.273  0.00  0.00    +0.000 A 
ATOM     24  S   UNL     1      49.877   5.248  19.281  0.00  0.00    +0.000 S 
ATOM     25  C   UNL     1      48.825   4.416  18.231  0.00  0.00    +0.000 A 
ATOM     26  N   UNL     1      48.390   3.160  18.522  0.00  0.00    +0.000 NA
ATOM     27  C   UNL     1      47.572   2.667  17.656  0.00  0.00    +0.000 A 
ATOM     28  N   UNL     1      47.149   3.311  16.523  0.00  0.00    +0.000 N 
ATOM     29  C   UNL     1      47.583   4.566  16.174  0.00  0.00    +0.000 A 
ATOM     30  O   UNL     1      47.220   5.093  15.129  0.00  0.00    +0.000 OA
ATOM     31  C   UNL     1      48.500   5.172  17.121  0.00  0.00    +0.000 A 
ATOM     32  H   UNL     1      46.512   2.865  15.880  0.00  0.00    +0.000 HD
ENDBRANCH  19  22
ENDBRANCH   1  20
TORSDOF 6
ENDMDL
MODEL 3
REMARK VINA RESULT:    -7.258      5.181      9.582
REMARK INTER + INTRA:         -10.779
REMARK INTER:                  -9.616
REMARK INTRA:                  -1.163
REMARK UNBOUND:                -0.975
REMARK  Name = 
REMARK  6 active torsions:
REMARK  status: ('A' for Active; 'I' for Inactive)
REMARK    1  A    between atoms: C_2  and  C_20
REMARK    2  A    between atoms: N_3  and  C_4
REMARK    3  A    between atoms: C_4  and  C_5
REMARK    4  A    between atoms: C_8  and  C_9
REMARK    5  A    between atoms: C_9  and  N_10
REMARK    6  A    between atoms: C_11  and  C_13
REMARK                            x       y       z     vdW  Elec       q    Type
REMARK                         _______ _______ _______ _____ _____    ______ ____
ROOT
ATOM      1  C   UNL     1      46.782   4.280  14.667  0.00  0.00    +0.000 C 
ENDROOT
BRANCH   1   2
ATOM      2  C   UNL     1      46.149   4.345  13.300  0.00  0.00    +0.000 A 
ATOM      3  C   UNL     1      46.023   5.571  12.631  0.00  0.00    +0.000 A 
ATOM      4  C   UNL     1      45.400   5.642  11.381  0.00  0.00    +0.000 A 
ATOM      5  C   UNL     1      44.868   4.492  10.784  0.00  0.00    +0.000 A 
ATOM      6  C   UNL     1      44.992   3.267  11.453  0.00  0.00    +0.000 A 
ATOM      7  C   UNL     1      45.618   3.196  12.703  0.00  0.00    +0.000 A 
BRANCH   5   8
ATOM      8  C   UNL     1      44.168   4.568   9.453  0.00  0.00    +0.000 C 
BRANCH   8   9
ATOM      9  N   UNL     1      44.540   3.484   8.573  0.00  0.00    +0.000 N 
ATOM     10  C   UNL     1      45.600   3.622   7.711  0.00  0.00    +0.000 C 
ATOM     11  O   UNL     1      46.285   4.643   7.675  0.00  0.00    +0.000 OA
ATOM     12  H   UNL     1      43.916   2.686   8.497  0.00  0.00    +0.000 HD
BRANCH  10  13
ATOM     13  C   UNL     1      45.838   2.498   6.707  0.00  0.00    +0.000 C 
ATOM     14  C   UNL     1      46.544   1.327   7.351  0.00  0.00    +0.000 C 
ATOM     15  C   UNL     1      48.006   1.692   7.204  0.00  0.00    +0.000 C 
ATOM     16  O   UNL     1      48.111   2.563   6.065  0.00  0.00    +0.000 OA
ATOM     17  C   UNL     1      46.785   2.849   5.582  0.00  0.00    +0.000 C 
ENDBRANCH  10  13
ENDBRANCH   8   9
ENDBRANCH   5   8
ENDBRANCH   1   2
BRANCH   1  20
ATOM     18  O   UNL     1      48.803   4.652  16.563  0.00  0.00    +0.000 OA
ATOM     19  C   UNL     1      48.443   5.613  15.893  0.00  0.00    +0.000 C 
ATOM     20  N   UNL     1      47.413   5.534  14.991  0.00  0.00    +0.000 N 
ATOM     21  H   UNL     1      47.293   6.281  14.316  0.00  0.00    +0.000 HD
BRANCH  19  22
ATOM     22  C   UNL     1      49.057   6.936  16.049  0.00  0.00    +0.000 A 
ATOM     23  C   UNL     1      49.182   7.503  17.310  0.00  0.00    +0.000 A 
ATOM     24  S   UNL     1      49.880   9.060  17.292  0.00  0.00    +0.000 S 
ATOM     25  C   UNL     1      50.087   9.011  15.603  0.00  0.00    +0.000 A 
ATOM     26  N   UNL     1      50.666  10.045  14.935  0.00  0.00    +0.000 NA
ATOM     27  C   UNL     1      50.789   9.855  13.665  0.00  0.00    +0.000 A 
ATOM     28  N   UNL     1      50.385   8.729  12.999  0.00  0.00    +0.000 N 
ATOM     29  C   UNL     1      49.771   7.674  13.626  0.00  0.00    +0.000 A 
ATOM     30  O   UNL     1      49.380   6.701  12.991  0.00  0.00    +0.000 OA
ATOM     31  C   UNL     1      49.615   7.830  15.060  0.00  0.00    +0.000 A 
ATOM     32  H   UNL     1      50.504   8.647  12.001  0.00  0.00    +0.000 HD
ENDBRANCH  19  22
ENDBRANCH   1  20
TORSDOF 6
ENDMDL
MODEL 4
REMARK VINA RESULT:    -7.245      5.024      9.454
REMARK INTER + INTRA:         -10.762
REMARK INTER:                  -9.715
REMARK INTRA:                  -1.047
REMARK UNBOUND:                -0.975
REMARK  Name = 
REMARK  6 active torsions:
REMARK  status: ('A' for Active; 'I' for Inactive)
REMARK    1  A    between atoms: C_2  and  C_20
REMARK    2  A    between atoms: N_3  and  C_4
REMARK    3  A    between atoms: C_4  and  C_5
REMARK    4  A    between atoms: C_8  and  C_9
REMARK    5  A    between atoms: C_9  and  N_10
REMARK    6  A    between atoms: C_11  and  C_13
REMARK                            x       y       z     vdW  Elec       q    Type
REMARK                         _______ _______ _______ _____ _____    ______ ____
ROOT
ATOM      1  C   UNL     1      47.568   4.140  15.630  0.00  0.00    +0.000 C 
ENDROOT
BRANCH   1   2
ATOM      2  C   UNL     1      46.937   4.655  14.361  0.00  0.00    +0.000 A 
ATOM      3  C   UNL     1      46.040   3.857  13.637  0.00  0.00    +0.000 A 
ATOM      4  C   UNL     1      45.483   4.315  12.439  0.00  0.00    +0.000 A 
ATOM      5  C   UNL     1      45.829   5.572  11.927  0.00  0.00    +0.000 A 
ATOM      6  C   UNL     1      46.727   6.370  12.650  0.00  0.00    +0.000 A 
ATOM      7  C   UNL     1      47.282   5.912  13.850  0.00  0.00    +0.000 A 
BRANCH   5   8
ATOM      8  C   UNL     1      45.258   6.057  10.622  0.00  0.00    +0.000 C 
BRANCH   8   9
ATOM      9  N   UNL     1      44.863   4.971   9.755  0.00  0.00    +0.000 N 
ATOM     10  C   UNL     1      45.620   4.647   8.656  0.00  0.00    +0.000 C 
ATOM     11  O   UNL     1      46.665   5.238   8.386  0.00  0.00    +0.000 OA
ATOM     12  H   UNL     1      43.945   4.555   9.887  0.00  0.00    +0.000 HD
BRANCH  10  13
ATOM     13  C   UNL     1      45.062   3.593   7.705  0.00  0.00    +0.000 C 
ATOM     14  C   UNL     1      44.697   2.326   8.444  0.00  0.00    +0.000 C 
ATOM     15  C   UNL     1      45.998   1.552   8.449  0.00  0.00    +0.000 C 
ATOM     16  O   UNL     1      46.758   1.995   7.313  0.00  0.00    +0.000 OA
ATOM     17  C   UNL     1      46.052   3.081   6.683  0.00  0.00    +0.000 C 
ENDBRANCH  10  13
ENDBRANCH   8   9
ENDBRANCH   5   8
ENDBRANCH   1   2
BRANCH   1  20
ATOM     18  O   UNL     1      49.748   5.576  16.633  0.00  0.00    +0.000 OA
ATOM     19  C   UNL     1      48.626   5.844  17.050  0.00  0.00    +0.000 C 
ATOM     20  N   UNL     1      47.513   5.142  16.664  0.00  0.00    +0.000 N 
ATOM     21  H   UNL     1      46.596   5.527  16.863  0.00  0.00    +0.000 HD
BRANCH  19  22
ATOM     22  C   UNL     1      48.404   6.903  18.041  0.00  0.00    +0.000 A 
ATOM     23  C   UNL     1      48.384   6.599  19.395  0.00  0.00    +0.000 A 
ATOM     24  S   UNL     1      48.071   7.948  20.392  0.00  0.00    +0.000 S 
ATOM     25  C   UNL     1      48.003   8.996  19.052  0.00  0.00    +0.000 A 
ATOM     26  N   UNL     1      47.786  10.329  19.212  0.00  0.00    +0.000 NA
ATOM     27  C   UNL     1      47.794  11.005  18.114  0.00  0.00    +0.000 A 
ATOM     28  N   UNL     1      47.996  10.473  16.868  0.00  0.00    +0.000 N 
ATOM     29  C   UNL     1      48.190   9.130  16.655  0.00  0.00    +0.000 A 
ATOM     30  O   UNL     1      48.321   8.681  15.522  0.00  0.00    +0.000 OA
ATOM     31  C   UNL     1      48.199   8.322  17.861  0.00  0.00    +0.000 A 
ATOM     32  H   UNL     1      47.982  11.056  16.046  0.00  0.00    +0.000 HD
ENDBRANCH  19  22
ENDBRANCH   1  20
TORSDOF 6
ENDMDL
MODEL 5
REMARK VINA RESULT:    -7.238      3.772      5.241
REMARK INTER + INTRA:         -10.753
REMARK INTER:                  -9.446
REMARK INTRA:                  -1.307
REMARK UNBOUND:                -0.975
REMARK  Name = 
REMARK  6 active torsions:
REMARK  status: ('A' for Active; 'I' for Inactive)
REMARK    1  A    between atoms: C_2  and  C_20
REMARK    2  A    between atoms: N_3  and  C_4
REMARK    3  A    between atoms: C_4  and  C_5
REMARK    4  A    between atoms: C_8  and  C_9
REMARK    5  A    between atoms: C_9  and  N_10
REMARK    6  A    between atoms: C_11  and  C_13
REMARK                            x       y       z     vdW  Elec       q    Type
REMARK                         _______ _______ _______ _____ _____    ______ ____
ROOT
ATOM      1  C   UNL     1      48.453   8.009  11.784  0.00  0.00    +0.000 C 
ENDROOT
BRANCH   1   2
ATOM      2  C   UNL     1      49.047   7.733  13.143  0.00  0.00    +0.000 A 
ATOM      3  C   UNL     1      50.349   8.153  13.449  0.00  0.00    +0.000 A 
ATOM      4  C   UNL     1      50.919   7.864  14.692  0.00  0.00    +0.000 A 
ATOM      5  C   UNL     1      50.206   7.130  15.649  0.00  0.00    +0.000 A 
ATOM      6  C   UNL     1      48.905   6.709  15.343  0.00  0.00    +0.000 A 
ATOM      7  C   UNL     1      48.335   7.000  14.099  0.00  0.00    +0.000 A 
BRANCH   5   8
ATOM      8  C   UNL     1      50.826   6.789  16.978  0.00  0.00    +0.000 C 
BRANCH   8   9
ATOM      9  N   UNL     1      49.953   5.986  17.803  0.00  0.00    +0.000 N 
ATOM     10  C   UNL     1      50.047   4.617  17.789  0.00  0.00    +0.000 C 
ATOM     11  O   UNL     1      50.886   4.027  17.109  0.00  0.00    +0.000 OA
ATOM     12  H   UNL     1      49.176   6.443  18.272  0.00  0.00    +0.000 HD
BRANCH  10  13
ATOM     13  C   UNL     1      48.995   3.833  18.566  0.00  0.00    +0.000 C 
ATOM     14  C   UNL     1      48.216   2.909  17.658  0.00  0.00    +0.000 C 
ATOM     15  C   UNL     1      47.099   3.797  17.151  0.00  0.00    +0.000 C 
ATOM     16  O   UNL     1      46.890   4.818  18.140  0.00  0.00    +0.000 OA
ATOM     17  C   UNL     1      47.894   4.679  19.164  0.00  0.00    +0.000 C 
ENDBRANCH  10  13
ENDBRANCH   8   9
ENDBRANCH   5   8
ENDBRANCH   1   2
BRANCH   1  20
ATOM     18  O   UNL     1      45.662   7.837  11.764  0.00  0.00    +0.000 OA
ATOM     19  C   UNL     1      46.310   6.906  11.299  0.00  0.00    +0.000 C 
ATOM     20  N   UNL     1      47.681   6.879  11.333  0.00  0.00    +0.000 N 
ATOM     21  H   UNL     1      48.173   6.205  10.756  0.00  0.00    +0.000 HD
BRANCH  19  22
ATOM     22  C   UNL     1      45.660   5.725  10.722  0.00  0.00    +0.000 A 
ATOM     23  C   UNL     1      45.792   5.446   9.368  0.00  0.00    +0.000 A 
ATOM     24  S   UNL     1      44.933   4.058   8.871  0.00  0.00    +0.000 S 
ATOM     25  C   UNL     1      44.398   3.750  10.457  0.00  0.00    +0.000 A 
ATOM     26  N   UNL     1      43.622   2.668  10.740  0.00  0.00    +0.000 NA
ATOM     27  C   UNL     1      43.321   2.541  11.987  0.00  0.00    +0.000 A 
ATOM     28  N   UNL     1      43.720   3.397  12.980  0.00  0.00    +0.000 N 
ATOM     29  C   UNL     1      44.478   4.516  12.738  0.00  0.00    +0.000 A 
ATOM     30  O   UNL     1      44.777   5.285  13.645  0.00  0.00    +0.000 OA
ATOM     31  C   UNL     1      44.854   4.702  11.350  0.00  0.00    +0.000 A 
ATOM     32  H   UNL     1      43.442   3.245  13.938  0.00  0.00    +0.000 HD
ENDBRANCH  19  22
ENDBRANCH   1  20
TORSDOF 6
ENDMDL
MODEL 6
REMARK VINA RESULT:    -7.062      4.272      9.705
REMARK INTER + INTRA:         -10.514
REMARK INTER:                  -9.741
REMARK INTRA:                  -0.773
REMARK UNBOUND:                -0.975
REMARK  Name = 
REMARK  6 active torsions:
REMARK  status: ('A' for Active; 'I' for Inactive)
REMARK    1  A    between atoms: C_2  and  C_20
REMARK    2  A    between atoms: N_3  and  C_4
REMARK    3  A    between atoms: C_4  and  C_5
REMARK    4  A    between atoms: C_8  and  C_9
REMARK    5  A    between atoms: C_9  and  N_10
REMARK    6  A    between atoms: C_11  and  C_13
REMARK                            x       y       z     vdW  Elec       q    Type
REMARK                         _______ _______ _______ _____ _____    ______ ____
ROOT
ATOM      1  C   UNL     1      48.179   6.934  13.359  0.00  0.00    +0.000 C 
ENDROOT
BRANCH   1   2
ATOM      2  C   UNL     1      47.093   6.179  12.637  0.00  0.00    +0.000 A 
ATOM      3  C   UNL     1      46.547   5.012  13.190  0.00  0.00    +0.000 A 
ATOM      4  C   UNL     1      45.568   4.286  12.504  0.00  0.00    +0.000 A 
ATOM      5  C   UNL     1      45.130   4.701  11.240  0.00  0.00    +0.000 A 
ATOM      6  C   UNL     1      45.675   5.867  10.686  0.00  0.00    +0.000 A 
ATOM      7  C   UNL     1      46.653   6.593  11.373  0.00  0.00    +0.000 A 
BRANCH   5   8
ATOM      8  C   UNL     1      44.099   3.906  10.483  0.00  0.00    +0.000 C 
BRANCH   8   9
ATOM      9  N   UNL     1      44.411   3.796   9.077  0.00  0.00    +0.000 N 
ATOM     10  C   UNL     1      45.141   2.732   8.607  0.00  0.00    +0.000 C 
ATOM     11  O   UNL     1      45.525   1.827   9.346  0.00  0.00    +0.000 OA
ATOM     12  H   UNL     1      44.214   4.590   8.474  0.00  0.00    +0.000 HD
BRANCH  10  13
ATOM     13  C   UNL     1      45.563   2.762   7.142  0.00  0.00    +0.000 C 
ATOM     14  C   UNL     1      46.343   1.522   6.769  0.00  0.00    +0.000 C 
ATOM     15  C   UNL     1      47.765   1.898   7.127  0.00  0.00    +0.000 C 
ATOM     16  O   UNL     1      47.854   3.331   7.053  0.00  0.00    +0.000 OA
ATOM     17  C   UNL     1      46.541   3.860   6.790  0.00  0.00    +0.000 C 
ENDBRANCH  10  13
ENDBRANCH   8   9
ENDBRANCH   5   8
ENDBRANCH   1   2
BRANCH   1  20
ATOM     18  O   UNL     1      50.224   6.717  15.255  0.00  0.00    +0.000 OA
ATOM     19  C   UNL     1      49.065   6.797  15.648  0.00  0.00    +0.000 C 
ATOM     20  N   UNL     1      47.999   6.836  14.785  0.00  0.00    +0.000 N 
ATOM     21  H   UNL     1      47.091   7.114  15.140  0.00  0.00    +0.000 HD
BRANCH  19  22
ATOM     22  C   UNL     1      48.733   6.799  17.076  0.00  0.00    +0.000 A 
ATOM     23  C   UNL     1      48.277   7.960  17.686  0.00  0.00    +0.000 A 
ATOM     24  S   UNL     1      47.983   7.783  19.357  0.00  0.00    +0.000 S 
ATOM     25  C   UNL     1      48.404   6.134  19.316  0.00  0.00    +0.000 A 
ATOM     26  N   UNL     1      48.345   5.364  20.436  0.00  0.00    +0.000 NA
ATOM     27  C   UNL     1      48.658   4.128  20.249  0.00  0.00    +0.000 A 
ATOM     28  N   UNL     1      49.029   3.587  19.046  0.00  0.00    +0.000 N 
ATOM     29  C   UNL     1      49.131   4.330  17.896  0.00  0.00    +0.000 A 
ATOM     30  O   UNL     1      49.512   3.823  16.847  0.00  0.00    +0.000 OA
ATOM     31  C   UNL     1      48.780   5.730  18.048  0.00  0.00    +0.000 A 
ATOM     32  H   UNL     1      49.271   2.611  18.969  0.00  0.00    +0.000 HD
ENDBRANCH  19  22
ENDBRANCH   1  20
TORSDOF 6
ENDMDL
MODEL 7
REMARK VINA RESULT:    -7.060      4.024      5.500
REMARK INTER + INTRA:         -10.512
REMARK INTER:                  -9.177
REMARK INTRA:                  -1.335
REMARK UNBOUND:                -0.975
REMARK  Name = 
REMARK  6 active torsions:
REMARK  status: ('A' for Active; 'I' for Inactive)
REMARK    1  A    between atoms: C_2  and  C_20
REMARK    2  A    between atoms: N_3  and  C_4
REMARK    3  A    between atoms: C_4  and  C_5
REMARK    4  A    between atoms: C_8  and  C_9
REMARK    5  A    between atoms: C_9  and  N_10
REMARK    6  A    between atoms: C_11  and  C_13
REMARK                            x       y       z     vdW  Elec       q    Type
REMARK                         _______ _______ _______ _____ _____    ______ ____
ROOT
ATOM      1  C   UNL     1      47.724   7.611  11.787  0.00  0.00    +0.000 C 
ENDROOT
BRANCH   1   2
ATOM      2  C   UNL     1      48.541   7.539  13.052  0.00  0.00    +0.000 A 
ATOM      3  C   UNL     1      49.861   8.009  13.075  0.00  0.00    +0.000 A 
ATOM      4  C   UNL     1      50.636   7.906  14.234  0.00  0.00    +0.000 A 
ATOM      5  C   UNL     1      50.114   7.310  15.389  0.00  0.00    +0.000 A 
ATOM      6  C   UNL     1      48.794   6.839  15.366  0.00  0.00    +0.000 A 
ATOM      7  C   UNL     1      48.020   6.943  14.206  0.00  0.00    +0.000 A 
BRANCH   5   8
ATOM      8  C   UNL     1      50.954   7.168  16.631  0.00  0.00    +0.000 C 
BRANCH   8   9
ATOM      9  N   UNL     1      50.262   6.463  17.686  0.00  0.00    +0.000 N 
ATOM     10  C   UNL     1      50.392   5.102  17.814  0.00  0.00    +0.000 C 
ATOM     11  O   UNL     1      51.115   4.442  17.070  0.00  0.00    +0.000 OA
ATOM     12  H   UNL     1      49.567   6.967  18.229  0.00  0.00    +0.000 HD
BRANCH  10  13
ATOM     13  C   UNL     1      49.515   4.409  18.852  0.00  0.00    +0.000 C 
ATOM     14  C   UNL     1      48.575   3.418  18.203  0.00  0.00    +0.000 C 
ATOM     15  C   UNL     1      47.378   4.273  17.845  0.00  0.00    +0.000 C 
ATOM     16  O   UNL     1      47.364   5.384  18.758  0.00  0.00    +0.000 OA
ATOM     17  C   UNL     1      48.550   5.324  19.573  0.00  0.00    +0.000 C 
ENDBRANCH  10  13
ENDBRANCH   8   9
ENDBRANCH   5   8
ENDBRANCH   1   2
BRANCH   1  20
ATOM     18  O   UNL     1      44.942   7.404  11.973  0.00  0.00    +0.000 OA
ATOM     19  C   UNL     1      45.585   6.408  11.659  0.00  0.00    +0.000 C 
ATOM     20  N   UNL     1      46.956   6.405  11.612  0.00  0.00    +0.000 N 
ATOM     21  H   UNL     1      47.430   5.639  11.148  0.00  0.00    +0.000 HD
BRANCH  19  22
ATOM     22  C   UNL     1      44.932   5.129  11.364  0.00  0.00    +0.000 A 
ATOM     23  C   UNL     1      44.109   4.530  12.308  0.00  0.00    +0.000 A 
ATOM     24  S   UNL     1      43.472   3.029  11.805  0.00  0.00    +0.000 S 
ATOM     25  C   UNL     1      44.230   3.151  10.286  0.00  0.00    +0.000 A 
ATOM     26  N   UNL     1      44.072   2.185   9.341  0.00  0.00    +0.000 NA
ATOM     27  C   UNL     1      44.675   2.426   8.227  0.00  0.00    +0.000 A 
ATOM     28  N   UNL     1      45.426   3.542   7.969  0.00  0.00    +0.000 N 
ATOM     29  C   UNL     1      45.638   4.528   8.900  0.00  0.00    +0.000 A 
ATOM     30  O   UNL     1      46.354   5.491   8.651  0.00  0.00    +0.000 OA
ATOM     31  C   UNL     1      44.972   4.312  10.171  0.00  0.00    +0.000 A 
ATOM     32  H   UNL     1      45.880   3.667   7.077  0.00  0.00    +0.000 HD
ENDBRANCH  19  22
ENDBRANCH   1  20
TORSDOF 6
ENDMDL
MODEL 8
REMARK VINA RESULT:    -6.980      5.000      9.637
REMARK INTER + INTRA:         -10.403
REMARK INTER:                  -9.531
REMARK INTRA:                  -0.872
REMARK UNBOUND:                -0.975
REMARK  Name = 
REMARK  6 active torsions:
REMARK  status: ('A' for Active; 'I' for Inactive)
REMARK    1  A    between atoms: C_2  and  C_20
REMARK    2  A    between atoms: N_3  and  C_4
REMARK    3  A    between atoms: C_4  and  C_5
REMARK    4  A    between atoms: C_8  and  C_9
REMARK    5  A    between atoms: C_9  and  N_10
REMARK    6  A    between atoms: C_11  and  C_13
REMARK                            x       y       z     vdW  Elec       q    Type
REMARK                         _______ _______ _______ _____ _____    ______ ____
ROOT
ATOM      1  C   UNL     1      47.302   4.127  14.968  0.00  0.00    +0.000 C 
ENDROOT
BRANCH   1   2
ATOM      2  C   UNL     1      46.577   4.344  13.664  0.00  0.00    +0.000 A 
ATOM      3  C   UNL     1      45.931   3.278  13.023  0.00  0.00    +0.000 A 
ATOM      4  C   UNL     1      45.292   3.465  11.793  0.00  0.00    +0.000 A 
ATOM      5  C   UNL     1      45.307   4.718  11.167  0.00  0.00    +0.000 A 
ATOM      6  C   UNL     1      45.953   5.784  11.807  0.00  0.00    +0.000 A 
ATOM      7  C   UNL     1      46.591   5.596  13.038  0.00  0.00    +0.000 A 
BRANCH   5   8
ATOM      8  C   UNL     1      44.648   4.918   9.827  0.00  0.00    +0.000 C 
BRANCH   8   9
ATOM      9  N   UNL     1      44.826   3.784   8.951  0.00  0.00    +0.000 N 
ATOM     10  C   UNL     1      45.782   3.810   7.965  0.00  0.00    +0.000 C 
ATOM     11  O   UNL     1      46.536   4.770   7.812  0.00  0.00    +0.000 OA
ATOM     12  H   UNL     1      44.137   3.038   8.978  0.00  0.00    +0.000 HD
BRANCH  10  13
ATOM     13  C   UNL     1      45.810   2.643   6.984  0.00  0.00    +0.000 C 
ATOM     14  C   UNL     1      46.527   1.448   7.570  0.00  0.00    +0.000 C 
ATOM     15  C   UNL     1      47.973   1.713   7.210  0.00  0.00    +0.000 C 
ATOM     16  O   UNL     1      47.971   2.540   6.034  0.00  0.00    +0.000 OA
ATOM     17  C   UNL     1      46.610   2.897   5.726  0.00  0.00    +0.000 C 
ENDBRANCH  10  13
ENDBRANCH   8   9
ENDBRANCH   5   8
ENDBRANCH   1   2
BRANCH   1  20
ATOM     18  O   UNL     1      49.452   4.803  16.623  0.00  0.00    +0.000 OA
ATOM     19  C   UNL     1      48.588   5.647  16.409  0.00  0.00    +0.000 C 
ATOM     20  N   UNL     1      47.467   5.376  15.667  0.00  0.00    +0.000 N 
ATOM     21  H   UNL     1      46.896   6.148  15.341  0.00  0.00    +0.000 HD
BRANCH  19  22
ATOM     22  C   UNL     1      48.667   6.995  16.982  0.00  0.00    +0.000 A 
ATOM     23  C   UNL     1      49.108   8.059  16.207  0.00  0.00    +0.000 A 
ATOM     24  S   UNL     1      49.173   9.539  17.054  0.00  0.00    +0.000 S 
ATOM     25  C   UNL     1      48.563   8.821  18.472  0.00  0.00    +0.000 A 
ATOM     26  N   UNL     1      48.347   9.556  19.596  0.00  0.00    +0.000 NA
ATOM     27  C   UNL     1      47.851   8.889  20.581  0.00  0.00    +0.000 A 
ATOM     28  N   UNL     1      47.552   7.553  20.551  0.00  0.00    +0.000 N 
ATOM     29  C   UNL     1      47.780   6.765  19.450  0.00  0.00    +0.000 A 
ATOM     30  O   UNL     1      47.544   5.562  19.473  0.00  0.00    +0.000 OA
ATOM     31  C   UNL     1      48.330   7.468  18.306  0.00  0.00    +0.000 A 
ATOM     32  H   UNL     1      47.173   7.087  21.361  0.00  0.00    +0.000 HD
ENDBRANCH  19  22
ENDBRANCH   1  20
TORSDOF 6
ENDMDL
MODEL 9
REMARK VINA RESULT:    -6.952      3.271      9.747
REMARK INTER + INTRA:         -10.366
REMARK INTER:                  -9.262
REMARK INTRA:                  -1.104
REMARK UNBOUND:                -0.975
REMARK  Name = 
REMARK  6 active torsions:
REMARK  status: ('A' for Active; 'I' for Inactive)
REMARK    1  A    between atoms: C_2  and  C_20
REMARK    2  A    between atoms: N_3  and  C_4
REMARK    3  A    between atoms: C_4  and  C_5
REMARK    4  A    between atoms: C_8  and  C_9
REMARK    5  A    between atoms: C_9  and  N_10
REMARK    6  A    between atoms: C_11  and  C_13
REMARK                            x       y       z     vdW  Elec       q    Type
REMARK                         _______ _______ _______ _____ _____    ______ ____
ROOT
ATOM      1  C   UNL     1      47.689   3.515  17.322  0.00  0.00    +0.000 C 
ENDROOT
BRANCH   1   2
ATOM      2  C   UNL     1      47.592   4.237  16.003  0.00  0.00    +0.000 A 
ATOM      3  C   UNL     1      48.076   5.546  15.870  0.00  0.00    +0.000 A 
ATOM      4  C   UNL     1      47.952   6.235  14.659  0.00  0.00    +0.000 A 
ATOM      5  C   UNL     1      47.320   5.637  13.562  0.00  0.00    +0.000 A 
ATOM      6  C   UNL     1      46.835   4.328  13.694  0.00  0.00    +0.000 A 
ATOM      7  C   UNL     1      46.962   3.640  14.905  0.00  0.00    +0.000 A 
BRANCH   5   8
ATOM      8  C   UNL     1      47.155   6.384  12.265  0.00  0.00    +0.000 C 
BRANCH   8   9
ATOM      9  N   UNL     1      46.215   5.743  11.375  0.00  0.00    +0.000 N 
ATOM     10  C   UNL     1      44.876   6.042  11.446  0.00  0.00    +0.000 C 
ATOM     11  O   UNL     1      44.434   6.877  12.233  0.00  0.00    +0.000 OA
ATOM     12  H   UNL     1      46.538   4.965  10.808  0.00  0.00    +0.000 HD
BRANCH  10  13
ATOM     13  C   UNL     1      43.927   5.216  10.583  0.00  0.00    +0.000 C 
ATOM     14  C   UNL     1      42.983   4.398  11.434  0.00  0.00    +0.000 C 
ATOM     15  C   UNL     1      43.769   3.129  11.685  0.00  0.00    +0.000 C 
ATOM     16  O   UNL     1      44.692   2.980  10.592  0.00  0.00    +0.000 OA
ATOM     17  C   UNL     1      44.601   4.146   9.753  0.00  0.00    +0.000 C 
ENDBRANCH  10  13
ENDBRANCH   8   9
ENDBRANCH   5   8
ENDBRANCH   1   2
BRANCH   1  20
ATOM     18  O   UNL     1      49.390   1.653  16.116  0.00  0.00    +0.000 OA
ATOM     19  C   UNL     1      49.848   2.391  16.981  0.00  0.00    +0.000 C 
ATOM     20  N   UNL     1      49.068   3.284  17.671  0.00  0.00    +0.000 N 
ATOM     21  H   UNL     1      49.518   4.012  18.214  0.00  0.00    +0.000 HD
BRANCH  19  22
ATOM     22  C   UNL     1      51.258   2.332  17.379  0.00  0.00    +0.000 A 
ATOM     23  C   UNL     1      51.885   1.105  17.549  0.00  0.00    +0.000 A 
ATOM     24  S   UNL     1      53.510   1.233  18.053  0.00  0.00    +0.000 S 
ATOM     25  C   UNL     1      53.449   2.934  18.012  0.00  0.00    +0.000 A 
ATOM     26  N   UNL     1      54.542   3.685  18.318  0.00  0.00    +0.000 NA
ATOM     27  C   UNL     1      54.360   4.957  18.211  0.00  0.00    +0.000 A 
ATOM     28  N   UNL     1      53.187   5.551  17.830  0.00  0.00    +0.000 N 
ATOM     29  C   UNL     1      52.051   4.836  17.540  0.00  0.00    +0.000 A 
ATOM     30  O   UNL     1      51.004   5.403  17.248  0.00  0.00    +0.000 OA
ATOM     31  C   UNL     1      52.202   3.397  17.636  0.00  0.00    +0.000 A 
ATOM     32  H   UNL     1      53.108   6.555  17.774  0.00  0.00    +0.000 HD
ENDBRANCH  19  22
ENDBRANCH   1  20
TORSDOF 6
ENDMDL
