MODEL 1
REMARK VINA RESULT:    -7.960      0.000      0.000
REMARK INTER + INTRA:         -13.526
REMARK INTER:                 -11.916
REMARK INTRA:                  -1.610
REMARK UNBOUND:                -1.610
REMARK  Name = 
REMARK  9 active torsions:
REMARK  status: ('A' for Active; 'I' for Inactive)
REMARK    1  A    between atoms: N_1  and  C_2
REMARK    2  A    between atoms: C_2  and  C_3
REMARK    3  A    between atoms: C_3  and  N_4
REMARK    4  A    between atoms: C_3  and  C_26
REMARK    5  A    between atoms: N_4  and  C_5
REMARK    6  A    between atoms: C_5  and  C_6
REMARK    7  A    between atoms: C_9  and  C_10
REMARK    8  A    between atoms: C_10  and  N_11
REMARK    9  A    between atoms: C_12  and  C_14
REMARK                            x       y       z     vdW  Elec       q    Type
REMARK                         _______ _______ _______ _____ _____    ______ ____
ROOT
ATOM      1  C   UNL     1      44.774   6.324  11.401  0.00  0.00    +0.000 A 
ATOM      2  C   UNL     1      44.480   7.578  11.926  0.00  0.00    +0.000 A 
ATOM      3  N   UNL     1      45.359   8.294  12.667  0.00  0.00    +0.000 NA
ATOM      4  C   UNL     1      46.560   7.701  12.888  0.00  0.00    +0.000 A 
ATOM      5  C   UNL     1      46.870   6.464  12.331  0.00  0.00    +0.000 A 
ATOM      6  N   UNL     1      45.996   5.754  11.580  0.00  0.00    +0.000 NA
ENDROOT
BRANCH   1   7
ATOM      7  C   UNL     1      43.729   5.555  10.622  0.00  0.00    +0.000 C 
BRANCH   7   8
ATOM      8  N   UNL     1      44.307   4.964   9.403  0.00  0.00    +0.000 NA
ATOM      9  H   UNL     1      43.736   5.329   8.632  0.00  0.00    +0.000 HD
BRANCH   8  10
ATOM     10  C   UNL     1      44.183   3.489   9.366  0.00  0.00    +0.000 C 
BRANCH  10  11
ATOM     11  C   UNL     1      45.276   2.811   8.543  0.00  0.00    +0.000 A 
ATOM     12  C   UNL     1      46.081   3.576   7.696  0.00  0.00    +0.000 A 
ATOM     13  C   UNL     1      47.094   2.948   6.980  0.00  0.00    +0.000 A 
ATOM     14  C   UNL     1      47.292   1.581   7.135  0.00  0.00    +0.000 A 
ATOM     15  C   UNL     1      46.464   0.895   8.006  0.00  0.00    +0.000 A 
ATOM     16  N   UNL     1      45.469   1.476   8.711  0.00  0.00    +0.000 NA
ENDBRANCH  10  11
BRANCH  10  17
ATOM     17  C   UNL     1      44.023   2.837  10.771  0.00  0.00    +0.000 C 
BRANCH  17  18
ATOM     18  N   UNL     1      45.293   2.753  11.513  0.00  0.00    +0.000 NA
ATOM     19  H   UNL     1      45.615   3.701  11.710  0.00  0.00    +0.000 HD
ATOM     20  H   UNL     1      46.003   2.332  10.916  0.00  0.00    +0.000 HD
ENDBRANCH  17  18
ENDBRANCH  10  17
ENDBRANCH   8  10
ENDBRANCH   7   8
ENDBRANCH   1   7
BRANCH   4  21
ATOM     21  C   UNL     1      47.566   8.428  13.735  0.00  0.00    +0.000 C 
BRANCH  21  22
ATOM     22  N   UNL     1      47.896   7.682  14.927  0.00  0.00    +0.000 N 
ATOM     23  C   UNL     1      49.083   7.009  15.042  0.00  0.00    +0.000 C 
ATOM     24  O   UNL     1      49.963   7.092  14.190  0.00  0.00    +0.000 OA
ATOM     25  H   UNL     1      47.109   7.416  15.514  0.00  0.00    +0.000 HD
BRANCH  23  26
ATOM     26  C   UNL     1      49.285   6.237  16.270  0.00  0.00    +0.000 A 
ATOM     27  C   UNL     1      50.285   6.610  17.158  0.00  0.00    +0.000 A 
ATOM     28  S   UNL     1      50.372   5.623  18.544  0.00  0.00    +0.000 S 
ATOM     29  C   UNL     1      49.099   4.638  17.986  0.00  0.00    +0.000 A 
ATOM     30  N   UNL     1      48.687   3.562  18.708  0.00  0.00    +0.000 NA
ATOM     31  C   UNL     1      47.737   2.884  18.153  0.00  0.00    +0.000 A 
ATOM     32  N   UNL     1      47.160   3.190  16.947  0.00  0.00    +0.000 N 
ATOM     33  C   UNL     1      47.524   4.286  16.201  0.00  0.00    +0.000 A 
ATOM     34  O   UNL     1      46.954   4.567  15.153  0.00  0.00    +0.000 OA
ATOM     35  C   UNL     1      48.603   5.069  16.770  0.00  0.00    +0.000 A 
ATOM     36  H   UNL     1      46.410   2.626  16.573  0.00  0.00    +0.000 HD
ENDBRANCH  23  26
ENDBRANCH  21  22
ENDBRANCH   4  21
TORSDOF 9
ENDMDL
MODEL 2
REMARK VINA RESULT:    -7.532      2.962      4.084
REMARK INTER + INTRA:         -12.885
REMARK INTER:                 -11.820
REMARK INTRA:                  -1.065
REMARK UNBOUND:                -1.610
REMARK  Name = 
REMARK  9 active torsions:
REMARK  status: ('A' for Active; 'I' for Inactive)
REMARK    1  A    between atoms: N_1  and  C_2
REMARK    2  A    between atoms: C_2  and  C_3
REMARK    3  A    between atoms: C_3  and  N_4
REMARK    4  A    between atoms: C_3  and  C_26
REMARK    5  A    between atoms: N_4  and  C_5
REMARK    6  A    between atoms: C_5  and  C_6
REMARK    7  A    between atoms: C_9  and  C_10
REMARK    8  A    between atoms: C_10  and  N_11
REMARK    9  A    between atoms: C_12  and  C_14
REMARK                            x       y       z     vdW  Elec       q    Type
REMARK                         _______ _______ _______ _____ _____    ______ ____
ROOT
ATOM      1  C   UNL     1      46.928   4.325  14.185  0.00  0.00    +0.000 A 
ATOM      2  C   UNL     1      47.598   5.537  14.055  0.00  0.00    +0.000 A 
ATOM      3  N   UNL     1      48.266   6.126  15.076  0.00  0.00    +0.000 NA
ATOM      4  C   UNL     1      48.230   5.462  16.260  0.00  0.00    +0.000 A 
ATOM      5  C   UNL     1      47.596   4.230  16.381  0.00  0.00    +0.000 A 
ATOM      6  N   UNL     1      46.938   3.637  15.358  0.00  0.00    +0.000 NA
ENDROOT
BRANCH   1   7
ATOM      7  C   UNL     1      46.159   3.746  13.017  0.00  0.00    +0.000 C 
BRANCH   7   8
ATOM      8  N   UNL     1      44.718   4.018  13.147  0.00  0.00    +0.000 NA
ATOM      9  H   UNL     1      44.266   3.098  13.097  0.00  0.00    +0.000 HD
BRANCH   8  10
ATOM     10  C   UNL     1      44.182   4.820  12.022  0.00  0.00    +0.000 C 
BRANCH  10  11
ATOM     11  C   UNL     1      44.530   4.244  10.651  0.00  0.00    +0.000 A 
ATOM     12  C   UNL     1      45.275   5.004   9.748  0.00  0.00    +0.000 A 
ATOM     13  C   UNL     1      45.612   4.451   8.517  0.00  0.00    +0.000 A 
ATOM     14  C   UNL     1      45.215   3.153   8.222  0.00  0.00    +0.000 A 
ATOM     15  C   UNL     1      44.494   2.457   9.176  0.00  0.00    +0.000 A 
ATOM     16  N   UNL     1      44.147   2.968  10.377  0.00  0.00    +0.000 NA
ENDBRANCH  10  11
BRANCH  10  17
ATOM     17  C   UNL     1      42.664   5.144  12.149  0.00  0.00    +0.000 C 
BRANCH  17  18
ATOM     18  N   UNL     1      42.269   6.346  11.394  0.00  0.00    +0.000 NA
ATOM     19  H   UNL     1      42.729   7.156  11.812  0.00  0.00    +0.000 HD
ATOM     20  H   UNL     1      41.268   6.500  11.509  0.00  0.00    +0.000 HD
ENDBRANCH  17  18
ENDBRANCH  10  17
ENDBRANCH   8  10
ENDBRANCH   7   8
ENDBRANCH   1   7
BRANCH   4  21
ATOM     21  C   UNL     1      48.922   6.081  17.442  0.00  0.00    +0.000 C 
BRANCH  21  22
ATOM     22  N   UNL     1      49.986   5.238  17.936  0.00  0.00    +0.000 N 
ATOM     23  C   UNL     1      51.239   5.273  17.383  0.00  0.00    +0.000 C 
ATOM     24  O   UNL     1      51.546   6.090  16.519  0.00  0.00    +0.000 OA
ATOM     25  H   UNL     1      49.693   4.421  18.466  0.00  0.00    +0.000 HD
BRANCH  23  26
ATOM     26  C   UNL     1      52.223   4.332  17.924  0.00  0.00    +0.000 A 
ATOM     27  C   UNL     1      53.343   4.817  18.585  0.00  0.00    +0.000 A 
ATOM     28  S   UNL     1      54.374   3.593  19.170  0.00  0.00    +0.000 S 
ATOM     29  C   UNL     1      53.376   2.372  18.526  0.00  0.00    +0.000 A 
ATOM     30  N   UNL     1      53.713   1.061  18.653  0.00  0.00    +0.000 NA
ATOM     31  C   UNL     1      52.886   0.243  18.090  0.00  0.00    +0.000 A 
ATOM     32  N   UNL     1      51.751   0.620  17.418  0.00  0.00    +0.000 N 
ATOM     33  C   UNL     1      51.356   1.932  17.294  0.00  0.00    +0.000 A 
ATOM     34  O   UNL     1      50.308   2.236  16.736  0.00  0.00    +0.000 OA
ATOM     35  C   UNL     1      52.264   2.891  17.891  0.00  0.00    +0.000 A 
ATOM     36  H   UNL     1      51.137  -0.070  17.011  0.00  0.00    +0.000 HD
ENDBRANCH  23  26
ENDBRANCH  21  22
ENDBRANCH   4  21
TORSDOF 9
ENDMDL
MODEL 3
REMARK VINA RESULT:    -7.255      2.046      2.406
REMARK INTER + INTRA:         -12.470
REMARK INTER:                 -11.673
REMARK INTRA:                  -0.796
REMARK UNBOUND:                -1.610
REMARK  Name = 
REMARK  9 active torsions:
REMARK  status: ('A' for Active; 'I' for Inactive)
REMARK    1  A    between atoms: N_1  and  C_2
REMARK    2  A    between atoms: C_2  and  C_3
REMARK    3  A    between atoms: C_3  and  N_4
REMARK    4  A    between atoms: C_3  and  C_26
REMARK    5  A    between atoms: N_4  and  C_5
REMARK    6  A    between atoms: C_5  and  C_6
REMARK    7  A    between atoms: C_9  and  C_10
REMARK    8  A    between atoms: C_10  and  N_11
REMARK    9  A    between atoms: C_12  and  C_14
REMARK                            x       y       z     vdW  Elec       q    Type
REMARK                         _______ _______ _______ _____ _____    ______ ____
ROOT
ATOM      1  C   UNL     1      44.817   6.111  11.934  0.00  0.00    +0.000 A 
ATOM      2  C   UNL     1      45.176   7.447  11.794  0.00  0.00    +0.000 A 
ATOM      3  N   UNL     1      46.231   8.001  12.439  0.00  0.00    +0.000 NA
ATOM      4  C   UNL     1      46.921   7.167  13.259  0.00  0.00    +0.000 A 
ATOM      5  C   UNL     1      46.588   5.821  13.369  0.00  0.00    +0.000 A 
ATOM      6  N   UNL     1      45.541   5.265  12.716  0.00  0.00    +0.000 NA
ENDROOT
BRANCH   1   7
ATOM      7  C   UNL     1      43.597   5.567  11.224  0.00  0.00    +0.000 C 
BRANCH   7   8
ATOM      8  N   UNL     1      43.944   5.071   9.881  0.00  0.00    +0.000 NA
ATOM      9  H   UNL     1      43.169   5.370   9.277  0.00  0.00    +0.000 HD
BRANCH   8  10
ATOM     10  C   UNL     1      43.996   3.592   9.811  0.00  0.00    +0.000 C 
BRANCH  10  11
ATOM     11  C   UNL     1      45.058   3.071   8.846  0.00  0.00    +0.000 A 
ATOM     12  C   UNL     1      45.733   3.962   8.009  0.00  0.00    +0.000 A 
ATOM     13  C   UNL     1      46.721   3.475   7.161  0.00  0.00    +0.000 A 
ATOM     14  C   UNL     1      47.024   2.118   7.176  0.00  0.00    +0.000 A 
ATOM     15  C   UNL     1      46.323   1.301   8.046  0.00  0.00    +0.000 A 
ATOM     16  N   UNL     1      45.355   1.745   8.877  0.00  0.00    +0.000 NA
ENDBRANCH  10  11
BRANCH  10  17
ATOM     17  C   UNL     1      44.084   2.901  11.203  0.00  0.00    +0.000 C 
BRANCH  17  18
ATOM     18  N   UNL     1      42.994   1.936  11.435  0.00  0.00    +0.000 NA
ATOM     19  H   UNL     1      43.348   0.998  11.248  0.00  0.00    +0.000 HD
ATOM     20  H   UNL     1      42.253   2.099  10.755  0.00  0.00    +0.000 HD
ENDBRANCH  17  18
ENDBRANCH  10  17
ENDBRANCH   8  10
ENDBRANCH   7   8
ENDBRANCH   1   7
BRANCH   4  21
ATOM     21  C   UNL     1      48.080   7.730  14.031  0.00  0.00    +0.000 C 
BRANCH  21  22
ATOM     22  N   UNL     1      48.039   7.328  15.419  0.00  0.00    +0.000 N 
ATOM     23  C   UNL     1      49.111   6.721  16.017  0.00  0.00    +0.000 C 
ATOM     24  O   UNL     1      50.187   6.583  15.441  0.00  0.00    +0.000 OA
ATOM     25  H   UNL     1      47.111   7.220  15.821  0.00  0.00    +0.000 HD
BRANCH  23  26
ATOM     26  C   UNL     1      48.936   6.303  17.410  0.00  0.00    +0.000 A 
ATOM     27  C   UNL     1      49.276   5.010  17.785  0.00  0.00    +0.000 A 
ATOM     28  S   UNL     1      49.033   4.693  19.442  0.00  0.00    +0.000 S 
ATOM     29  C   UNL     1      48.428   6.264  19.707  0.00  0.00    +0.000 A 
ATOM     30  N   UNL     1      48.000   6.644  20.940  0.00  0.00    +0.000 NA
ATOM     31  C   UNL     1      47.535   7.848  20.993  0.00  0.00    +0.000 A 
ATOM     32  N   UNL     1      47.467   8.706  19.924  0.00  0.00    +0.000 N 
ATOM     33  C   UNL     1      47.918   8.374  18.669  0.00  0.00    +0.000 A 
ATOM     34  O   UNL     1      47.897   9.180  17.746  0.00  0.00    +0.000 OA
ATOM     35  C   UNL     1      48.431   7.023  18.552  0.00  0.00    +0.000 A 
ATOM     36  H   UNL     1      47.105   9.642  20.034  0.00  0.00    +0.000 HD
ENDBRANCH  23  26
ENDBRANCH  21  22
ENDBRANCH   4  21
TORSDOF 9
ENDMDL
MODEL 4
REMARK VINA RESULT:    -6.990      2.834      7.990
REMARK INTER + INTRA:         -12.073
REMARK INTER:                 -10.897
REMARK INTRA:                  -1.176
REMARK UNBOUND:                -1.610
REMARK  Name = 
REMARK  9 active torsions:
REMARK  status: ('A' for Active; 'I' for Inactive)
REMARK    1  A    between atoms: N_1  and  C_2
REMARK    2  A    between atoms: C_2  and  C_3
REMARK    3  A    between atoms: C_3  and  N_4
REMARK    4  A    between atoms: C_3  and  C_26
REMARK    5  A    between atoms: N_4  and  C_5
REMARK    6  A    between atoms: C_5  and  C_6
REMARK    7  A    between atoms: C_9  and  C_10
REMARK    8  A    between atoms: C_10  and  N_11
REMARK    9  A    between atoms: C_12  and  C_14
REMARK                            x       y       z     vdW  Elec       q    Type
REMARK                         _______ _______ _______ _____ _____    ______ ____
ROOT
ATOM      1  C   UNL     1      49.103   8.062  15.935  0.00  0.00    +0.000 A 
ATOM      2  C   UNL     1      49.721   7.179  15.056  0.00  0.00    +0.000 A 
ATOM      3  N   UNL     1      49.369   7.065  13.753  0.00  0.00    +0.000 NA
ATOM      4  C   UNL     1      48.348   7.865  13.350  0.00  0.00    +0.000 A 
ATOM      5  C   UNL     1      47.756   8.777  14.217  0.00  0.00    +0.000 A 
ATOM      6  N   UNL     1      48.116   8.899  15.516  0.00  0.00    +0.000 NA
ENDROOT
BRANCH   1   7
ATOM      7  C   UNL     1      49.512   8.104  17.392  0.00  0.00    +0.000 C 
BRANCH   7   8
ATOM      8  N   UNL     1      49.999   6.790  17.843  0.00  0.00    +0.000 NA
ATOM      9  H   UNL     1      50.757   6.548  17.194  0.00  0.00    +0.000 HD
BRANCH   8  10
ATOM     10  C   UNL     1      48.976   5.725  17.722  0.00  0.00    +0.000 C 
BRANCH  10  11
ATOM     11  C   UNL     1      49.572   4.343  17.462  0.00  0.00    +0.000 A 
ATOM     12  C   UNL     1      50.885   4.070  17.847  0.00  0.00    +0.000 A 
ATOM     13  C   UNL     1      51.400   2.795  17.634  0.00  0.00    +0.000 A 
ATOM     14  C   UNL     1      50.591   1.822  17.059  0.00  0.00    +0.000 A 
ATOM     15  C   UNL     1      49.295   2.165  16.720  0.00  0.00    +0.000 A 
ATOM     16  N   UNL     1      48.769   3.394  16.910  0.00  0.00    +0.000 NA
ENDBRANCH  10  11
BRANCH  10  17
ATOM     17  C   UNL     1      47.948   5.707  18.890  0.00  0.00    +0.000 C 
BRANCH  17  18
ATOM     18  N   UNL     1      46.613   5.243  18.473  0.00  0.00    +0.000 NA
ATOM     19  H   UNL     1      45.953   6.013  18.586  0.00  0.00    +0.000 HD
ATOM     20  H   UNL     1      46.300   4.509  19.107  0.00  0.00    +0.000 HD
ENDBRANCH  17  18
ENDBRANCH  10  17
ENDBRANCH   8  10
ENDBRANCH   7   8
ENDBRANCH   1   7
BRANCH   4  21
ATOM     21  C   UNL     1      47.885   7.760  11.924  0.00  0.00    +0.000 C 
BRANCH  21  22
ATOM     22  N   UNL     1      47.125   6.552  11.699  0.00  0.00    +0.000 N 
ATOM     23  C   UNL     1      45.760   6.540  11.798  0.00  0.00    +0.000 C 
ATOM     24  O   UNL     1      45.110   7.567  11.975  0.00  0.00    +0.000 OA
ATOM     25  H   UNL     1      47.643   5.681  11.787  0.00  0.00    +0.000 HD
BRANCH  23  26
ATOM     26  C   UNL     1      45.098   5.246  11.609  0.00  0.00    +0.000 A 
ATOM     27  C   UNL     1      44.427   4.659  12.672  0.00  0.00    +0.000 A 
ATOM     28  S   UNL     1      43.696   3.170  12.280  0.00  0.00    +0.000 S 
ATOM     29  C   UNL     1      44.285   3.242  10.683  0.00  0.00    +0.000 A 
ATOM     30  N   UNL     1      44.036   2.234   9.805  0.00  0.00    +0.000 NA
ATOM     31  C   UNL     1      44.569   2.402   8.640  0.00  0.00    +0.000 A 
ATOM     32  N   UNL     1      45.322   3.489   8.275  0.00  0.00    +0.000 N 
ATOM     33  C   UNL     1      45.571   4.544   9.120  0.00  0.00    +0.000 A 
ATOM     34  O   UNL     1      46.200   5.528   8.749  0.00  0.00    +0.000 OA
ATOM     35  C   UNL     1      45.011   4.394  10.449  0.00  0.00    +0.000 A 
ATOM     36  H   UNL     1      45.700   3.567   7.342  0.00  0.00    +0.000 HD
ENDBRANCH  23  26
ENDBRANCH  21  22
ENDBRANCH   4  21
TORSDOF 9
ENDMDL
MODEL 5
REMARK VINA RESULT:    -6.747      5.015      6.671
REMARK INTER + INTRA:         -11.710
REMARK INTER:                 -10.540
REMARK INTRA:                  -1.169
REMARK UNBOUND:                -1.610
REMARK  Name = 
REMARK  9 active torsions:
REMARK  status: ('A' for Active; 'I' for Inactive)
REMARK    1  A    between atoms: N_1  and  C_2
REMARK    2  A    between atoms: C_2  and  C_3
REMARK    3  A    between atoms: C_3  and  N_4
REMARK    4  A    between atoms: C_3  and  C_26
REMARK    5  A    between atoms: N_4  and  C_5
REMARK    6  A    between atoms: C_5  and  C_6
REMARK    7  A    between atoms: C_9  and  C_10
REMARK    8  A    between atoms: C_10  and  N_11
REMARK    9  A    between atoms: C_12  and  C_14
REMARK                            x       y       z     vdW  Elec       q    Type
REMARK                         _______ _______ _______ _____ _____    ______ ____
ROOT
ATOM      1  C   UNL     1      46.059   6.283  12.363  0.00  0.00    +0.000 A 
ATOM      2  C   UNL     1      47.017   5.589  13.095  0.00  0.00    +0.000 A 
ATOM      3  N   UNL     1      48.293   6.018  13.237  0.00  0.00    +0.000 NA
ATOM      4  C   UNL     1      48.597   7.179  12.600  0.00  0.00    +0.000 A 
ATOM      5  C   UNL     1      47.630   7.895  11.902  0.00  0.00    +0.000 A 
ATOM      6  N   UNL     1      46.352   7.471  11.769  0.00  0.00    +0.000 NA
ENDROOT
BRANCH   1   7
ATOM      7  C   UNL     1      44.664   5.722  12.201  0.00  0.00    +0.000 C 
BRANCH   7   8
ATOM      8  N   UNL     1      44.342   5.504  10.781  0.00  0.00    +0.000 NA
ATOM      9  H   UNL     1      43.485   6.043  10.615  0.00  0.00    +0.000 HD
BRANCH   8  10
ATOM     10  C   UNL     1      44.025   4.090  10.475  0.00  0.00    +0.000 C 
BRANCH  10  11
ATOM     11  C   UNL     1      44.904   3.499   9.373  0.00  0.00    +0.000 A 
ATOM     12  C   UNL     1      45.546   4.347   8.469  0.00  0.00    +0.000 A 
ATOM     13  C   UNL     1      46.370   3.794   7.494  0.00  0.00    +0.000 A 
ATOM     14  C   UNL     1      46.545   2.416   7.452  0.00  0.00    +0.000 A 
ATOM     15  C   UNL     1      45.888   1.644   8.394  0.00  0.00    +0.000 A 
ATOM     16  N   UNL     1      45.079   2.151   9.348  0.00  0.00    +0.000 NA
ENDBRANCH  10  11
BRANCH  10  17
ATOM     17  C   UNL     1      43.970   3.172  11.731  0.00  0.00    +0.000 C 
BRANCH  17  18
ATOM     18  N   UNL     1      42.978   2.090  11.609  0.00  0.00    +0.000 NA
ATOM     19  H   UNL     1      42.409   2.076  12.456  0.00  0.00    +0.000 HD
ATOM     20  H   UNL     1      43.462   1.194  11.579  0.00  0.00    +0.000 HD
ENDBRANCH  17  18
ENDBRANCH  10  17
ENDBRANCH   8  10
ENDBRANCH   7   8
ENDBRANCH   1   7
BRANCH   4  21
ATOM     21  C   UNL     1      50.007   7.690  12.690  0.00  0.00    +0.000 C 
BRANCH  21  22
ATOM     22  N   UNL     1      50.761   7.380  11.497  0.00  0.00    +0.000 N 
ATOM     23  C   UNL     1      52.010   7.902  11.288  0.00  0.00    +0.000 C 
ATOM     24  O   UNL     1      52.590   8.567  12.142  0.00  0.00    +0.000 OA
ATOM     25  H   UNL     1      50.219   7.042  10.706  0.00  0.00    +0.000 HD
BRANCH  23  26
ATOM     26  C   UNL     1      52.657   7.568  10.017  0.00  0.00    +0.000 A 
ATOM     27  C   UNL     1      53.103   6.272   9.794  0.00  0.00    +0.000 A 
ATOM     28  S   UNL     1      53.811   6.047   8.261  0.00  0.00    +0.000 S 
ATOM     29  C   UNL     1      53.581   7.686   7.856  0.00  0.00    +0.000 A 
ATOM     30  N   UNL     1      54.004   8.171   6.659  0.00  0.00    +0.000 NA
ATOM     31  C   UNL     1      53.796   9.436   6.495  0.00  0.00    +0.000 A 
ATOM     32  N   UNL     1      53.198  10.255   7.419  0.00  0.00    +0.000 N 
ATOM     33  C   UNL     1      52.726   9.799   8.628  0.00  0.00    +0.000 A 
ATOM     34  O   UNL     1      52.146  10.541   9.411  0.00  0.00    +0.000 OA
ATOM     35  C   UNL     1      52.955   8.387   8.869  0.00  0.00    +0.000 A 
ATOM     36  H   UNL     1      53.052  11.235   7.225  0.00  0.00    +0.000 HD
ENDBRANCH  23  26
ENDBRANCH  21  22
ENDBRANCH   4  21
TORSDOF 9
ENDMDL
MODEL 6
REMARK VINA RESULT:    -6.746      1.880      2.408
REMARK INTER + INTRA:         -11.708
REMARK INTER:                 -10.386
REMARK INTRA:                  -1.322
REMARK UNBOUND:                -1.610
REMARK  Name = 
REMARK  9 active torsions:
REMARK  status: ('A' for Active; 'I' for Inactive)
REMARK    1  A    between atoms: N_1  and  C_2
REMARK    2  A    between atoms: C_2  and  C_3
REMARK    3  A    between atoms: C_3  and  N_4
REMARK    4  A    between atoms: C_3  and  C_26
REMARK    5  A    between atoms: N_4  and  C_5
REMARK    6  A    between atoms: C_5  and  C_6
REMARK    7  A    between atoms: C_9  and  C_10
REMARK    8  A    between atoms: C_10  and  N_11
REMARK    9  A    between atoms: C_12  and  C_14
REMARK                            x       y       z     vdW  Elec       q    Type
REMARK                         _______ _______ _______ _____ _____    ______ ____
ROOT
ATOM      1  C   UNL     1      45.450   6.573  12.519  0.00  0.00    +0.000 A 
ATOM      2  C   UNL     1      46.513   5.730  12.825  0.00  0.00    +0.000 A 
ATOM      3  N   UNL     1      47.796   6.157  12.907  0.00  0.00    +0.000 NA
ATOM      4  C   UNL     1      47.992   7.476  12.653  0.00  0.00    +0.000 A 
ATOM      5  C   UNL     1      46.926   8.329  12.387  0.00  0.00    +0.000 A 
ATOM      6  N   UNL     1      45.643   7.904  12.316  0.00  0.00    +0.000 NA
ENDROOT
BRANCH   1   7
ATOM      7  C   UNL     1      44.047   6.022  12.394  0.00  0.00    +0.000 C 
BRANCH   7   8
ATOM      8  N   UNL     1      43.723   5.710  10.992  0.00  0.00    +0.000 NA
ATOM      9  H   UNL     1      42.836   6.193  10.808  0.00  0.00    +0.000 HD
BRANCH   8  10
ATOM     10  C   UNL     1      43.482   4.267  10.765  0.00  0.00    +0.000 C 
BRANCH  10  11
ATOM     11  C   UNL     1      44.411   3.656   9.717  0.00  0.00    +0.000 A 
ATOM     12  C   UNL     1      45.222   4.487   8.942  0.00  0.00    +0.000 A 
ATOM     13  C   UNL     1      46.087   3.912   8.017  0.00  0.00    +0.000 A 
ATOM     14  C   UNL     1      46.135   2.528   7.898  0.00  0.00    +0.000 A 
ATOM     15  C   UNL     1      45.312   1.772   8.714  0.00  0.00    +0.000 A 
ATOM     16  N   UNL     1      44.459   2.302   9.617  0.00  0.00    +0.000 NA
ENDBRANCH  10  11
BRANCH  10  17
ATOM     17  C   UNL     1      43.444   3.423  12.073  0.00  0.00    +0.000 C 
BRANCH  17  18
ATOM     18  N   UNL     1      44.758   2.860  12.431  0.00  0.00    +0.000 NA
ATOM     19  H   UNL     1      45.162   2.429  11.599  0.00  0.00    +0.000 HD
ATOM     20  H   UNL     1      44.627   2.105  13.103  0.00  0.00    +0.000 HD
ENDBRANCH  17  18
ENDBRANCH  10  17
ENDBRANCH   8  10
ENDBRANCH   7   8
ENDBRANCH   1   7
BRANCH   4  21
ATOM     21  C   UNL     1      49.398   8.006  12.692  0.00  0.00    +0.000 C 
BRANCH  21  22
ATOM     22  N   UNL     1      50.172   7.382  13.741  0.00  0.00    +0.000 N 
ATOM     23  C   UNL     1      50.582   8.087  14.840  0.00  0.00    +0.000 C 
ATOM     24  O   UNL     1      50.227   9.246  15.041  0.00  0.00    +0.000 OA
ATOM     25  H   UNL     1      50.658   6.526  13.482  0.00  0.00    +0.000 HD
BRANCH  23  26
ATOM     26  C   UNL     1      51.412   7.369  15.811  0.00  0.00    +0.000 A 
ATOM     27  C   UNL     1      52.725   7.768  16.017  0.00  0.00    +0.000 A 
ATOM     28  S   UNL     1      53.544   6.843  17.191  0.00  0.00    +0.000 S 
ATOM     29  C   UNL     1      52.180   5.852  17.437  0.00  0.00    +0.000 A 
ATOM     30  N   UNL     1      52.224   4.816  18.317  0.00  0.00    +0.000 NA
ATOM     31  C   UNL     1      51.132   4.127  18.380  0.00  0.00    +0.000 A 
ATOM     32  N   UNL     1      50.002   4.386  17.648  0.00  0.00    +0.000 N 
ATOM     33  C   UNL     1      49.903   5.442  16.772  0.00  0.00    +0.000 A 
ATOM     34  O   UNL     1      48.862   5.683  16.172  0.00  0.00    +0.000 OA
ATOM     35  C   UNL     1      51.111   6.235  16.649  0.00  0.00    +0.000 A 
ATOM     36  H   UNL     1      49.174   3.817  17.753  0.00  0.00    +0.000 HD
ENDBRANCH  23  26
ENDBRANCH  21  22
ENDBRANCH   4  21
TORSDOF 9
ENDMDL
MODEL 7
REMARK VINA RESULT:    -6.723      2.894      8.246
REMARK INTER + INTRA:         -11.673
REMARK INTER:                 -10.413
REMARK INTRA:                  -1.260
REMARK UNBOUND:                -1.610
REMARK  Name = 
REMARK  9 active torsions:
REMARK  status: ('A' for Active; 'I' for Inactive)
REMARK    1  A    between atoms: N_1  and  C_2
REMARK    2  A    between atoms: C_2  and  C_3
REMARK    3  A    between atoms: C_3  and  N_4
REMARK    4  A    between atoms: C_3  and  C_26
REMARK    5  A    between atoms: N_4  and  C_5
REMARK    6  A    between atoms: C_5  and  C_6
REMARK    7  A    between atoms: C_9  and  C_10
REMARK    8  A    between atoms: C_10  and  N_11
REMARK    9  A    between atoms: C_12  and  C_14
REMARK                            x       y       z     vdW  Elec       q    Type
REMARK                         _______ _______ _______ _____ _____    ______ ____
ROOT
ATOM      1  C   UNL     1      50.232   7.360  15.109  0.00  0.00    +0.000 A 
ATOM      2  C   UNL     1      50.317   8.431  14.227  0.00  0.00    +0.000 A 
ATOM      3  N   UNL     1      49.431   8.635  13.223  0.00  0.00    +0.000 NA
ATOM      4  C   UNL     1      48.445   7.708  13.113  0.00  0.00    +0.000 A 
ATOM      5  C   UNL     1      48.335   6.658  14.019  0.00  0.00    +0.000 A 
ATOM      6  N   UNL     1      49.214   6.461  15.029  0.00  0.00    +0.000 NA
ENDROOT
BRANCH   1   7
ATOM      7  C   UNL     1      51.284   7.162  16.178  0.00  0.00    +0.000 C 
BRANCH   7   8
ATOM      8  N   UNL     1      51.459   5.733  16.490  0.00  0.00    +0.000 NA
ATOM      9  H   UNL     1      50.929   5.234  15.766  0.00  0.00    +0.000 HD
BRANCH   8  10
ATOM     10  C   UNL     1      50.866   5.354  17.793  0.00  0.00    +0.000 C 
BRANCH  10  11
ATOM     11  C   UNL     1      49.568   4.560  17.658  0.00  0.00    +0.000 A 
ATOM     12  C   UNL     1      48.385   5.067  18.198  0.00  0.00    +0.000 A 
ATOM     13  C   UNL     1      47.206   4.347  18.035  0.00  0.00    +0.000 A 
ATOM     14  C   UNL     1      47.230   3.152  17.327  0.00  0.00    +0.000 A 
ATOM     15  C   UNL     1      48.439   2.724  16.806  0.00  0.00    +0.000 A 
ATOM     16  N   UNL     1      49.600   3.398  16.952  0.00  0.00    +0.000 NA
ENDBRANCH  10  11
BRANCH  10  17
ATOM     17  C   UNL     1      51.871   4.666  18.764  0.00  0.00    +0.000 C 
BRANCH  17  18
ATOM     18  N   UNL     1      52.015   3.222  18.513  0.00  0.00    +0.000 NA
ATOM     19  H   UNL     1      52.495   3.095  17.622  0.00  0.00    +0.000 HD
ATOM     20  H   UNL     1      51.090   2.808  18.396  0.00  0.00    +0.000 HD
ENDBRANCH  17  18
ENDBRANCH  10  17
ENDBRANCH   8  10
ENDBRANCH   7   8
ENDBRANCH   1   7
BRANCH   4  21
ATOM     21  C   UNL     1      47.451   7.857  11.997  0.00  0.00    +0.000 C 
BRANCH  21  22
ATOM     22  N   UNL     1      46.773   6.612  11.719  0.00  0.00    +0.000 N 
ATOM     23  C   UNL     1      45.408   6.548  11.628  0.00  0.00    +0.000 C 
ATOM     24  O   UNL     1      44.704   7.554  11.672  0.00  0.00    +0.000 OA
ATOM     25  H   UNL     1      47.303   5.766  11.914  0.00  0.00    +0.000 HD
BRANCH  23  26
ATOM     26  C   UNL     1      44.825   5.223  11.403  0.00  0.00    +0.000 A 
ATOM     27  C   UNL     1      44.084   4.620  12.411  0.00  0.00    +0.000 A 
ATOM     28  S   UNL     1      43.460   3.094  11.980  0.00  0.00    +0.000 S 
ATOM     29  C   UNL     1      44.191   3.171  10.443  0.00  0.00    +0.000 A 
ATOM     30  N   UNL     1      44.070   2.140   9.565  0.00  0.00    +0.000 NA
ATOM     31  C   UNL     1      44.701   2.316   8.451  0.00  0.00    +0.000 A 
ATOM     32  N   UNL     1      45.436   3.430   8.137  0.00  0.00    +0.000 N 
ATOM     33  C   UNL     1      45.558   4.508   8.982  0.00  0.00    +0.000 A 
ATOM     34  O   UNL     1      46.174   5.515   8.653  0.00  0.00    +0.000 OA
ATOM     35  C   UNL     1      44.884   4.352  10.256  0.00  0.00    +0.000 A 
ATOM     36  H   UNL     1      45.895   3.513   7.242  0.00  0.00    +0.000 HD
ENDBRANCH  23  26
ENDBRANCH  21  22
ENDBRANCH   4  21
TORSDOF 9
ENDMDL
MODEL 8
REMARK VINA RESULT:    -6.647      4.073      5.076
REMARK INTER + INTRA:         -11.560
REMARK INTER:                 -10.351
REMARK INTRA:                  -1.209
REMARK UNBOUND:                -1.610
REMARK  Name = 
REMARK  9 active torsions:
REMARK  status: ('A' for Active; 'I' for Inactive)
REMARK    1  A    between atoms: N_1  and  C_2
REMARK    2  A    between atoms: C_2  and  C_3
REMARK    3  A    between atoms: C_3  and  N_4
REMARK    4  A    between atoms: C_3  and  C_26
REMARK    5  A    between atoms: N_4  and  C_5
REMARK    6  A    between atoms: C_5  and  C_6
REMARK    7  A    between atoms: C_9  and  C_10
REMARK    8  A    between atoms: C_10  and  N_11
REMARK    9  A    between atoms: C_12  and  C_14
REMARK                            x       y       z     vdW  Elec       q    Type
REMARK                         _______ _______ _______ _____ _____    ______ ____
ROOT
ATOM      1  C   UNL     1      44.622   6.927  11.665  0.00  0.00    +0.000 A 
ATOM      2  C   UNL     1      45.894   6.899  12.226  0.00  0.00    +0.000 A 
ATOM      3  N   UNL     1      46.639   8.012  12.426  0.00  0.00    +0.000 NA
ATOM      4  C   UNL     1      46.072   9.178  12.023  0.00  0.00    +0.000 A 
ATOM      5  C   UNL     1      44.784   9.213  11.499  0.00  0.00    +0.000 A 
ATOM      6  N   UNL     1      44.034   8.102  11.311  0.00  0.00    +0.000 NA
ENDROOT
BRANCH   1   7
ATOM      7  C   UNL     1      43.862   5.642  11.424  0.00  0.00    +0.000 C 
BRANCH   7   8
ATOM      8  N   UNL     1      43.982   5.211  10.021  0.00  0.00    +0.000 NA
ATOM      9  H   UNL     1      43.101   5.495   9.577  0.00  0.00    +0.000 HD
BRANCH   8  10
ATOM     10  C   UNL     1      44.079   3.740   9.878  0.00  0.00    +0.000 C 
BRANCH  10  11
ATOM     11  C   UNL     1      45.162   3.298   8.896  0.00  0.00    +0.000 A 
ATOM     12  C   UNL     1      45.528   1.953   8.825  0.00  0.00    +0.000 A 
ATOM     13  C   UNL     1      46.492   1.564   7.901  0.00  0.00    +0.000 A 
ATOM     14  C   UNL     1      47.055   2.518   7.062  0.00  0.00    +0.000 A 
ATOM     15  C   UNL     1      46.627   3.828   7.181  0.00  0.00    +0.000 A 
ATOM     16  N   UNL     1      45.698   4.237   8.071  0.00  0.00    +0.000 NA
ENDBRANCH  10  11
BRANCH  10  17
ATOM     17  C   UNL     1      44.179   2.983  11.235  0.00  0.00    +0.000 C 
BRANCH  17  18
ATOM     18  N   UNL     1      42.979   2.181  11.535  0.00  0.00    +0.000 NA
ATOM     19  H   UNL     1      42.976   1.363  10.925  0.00  0.00    +0.000 HD
ATOM     20  H   UNL     1      42.148   2.718  11.291  0.00  0.00    +0.000 HD
ENDBRANCH  17  18
ENDBRANCH  10  17
ENDBRANCH   8  10
ENDBRANCH   7   8
ENDBRANCH   1   7
BRANCH   4  21
ATOM     21  C   UNL     1      46.863  10.446  12.184  0.00  0.00    +0.000 C 
BRANCH  21  22
ATOM     22  N   UNL     1      48.238  10.269  11.776  0.00  0.00    +0.000 N 
ATOM     23  C   UNL     1      49.271  10.456  12.655  0.00  0.00    +0.000 C 
ATOM     24  O   UNL     1      49.080  10.677  13.848  0.00  0.00    +0.000 OA
ATOM     25  H   UNL     1      48.413  10.322  10.776  0.00  0.00    +0.000 HD
BRANCH  23  26
ATOM     26  C   UNL     1      50.626  10.308  12.118  0.00  0.00    +0.000 A 
ATOM     27  C   UNL     1      51.486  11.398  12.118  0.00  0.00    +0.000 A 
ATOM     28  S   UNL     1      53.028  11.053  11.480  0.00  0.00    +0.000 S 
ATOM     29  C   UNL     1      52.586   9.442  11.146  0.00  0.00    +0.000 A 
ATOM     30  N   UNL     1      53.463   8.590  10.551  0.00  0.00    +0.000 NA
ATOM     31  C   UNL     1      52.987   7.410  10.326  0.00  0.00    +0.000 A 
ATOM     32  N   UNL     1      51.716   7.006  10.647  0.00  0.00    +0.000 N 
ATOM     33  C   UNL     1      50.809   7.824  11.277  0.00  0.00    +0.000 A 
ATOM     34  O   UNL     1      49.699   7.419  11.603  0.00  0.00    +0.000 OA
ATOM     35  C   UNL     1      51.288   9.168  11.534  0.00  0.00    +0.000 A 
ATOM     36  H   UNL     1      51.409   6.063  10.457  0.00  0.00    +0.000 HD
ENDBRANCH  23  26
ENDBRANCH  21  22
ENDBRANCH   4  21
TORSDOF 9
ENDMDL
MODEL 9
REMARK VINA RESULT:    -6.354      5.263      7.034
REMARK INTER + INTRA:         -11.122
REMARK INTER:                 -10.079
REMARK INTRA:                  -1.043
REMARK UNBOUND:                -1.610
REMARK  Name = 
REMARK  9 active torsions:
REMARK  status: ('A' for Active; 'I' for Inactive)
REMARK    1  A    between atoms: N_1  and  C_2
REMARK    2  A    between atoms: C_2  and  C_3
REMARK    3  A    between atoms: C_3  and  N_4
REMARK    4  A    between atoms: C_3  and  C_26
REMARK    5  A    between atoms: N_4  and  C_5
REMARK    6  A    between atoms: C_5  and  C_6
REMARK    7  A    between atoms: C_9  and  C_10
REMARK    8  A    between atoms: C_10  and  N_11
REMARK    9  A    between atoms: C_12  and  C_14
REMARK                            x       y       z     vdW  Elec       q    Type
REMARK                         _______ _______ _______ _____ _____    ______ ____
ROOT
ATOM      1  C   UNL     1      47.007   7.192  12.582  0.00  0.00    +0.000 A 
ATOM      2  C   UNL     1      48.067   6.387  12.986  0.00  0.00    +0.000 A 
ATOM      3  N   UNL     1      49.365   6.732  12.815  0.00  0.00    +0.000 NA
ATOM      4  C   UNL     1      49.579   7.925  12.201  0.00  0.00    +0.000 A 
ATOM      5  C   UNL     1      48.521   8.750  11.834  0.00  0.00    +0.000 A 
ATOM      6  N   UNL     1      47.223   8.409  12.014  0.00  0.00    +0.000 NA
ENDROOT
BRANCH   1   7
ATOM      7  C   UNL     1      45.579   6.724  12.758  0.00  0.00    +0.000 C 
BRANCH   7   8
ATOM      8  N   UNL     1      45.403   5.356  12.240  0.00  0.00    +0.000 NA
ATOM      9  H   UNL     1      46.328   5.082  11.888  0.00  0.00    +0.000 HD
BRANCH   8  10
ATOM     10  C   UNL     1      44.471   5.293  11.091  0.00  0.00    +0.000 C 
BRANCH  10  11
ATOM     11  C   UNL     1      44.947   4.363   9.977  0.00  0.00    +0.000 A 
ATOM     12  C   UNL     1      44.661   2.998  10.043  0.00  0.00    +0.000 A 
ATOM     13  C   UNL     1      45.074   2.171   9.004  0.00  0.00    +0.000 A 
ATOM     14  C   UNL     1      45.745   2.724   7.919  0.00  0.00    +0.000 A 
ATOM     15  C   UNL     1      45.976   4.088   7.919  0.00  0.00    +0.000 A 
ATOM     16  N   UNL     1      45.593   4.914   8.915  0.00  0.00    +0.000 NA
ENDBRANCH  10  11
BRANCH  10  17
ATOM     17  C   UNL     1      42.994   5.009  11.495  0.00  0.00    +0.000 C 
BRANCH  17  18
ATOM     18  N   UNL     1      42.155   6.221  11.493  0.00  0.00    +0.000 NA
ATOM     19  H   UNL     1      42.069   6.552  10.532  0.00  0.00    +0.000 HD
ATOM     20  H   UNL     1      42.634   6.961  12.005  0.00  0.00    +0.000 HD
ENDBRANCH  17  18
ENDBRANCH  10  17
ENDBRANCH   8  10
ENDBRANCH   7   8
ENDBRANCH   1   7
BRANCH   4  21
ATOM     21  C   UNL     1      50.998   8.349  11.949  0.00  0.00    +0.000 C 
BRANCH  21  22
ATOM     22  N   UNL     1      51.439   7.972  10.626  0.00  0.00    +0.000 N 
ATOM     23  C   UNL     1      52.525   8.566  10.040  0.00  0.00    +0.000 C 
ATOM     24  O   UNL     1      53.235   9.365  10.644  0.00  0.00    +0.000 OA
ATOM     25  H   UNL     1      50.746   7.507  10.045  0.00  0.00    +0.000 HD
BRANCH  23  26
ATOM     26  C   UNL     1      52.844   8.148   8.673  0.00  0.00    +0.000 A 
ATOM     27  C   UNL     1      52.745   9.064   7.635  0.00  0.00    +0.000 A 
ATOM     28  S   UNL     1      53.173   8.424   6.115  0.00  0.00    +0.000 S 
ATOM     29  C   UNL     1      53.469   6.887   6.787  0.00  0.00    +0.000 A 
ATOM     30  N   UNL     1      53.848   5.846   5.999  0.00  0.00    +0.000 NA
ATOM     31  C   UNL     1      54.007   4.731   6.633  0.00  0.00    +0.000 A 
ATOM     32  N   UNL     1      53.825   4.568   7.983  0.00  0.00    +0.000 N 
ATOM     33  C   UNL     1      53.474   5.600   8.820  0.00  0.00    +0.000 A 
ATOM     34  O   UNL     1      53.374   5.437  10.031  0.00  0.00    +0.000 OA
ATOM     35  C   UNL     1      53.263   6.870   8.153  0.00  0.00    +0.000 A 
ATOM     36  H   UNL     1      53.979   3.671   8.421  0.00  0.00    +0.000 HD
ENDBRANCH  23  26
ENDBRANCH  21  22
ENDBRANCH   4  21
TORSDOF 9
ENDMDL
