MODEL 1
REMARK VINA RESULT:    -8.021      0.000      0.000
REMARK INTER + INTRA:         -13.002
REMARK INTER:                 -11.772
REMARK INTRA:                  -1.230
REMARK UNBOUND:                -1.230
REMARK  Name = 
REMARK  9 active torsions:
REMARK  status: ('A' for Active; 'I' for Inactive)
REMARK    1  A    between atoms: C_1  and  C_2
REMARK    2  A    between atoms: C_2  and  C_3
REMARK    3  A    between atoms: C_3  and  N_4
REMARK    4  A    between atoms: C_3  and  C_26
REMARK    5  A    between atoms: N_4  and  C_5
REMARK    6  A    between atoms: C_5  and  C_6
REMARK    7  A    between atoms: C_9  and  C_10
REMARK    8  A    between atoms: C_10  and  N_11
REMARK    9  A    between atoms: C_12  and  C_14
REMARK                            x       y       z     vdW  Elec       q    Type
REMARK                         _______ _______ _______ _____ _____    ______ ____
ROOT
ATOM      1  C   UNL     1      45.233   6.565  11.301  0.00  0.00    +0.000 A 
ATOM      2  C   UNL     1      44.800   7.697  12.007  0.00  0.00    +0.000 A 
ATOM      3  C   UNL     1      45.653   8.348  12.902  0.00  0.00    +0.000 A 
ATOM      4  C   UNL     1      46.957   7.879  13.110  0.00  0.00    +0.000 A 
ATOM      5  C   UNL     1      47.374   6.721  12.442  0.00  0.00    +0.000 A 
ATOM      6  C   UNL     1      46.525   6.077  11.541  0.00  0.00    +0.000 A 
ENDROOT
BRANCH   1   7
ATOM      7  C   UNL     1      44.316   5.826  10.352  0.00  0.00    +0.000 C 
BRANCH   7   8
ATOM      8  N   UNL     1      45.060   5.100   9.319  0.00  0.00    +0.000 NA
ATOM      9  H   UNL     1      44.830   5.487   8.408  0.00  0.00    +0.000 HD
BRANCH   8  10
ATOM     10  C   UNL     1      44.763   3.650   9.309  0.00  0.00    +0.000 C 
BRANCH  10  11
ATOM     11  C   UNL     1      45.627   2.875   8.303  0.00  0.00    +0.000 A 
ATOM     12  C   UNL     1      46.095   3.512   7.151  0.00  0.00    +0.000 A 
ATOM     13  C   UNL     1      46.903   2.799   6.266  0.00  0.00    +0.000 A 
ATOM     14  C   UNL     1      47.219   1.475   6.543  0.00  0.00    +0.000 A 
ATOM     15  C   UNL     1      46.718   0.918   7.704  0.00  0.00    +0.000 A 
ATOM     16  N   UNL     1      45.939   1.584   8.584  0.00  0.00    +0.000 NA
ENDBRANCH  10  11
BRANCH  10  18
ATOM     17  C   UNL     1      43.418   2.865  11.377  0.00  0.00    +0.000 C 
ATOM     18  C   UNL     1      44.782   2.991  10.714  0.00  0.00    +0.000 C 
ENDBRANCH  10  18
ENDBRANCH   8  10
ENDBRANCH   7   8
ENDBRANCH   1   7
BRANCH   4  19
ATOM     19  C   UNL     1      47.875   8.557  14.090  0.00  0.00    +0.000 C 
BRANCH  19  20
ATOM     20  N   UNL     1      48.126   7.693  15.211  0.00  0.00    +0.000 N 
ATOM     21  C   UNL     1      49.353   7.127  15.430  0.00  0.00    +0.000 C 
ATOM     22  O   UNL     1      50.319   7.358  14.709  0.00  0.00    +0.000 OA
ATOM     23  H   UNL     1      47.309   7.302  15.668  0.00  0.00    +0.000 HD
BRANCH  21  24
ATOM     24  C   UNL     1      49.464   6.284  16.626  0.00  0.00    +0.000 A 
ATOM     25  C   UNL     1      50.352   6.629  17.633  0.00  0.00    +0.000 A 
ATOM     26  S   UNL     1      50.274   5.600  18.992  0.00  0.00    +0.000 S 
ATOM     27  C   UNL     1      49.092   4.625  18.256  0.00  0.00    +0.000 A 
ATOM     28  N   UNL     1      48.578   3.542  18.900  0.00  0.00    +0.000 NA
ATOM     29  C   UNL     1      47.706   2.879  18.214  0.00  0.00    +0.000 A 
ATOM     30  N   UNL     1      47.309   3.193  16.941  0.00  0.00    +0.000 N 
ATOM     31  C   UNL     1      47.794   4.282  16.257  0.00  0.00    +0.000 A 
ATOM     32  O   UNL     1      47.405   4.547  15.123  0.00  0.00    +0.000 OA
ATOM     33  C   UNL     1      48.766   5.074  16.989  0.00  0.00    +0.000 A 
ATOM     34  H   UNL     1      46.628   2.630  16.452  0.00  0.00    +0.000 HD
ENDBRANCH  21  24
ENDBRANCH  19  20
ENDBRANCH   4  19
TORSDOF 8
ENDMDL
MODEL 2
REMARK VINA RESULT:    -7.620      2.745      3.490
REMARK INTER + INTRA:         -12.413
REMARK INTER:                 -11.272
REMARK INTRA:                  -1.141
REMARK UNBOUND:                -1.230
REMARK  Name = 
REMARK  9 active torsions:
REMARK  status: ('A' for Active; 'I' for Inactive)
REMARK    1  A    between atoms: C_1  and  C_2
REMARK    2  A    between atoms: C_2  and  C_3
REMARK    3  A    between atoms: C_3  and  N_4
REMARK    4  A    between atoms: C_3  and  C_26
REMARK    5  A    between atoms: N_4  and  C_5
REMARK    6  A    between atoms: C_5  and  C_6
REMARK    7  A    between atoms: C_9  and  C_10
REMARK    8  A    between atoms: C_10  and  N_11
REMARK    9  A    between atoms: C_12  and  C_14
REMARK                            x       y       z     vdW  Elec       q    Type
REMARK                         _______ _______ _______ _____ _____    ______ ____
ROOT
ATOM      1  C   UNL     1      46.739   5.102  13.593  0.00  0.00    +0.000 A 
ATOM      2  C   UNL     1      46.897   4.465  14.833  0.00  0.00    +0.000 A 
ATOM      3  C   UNL     1      47.741   5.004  15.809  0.00  0.00    +0.000 A 
ATOM      4  C   UNL     1      48.443   6.192  15.563  0.00  0.00    +0.000 A 
ATOM      5  C   UNL     1      48.322   6.802  14.309  0.00  0.00    +0.000 A 
ATOM      6  C   UNL     1      47.474   6.268  13.339  0.00  0.00    +0.000 A 
ENDROOT
BRANCH   1   7
ATOM      7  C   UNL     1      45.857   4.518  12.511  0.00  0.00    +0.000 C 
BRANCH   7   8
ATOM      8  N   UNL     1      45.638   5.461  11.412  0.00  0.00    +0.000 NA
ATOM      9  H   UNL     1      45.305   6.344  11.790  0.00  0.00    +0.000 HD
BRANCH   8  10
ATOM     10  C   UNL     1      44.656   4.968  10.419  0.00  0.00    +0.000 C 
BRANCH  10  11
ATOM     11  C   UNL     1      45.290   4.047   9.366  0.00  0.00    +0.000 A 
ATOM     12  C   UNL     1      45.145   2.663   9.473  0.00  0.00    +0.000 A 
ATOM     13  C   UNL     1      45.702   1.846   8.489  0.00  0.00    +0.000 A 
ATOM     14  C   UNL     1      46.393   2.424   7.432  0.00  0.00    +0.000 A 
ATOM     15  C   UNL     1      46.492   3.802   7.397  0.00  0.00    +0.000 A 
ATOM     16  N   UNL     1      45.957   4.619   8.330  0.00  0.00    +0.000 NA
ENDBRANCH  10  11
BRANCH  10  18
ATOM     17  C   UNL     1      42.455   5.329  11.733  0.00  0.00    +0.000 C 
ATOM     18  C   UNL     1      43.385   4.339  11.047  0.00  0.00    +0.000 C 
ENDBRANCH  10  18
ENDBRANCH   8  10
ENDBRANCH   7   8
ENDBRANCH   1   7
BRANCH   4  19
ATOM     19  C   UNL     1      49.372   6.767  16.597  0.00  0.00    +0.000 C 
BRANCH  19  20
ATOM     20  N   UNL     1      50.403   5.818  16.919  0.00  0.00    +0.000 N 
ATOM     21  C   UNL     1      50.785   5.573  18.210  0.00  0.00    +0.000 C 
ATOM     22  O   UNL     1      50.243   6.116  19.168  0.00  0.00    +0.000 OA
ATOM     23  H   UNL     1      51.017   5.546  16.158  0.00  0.00    +0.000 HD
BRANCH  21  24
ATOM     24  C   UNL     1      51.836   4.564  18.385  0.00  0.00    +0.000 A 
ATOM     25  C   UNL     1      53.030   4.911  18.999  0.00  0.00    +0.000 A 
ATOM     26  S   UNL     1      54.093   3.595  19.216  0.00  0.00    +0.000 S 
ATOM     27  C   UNL     1      53.017   2.528  18.445  0.00  0.00    +0.000 A 
ATOM     28  N   UNL     1      53.325   1.210  18.295  0.00  0.00    +0.000 NA
ATOM     29  C   UNL     1      52.427   0.521  17.671  0.00  0.00    +0.000 A 
ATOM     30  N   UNL     1      51.255   1.030  17.176  0.00  0.00    +0.000 N 
ATOM     31  C   UNL     1      50.899   2.349  17.313  0.00  0.00    +0.000 A 
ATOM     32  O   UNL     1      49.833   2.771  16.873  0.00  0.00    +0.000 OA
ATOM     33  C   UNL     1      51.866   3.168  18.023  0.00  0.00    +0.000 A 
ATOM     34  H   UNL     1      50.595   0.440  16.688  0.00  0.00    +0.000 HD
ENDBRANCH  21  24
ENDBRANCH  19  20
ENDBRANCH   4  19
TORSDOF 8
ENDMDL
MODEL 3
REMARK VINA RESULT:    -7.267      1.703      2.199
REMARK INTER + INTRA:         -11.896
REMARK INTER:                 -10.735
REMARK INTRA:                  -1.161
REMARK UNBOUND:                -1.230
REMARK  Name = 
REMARK  9 active torsions:
REMARK  status: ('A' for Active; 'I' for Inactive)
REMARK    1  A    between atoms: C_1  and  C_2
REMARK    2  A    between atoms: C_2  and  C_3
REMARK    3  A    between atoms: C_3  and  N_4
REMARK    4  A    between atoms: C_3  and  C_26
REMARK    5  A    between atoms: N_4  and  C_5
REMARK    6  A    between atoms: C_5  and  C_6
REMARK    7  A    between atoms: C_9  and  C_10
REMARK    8  A    between atoms: C_10  and  N_11
REMARK    9  A    between atoms: C_12  and  C_14
REMARK                            x       y       z     vdW  Elec       q    Type
REMARK                         _______ _______ _______ _____ _____    ______ ____
ROOT
ATOM      1  C   UNL     1      45.708   6.316  12.236  0.00  0.00    +0.000 A 
ATOM      2  C   UNL     1      46.201   5.527  13.286  0.00  0.00    +0.000 A 
ATOM      3  C   UNL     1      47.432   5.818  13.880  0.00  0.00    +0.000 A 
ATOM      4  C   UNL     1      48.195   6.906  13.435  0.00  0.00    +0.000 A 
ATOM      5  C   UNL     1      47.726   7.665  12.355  0.00  0.00    +0.000 A 
ATOM      6  C   UNL     1      46.494   7.379  11.769  0.00  0.00    +0.000 A 
ENDROOT
BRANCH   1   7
ATOM      7  C   UNL     1      44.394   5.998  11.558  0.00  0.00    +0.000 C 
BRANCH   7   8
ATOM      8  N   UNL     1      44.582   5.549  10.176  0.00  0.00    +0.000 NA
ATOM      9  H   UNL     1      43.924   6.035   9.574  0.00  0.00    +0.000 HD
BRANCH   8  10
ATOM     10  C   UNL     1      44.389   4.090  10.014  0.00  0.00    +0.000 C 
BRANCH  10  11
ATOM     11  C   UNL     1      45.293   3.489   8.928  0.00  0.00    +0.000 A 
ATOM     12  C   UNL     1      45.531   2.113   8.902  0.00  0.00    +0.000 A 
ATOM     13  C   UNL     1      46.330   1.584   7.889  0.00  0.00    +0.000 A 
ATOM     14  C   UNL     1      46.876   2.433   6.935  0.00  0.00    +0.000 A 
ATOM     15  C   UNL     1      46.592   3.782   7.029  0.00  0.00    +0.000 A 
ATOM     16  N   UNL     1      45.816   4.323   7.993  0.00  0.00    +0.000 NA
ENDBRANCH  10  11
BRANCH  10  18
ATOM     17  C   UNL     1      43.227   2.478  11.674  0.00  0.00    +0.000 C 
ATOM     18  C   UNL     1      44.470   3.291  11.341  0.00  0.00    +0.000 C 
ENDBRANCH  10  18
ENDBRANCH   8  10
ENDBRANCH   7   8
ENDBRANCH   1   7
BRANCH   4  19
ATOM     19  C   UNL     1      49.533   7.214  14.049  0.00  0.00    +0.000 C 
BRANCH  19  20
ATOM     20  N   UNL     1      49.406   7.334  15.477  0.00  0.00    +0.000 N 
ATOM     21  C   UNL     1      50.378   6.887  16.331  0.00  0.00    +0.000 C 
ATOM     22  O   UNL     1      51.430   6.400  15.929  0.00  0.00    +0.000 OA
ATOM     23  H   UNL     1      48.470   7.502  15.831  0.00  0.00    +0.000 HD
BRANCH  21  24
ATOM     24  C   UNL     1      50.117   7.095  17.760  0.00  0.00    +0.000 A 
ATOM     25  C   UNL     1      50.970   7.892  18.508  0.00  0.00    +0.000 A 
ATOM     26  S   UNL     1      50.459   8.110  20.121  0.00  0.00    +0.000 S 
ATOM     27  C   UNL     1      49.112   7.100  19.890  0.00  0.00    +0.000 A 
ATOM     28  N   UNL     1      48.236   6.858  20.904  0.00  0.00    +0.000 NA
ATOM     29  C   UNL     1      47.272   6.055  20.594  0.00  0.00    +0.000 A 
ATOM     30  N   UNL     1      47.108   5.465  19.368  0.00  0.00    +0.000 N 
ATOM     31  C   UNL     1      47.961   5.688  18.314  0.00  0.00    +0.000 A 
ATOM     32  O   UNL     1      47.777   5.157  17.222  0.00  0.00    +0.000 OA
ATOM     33  C   UNL     1      49.055   6.598  18.602  0.00  0.00    +0.000 A 
ATOM     34  H   UNL     1      46.337   4.837  19.189  0.00  0.00    +0.000 HD
ENDBRANCH  21  24
ENDBRANCH  19  20
ENDBRANCH   4  19
TORSDOF 8
ENDMDL
MODEL 4
REMARK VINA RESULT:    -7.062      2.866      8.200
REMARK INTER + INTRA:         -11.595
REMARK INTER:                  -9.872
REMARK INTRA:                  -1.723
REMARK UNBOUND:                -1.230
REMARK  Name = 
REMARK  9 active torsions:
REMARK  status: ('A' for Active; 'I' for Inactive)
REMARK    1  A    between atoms: C_1  and  C_2
REMARK    2  A    between atoms: C_2  and  C_3
REMARK    3  A    between atoms: C_3  and  N_4
REMARK    4  A    between atoms: C_3  and  C_26
REMARK    5  A    between atoms: N_4  and  C_5
REMARK    6  A    between atoms: C_5  and  C_6
REMARK    7  A    between atoms: C_9  and  C_10
REMARK    8  A    between atoms: C_10  and  N_11
REMARK    9  A    between atoms: C_12  and  C_14
REMARK                            x       y       z     vdW  Elec       q    Type
REMARK                         _______ _______ _______ _____ _____    ______ ____
ROOT
ATOM      1  C   UNL     1      49.431   8.309  15.840  0.00  0.00    +0.000 A 
ATOM      2  C   UNL     1      50.040   7.453  14.911  0.00  0.00    +0.000 A 
ATOM      3  C   UNL     1      49.532   7.331  13.614  0.00  0.00    +0.000 A 
ATOM      4  C   UNL     1      48.404   8.063  13.222  0.00  0.00    +0.000 A 
ATOM      5  C   UNL     1      47.767   8.881  14.163  0.00  0.00    +0.000 A 
ATOM      6  C   UNL     1      48.280   9.009  15.454  0.00  0.00    +0.000 A 
ENDROOT
BRANCH   1   7
ATOM      7  C   UNL     1      49.945   8.430  17.258  0.00  0.00    +0.000 C 
BRANCH   7   8
ATOM      8  N   UNL     1      50.228   7.123  17.855  0.00  0.00    +0.000 NA
ATOM      9  H   UNL     1      50.677   6.530  17.163  0.00  0.00    +0.000 HD
BRANCH   8  10
ATOM     10  C   UNL     1      49.011   6.440  18.349  0.00  0.00    +0.000 C 
BRANCH  10  11
ATOM     11  C   UNL     1      48.843   5.030  17.763  0.00  0.00    +0.000 A 
ATOM     12  C   UNL     1      47.715   4.723  16.999  0.00  0.00    +0.000 A 
ATOM     13  C   UNL     1      47.597   3.446  16.451  0.00  0.00    +0.000 A 
ATOM     14  C   UNL     1      48.596   2.508  16.681  0.00  0.00    +0.000 A 
ATOM     15  C   UNL     1      49.681   2.891  17.447  0.00  0.00    +0.000 A 
ATOM     16  N   UNL     1      49.827   4.121  17.985  0.00  0.00    +0.000 NA
ENDBRANCH  10  11
BRANCH  10  18
ATOM     17  C   UNL     1      47.470   6.124  20.405  0.00  0.00    +0.000 C 
ATOM     18  C   UNL     1      48.867   6.445  19.894  0.00  0.00    +0.000 C 
ENDBRANCH  10  18
ENDBRANCH   8  10
ENDBRANCH   7   8
ENDBRANCH   1   7
BRANCH   4  19
ATOM     19  C   UNL     1      47.833   7.921  11.837  0.00  0.00    +0.000 C 
BRANCH  19  20
ATOM     20  N   UNL     1      47.092   6.693  11.731  0.00  0.00    +0.000 N 
ATOM     21  C   UNL     1      45.725   6.665  11.787  0.00  0.00    +0.000 C 
ATOM     22  O   UNL     1      45.052   7.686  11.887  0.00  0.00    +0.000 OA
ATOM     23  H   UNL     1      47.616   5.838  11.891  0.00  0.00    +0.000 HD
BRANCH  21  24
ATOM     24  C   UNL     1      45.108   5.341  11.645  0.00  0.00    +0.000 A 
ATOM     25  C   UNL     1      44.472   4.756  12.731  0.00  0.00    +0.000 A 
ATOM     26  S   UNL     1      43.720   3.271  12.360  0.00  0.00    +0.000 S 
ATOM     27  C   UNL     1      44.266   3.331  10.752  0.00  0.00    +0.000 A 
ATOM     28  N   UNL     1      43.962   2.338   9.871  0.00  0.00    +0.000 NA
ATOM     29  C   UNL     1      44.462   2.501   8.691  0.00  0.00    +0.000 A 
ATOM     30  N   UNL     1      45.245   3.561   8.312  0.00  0.00    +0.000 N 
ATOM     31  C   UNL     1      45.568   4.590   9.164  0.00  0.00    +0.000 A 
ATOM     32  O   UNL     1      46.258   5.534   8.789  0.00  0.00    +0.000 OA
ATOM     33  C   UNL     1      45.017   4.465  10.502  0.00  0.00    +0.000 A 
ATOM     34  H   UNL     1      45.614   3.629   7.375  0.00  0.00    +0.000 HD
ENDBRANCH  21  24
ENDBRANCH  19  20
ENDBRANCH   4  19
TORSDOF 8
ENDMDL
MODEL 5
REMARK VINA RESULT:    -6.541      2.454      2.760
REMARK INTER + INTRA:         -10.830
REMARK INTER:                  -9.625
REMARK INTRA:                  -1.204
REMARK UNBOUND:                -1.230
REMARK  Name = 
REMARK  9 active torsions:
REMARK  status: ('A' for Active; 'I' for Inactive)
REMARK    1  A    between atoms: C_1  and  C_2
REMARK    2  A    between atoms: C_2  and  C_3
REMARK    3  A    between atoms: C_3  and  N_4
REMARK    4  A    between atoms: C_3  and  C_26
REMARK    5  A    between atoms: N_4  and  C_5
REMARK    6  A    between atoms: C_5  and  C_6
REMARK    7  A    between atoms: C_9  and  C_10
REMARK    8  A    between atoms: C_10  and  N_11
REMARK    9  A    between atoms: C_12  and  C_14
REMARK                            x       y       z     vdW  Elec       q    Type
REMARK                         _______ _______ _______ _____ _____    ______ ____
ROOT
ATOM      1  C   UNL     1      45.100   6.604  11.712  0.00  0.00    +0.000 A 
ATOM      2  C   UNL     1      46.409   6.227  11.380  0.00  0.00    +0.000 A 
ATOM      3  C   UNL     1      47.503   6.952  11.859  0.00  0.00    +0.000 A 
ATOM      4  C   UNL     1      47.309   8.070  12.682  0.00  0.00    +0.000 A 
ATOM      5  C   UNL     1      46.001   8.475  12.975  0.00  0.00    +0.000 A 
ATOM      6  C   UNL     1      44.910   7.746  12.503  0.00  0.00    +0.000 A 
ENDROOT
BRANCH   1   7
ATOM      7  C   UNL     1      43.900   5.853  11.177  0.00  0.00    +0.000 C 
BRANCH   7   8
ATOM      8  N   UNL     1      44.162   5.264   9.862  0.00  0.00    +0.000 NA
ATOM      9  H   UNL     1      43.422   5.535   9.221  0.00  0.00    +0.000 HD
BRANCH   8  10
ATOM     10  C   UNL     1      44.241   3.786   9.899  0.00  0.00    +0.000 C 
BRANCH  10  11
ATOM     11  C   UNL     1      45.234   3.219   8.873  0.00  0.00    +0.000 A 
ATOM     12  C   UNL     1      45.870   4.076   7.972  0.00  0.00    +0.000 A 
ATOM     13  C   UNL     1      46.791   3.546   7.069  0.00  0.00    +0.000 A 
ATOM     14  C   UNL     1      47.049   2.181   7.079  0.00  0.00    +0.000 A 
ATOM     15  C   UNL     1      46.379   1.400   8.002  0.00  0.00    +0.000 A 
ATOM     16  N   UNL     1      45.488   1.886   8.893  0.00  0.00    +0.000 NA
ENDBRANCH  10  11
BRANCH  10  18
ATOM     17  C   UNL     1      43.336   2.354  11.856  0.00  0.00    +0.000 C 
ATOM     18  C   UNL     1      44.479   3.202  11.316  0.00  0.00    +0.000 C 
ENDBRANCH  10  18
ENDBRANCH   8  10
ENDBRANCH   7   8
ENDBRANCH   1   7
BRANCH   4  19
ATOM     19  C   UNL     1      48.478   8.873  13.183  0.00  0.00    +0.000 C 
BRANCH  19  20
ATOM     20  N   UNL     1      48.948   8.336  14.431  0.00  0.00    +0.000 N 
ATOM     21  C   UNL     1      50.274   8.341  14.769  0.00  0.00    +0.000 C 
ATOM     22  O   UNL     1      51.133   8.842  14.048  0.00  0.00    +0.000 OA
ATOM     23  H   UNL     1      48.312   7.715  14.920  0.00  0.00    +0.000 HD
BRANCH  21  24
ATOM     24  C   UNL     1      50.601   7.777  16.083  0.00  0.00    +0.000 A 
ATOM     25  C   UNL     1      51.518   6.741  16.180  0.00  0.00    +0.000 A 
ATOM     26  S   UNL     1      51.858   6.280  17.788  0.00  0.00    +0.000 S 
ATOM     27  C   UNL     1      50.749   7.410  18.405  0.00  0.00    +0.000 A 
ATOM     28  N   UNL     1      50.551   7.536  19.746  0.00  0.00    +0.000 NA
ATOM     29  C   UNL     1      49.663   8.416  20.073  0.00  0.00    +0.000 A 
ATOM     30  N   UNL     1      48.948   9.175  19.183  0.00  0.00    +0.000 N 
ATOM     31  C   UNL     1      49.123   9.089  17.823  0.00  0.00    +0.000 A 
ATOM     32  O   UNL     1      48.479   9.795  17.052  0.00  0.00    +0.000 OA
ATOM     33  C   UNL     1      50.123   8.124  17.400  0.00  0.00    +0.000 A 
ATOM     34  H   UNL     1      48.260   9.842  19.501  0.00  0.00    +0.000 HD
ENDBRANCH  21  24
ENDBRANCH  19  20
ENDBRANCH   4  19
TORSDOF 8
ENDMDL
MODEL 6
REMARK VINA RESULT:    -6.254      5.206      7.857
REMARK INTER + INTRA:         -10.409
REMARK INTER:                  -9.145
REMARK INTRA:                  -1.264
REMARK UNBOUND:                -1.230
REMARK  Name = 
REMARK  9 active torsions:
REMARK  status: ('A' for Active; 'I' for Inactive)
REMARK    1  A    between atoms: C_1  and  C_2
REMARK    2  A    between atoms: C_2  and  C_3
REMARK    3  A    between atoms: C_3  and  N_4
REMARK    4  A    between atoms: C_3  and  C_26
REMARK    5  A    between atoms: N_4  and  C_5
REMARK    6  A    between atoms: C_5  and  C_6
REMARK    7  A    between atoms: C_9  and  C_10
REMARK    8  A    between atoms: C_10  and  N_11
REMARK    9  A    between atoms: C_12  and  C_14
REMARK                            x       y       z     vdW  Elec       q    Type
REMARK                         _______ _______ _______ _____ _____    ______ ____
ROOT
ATOM      1  C   UNL     1      50.230   9.131  11.329  0.00  0.00    +0.000 A 
ATOM      2  C   UNL     1      49.857   7.825  11.679  0.00  0.00    +0.000 A 
ATOM      3  C   UNL     1      48.584   7.559  12.190  0.00  0.00    +0.000 A 
ATOM      4  C   UNL     1      47.657   8.596  12.360  0.00  0.00    +0.000 A 
ATOM      5  C   UNL     1      48.044   9.907  12.056  0.00  0.00    +0.000 A 
ATOM      6  C   UNL     1      49.312  10.170  11.538  0.00  0.00    +0.000 A 
ENDROOT
BRANCH   1   7
ATOM      7  C   UNL     1      51.614   9.446  10.806  0.00  0.00    +0.000 C 
BRANCH   7   8
ATOM      8  N   UNL     1      52.540   8.326  10.991  0.00  0.00    +0.000 NA
ATOM      9  H   UNL     1      52.939   8.373  11.924  0.00  0.00    +0.000 HD
BRANCH   8  10
ATOM     10  C   UNL     1      53.641   8.320  10.002  0.00  0.00    +0.000 C 
BRANCH  10  11
ATOM     11  C   UNL     1      53.564   7.129   9.035  0.00  0.00    +0.000 A 
ATOM     12  C   UNL     1      52.535   7.061   8.094  0.00  0.00    +0.000 A 
ATOM     13  C   UNL     1      52.501   5.987   7.206  0.00  0.00    +0.000 A 
ATOM     14  C   UNL     1      53.483   5.007   7.280  0.00  0.00    +0.000 A 
ATOM     15  C   UNL     1      54.468   5.147   8.239  0.00  0.00    +0.000 A 
ATOM     16  N   UNL     1      54.532   6.179   9.108  0.00  0.00    +0.000 NA
ENDBRANCH  10  11
BRANCH  10  18
ATOM     17  C   UNL     1      55.232   9.930   8.745  0.00  0.00    +0.000 C 
ATOM     18  C   UNL     1      53.820   9.665   9.249  0.00  0.00    +0.000 C 
ENDBRANCH  10  18
ENDBRANCH   8  10
ENDBRANCH   7   8
ENDBRANCH   1   7
BRANCH   4  19
ATOM     19  C   UNL     1      46.292   8.326  12.932  0.00  0.00    +0.000 C 
BRANCH  19  20
ATOM     20  N   UNL     1      45.886   6.980  12.629  0.00  0.00    +0.000 N 
ATOM     21  C   UNL     1      44.838   6.712  11.790  0.00  0.00    +0.000 C 
ATOM     22  O   UNL     1      44.213   7.598  11.216  0.00  0.00    +0.000 OA
ATOM     23  H   UNL     1      46.215   6.259  13.261  0.00  0.00    +0.000 HD
BRANCH  21  24
ATOM     24  C   UNL     1      44.552   5.291  11.560  0.00  0.00    +0.000 A 
ATOM     25  C   UNL     1      43.872   4.559  12.523  0.00  0.00    +0.000 A 
ATOM     26  S   UNL     1      43.532   2.957  12.046  0.00  0.00    +0.000 S 
ATOM     27  C   UNL     1      44.333   3.169  10.562  0.00  0.00    +0.000 A 
ATOM     28  N   UNL     1      44.410   2.155   9.656  0.00  0.00    +0.000 NA
ATOM     29  C   UNL     1      45.067   2.448   8.583  0.00  0.00    +0.000 A 
ATOM     30  N   UNL     1      45.661   3.659   8.335  0.00  0.00    +0.000 N 
ATOM     31  C   UNL     1      45.599   4.712   9.215  0.00  0.00    +0.000 A 
ATOM     32  O   UNL     1      46.128   5.790   8.956  0.00  0.00    +0.000 OA
ATOM     33  C   UNL     1      44.857   4.442  10.433  0.00  0.00    +0.000 A 
ATOM     34  H   UNL     1      46.169   3.825   7.478  0.00  0.00    +0.000 HD
ENDBRANCH  21  24
ENDBRANCH  19  20
ENDBRANCH   4  19
TORSDOF 8
ENDMDL
MODEL 7
REMARK VINA RESULT:    -6.147      3.239      8.917
REMARK INTER + INTRA:         -10.251
REMARK INTER:                  -8.845
REMARK INTRA:                  -1.406
REMARK UNBOUND:                -1.230
REMARK  Name = 
REMARK  9 active torsions:
REMARK  status: ('A' for Active; 'I' for Inactive)
REMARK    1  A    between atoms: C_1  and  C_2
REMARK    2  A    between atoms: C_2  and  C_3
REMARK    3  A    between atoms: C_3  and  N_4
REMARK    4  A    between atoms: C_3  and  C_26
REMARK    5  A    between atoms: N_4  and  C_5
REMARK    6  A    between atoms: C_5  and  C_6
REMARK    7  A    between atoms: C_9  and  C_10
REMARK    8  A    between atoms: C_10  and  N_11
REMARK    9  A    between atoms: C_12  and  C_14
REMARK                            x       y       z     vdW  Elec       q    Type
REMARK                         _______ _______ _______ _____ _____    ______ ____
ROOT
ATOM      1  C   UNL     1      48.363   7.308  13.972  0.00  0.00    +0.000 A 
ATOM      2  C   UNL     1      47.495   6.220  14.150  0.00  0.00    +0.000 A 
ATOM      3  C   UNL     1      46.522   5.920  13.192  0.00  0.00    +0.000 A 
ATOM      4  C   UNL     1      46.398   6.702  12.037  0.00  0.00    +0.000 A 
ATOM      5  C   UNL     1      47.232   7.817  11.881  0.00  0.00    +0.000 A 
ATOM      6  C   UNL     1      48.208   8.111  12.833  0.00  0.00    +0.000 A 
ENDROOT
BRANCH   1   7
ATOM      7  C   UNL     1      49.400   7.671  15.012  0.00  0.00    +0.000 C 
BRANCH   7   8
ATOM      8  N   UNL     1      48.927   7.415  16.374  0.00  0.00    +0.000 NA
ATOM      9  H   UNL     1      48.913   8.288  16.893  0.00  0.00    +0.000 HD
BRANCH   8  10
ATOM     10  C   UNL     1      49.773   6.443  17.103  0.00  0.00    +0.000 C 
BRANCH  10  11
ATOM     11  C   UNL     1      49.133   5.049  17.191  0.00  0.00    +0.000 A 
ATOM     12  C   UNL     1      47.754   4.926  17.379  0.00  0.00    +0.000 A 
ATOM     13  C   UNL     1      47.189   3.651  17.425  0.00  0.00    +0.000 A 
ATOM     14  C   UNL     1      48.007   2.536  17.292  0.00  0.00    +0.000 A 
ATOM     15  C   UNL     1      49.361   2.742  17.109  0.00  0.00    +0.000 A 
ATOM     16  N   UNL     1      49.936   3.963  17.052  0.00  0.00    +0.000 NA
ENDBRANCH  10  11
BRANCH  10  18
ATOM     17  C   UNL     1      52.272   6.937  17.561  0.00  0.00    +0.000 C 
ATOM     18  C   UNL     1      51.237   6.375  16.597  0.00  0.00    +0.000 C 
ENDBRANCH  10  18
ENDBRANCH   8  10
ENDBRANCH   7   8
ENDBRANCH   1   7
BRANCH   4  19
ATOM     19  C   UNL     1      45.339   6.404  11.012  0.00  0.00    +0.000 C 
BRANCH  19  20
ATOM     20  N   UNL     1      45.632   5.165  10.343  0.00  0.00    +0.000 N 
ATOM     21  C   UNL     1      44.656   4.415   9.744  0.00  0.00    +0.000 C 
ATOM     22  O   UNL     1      43.484   4.777   9.704  0.00  0.00    +0.000 OA
ATOM     23  H   UNL     1      46.524   4.735  10.567  0.00  0.00    +0.000 HD
BRANCH  21  24
ATOM     24  C   UNL     1      45.109   3.185   9.085  0.00  0.00    +0.000 A 
ATOM     25  C   UNL     1      44.539   1.969   9.428  0.00  0.00    +0.000 A 
ATOM     26  S   UNL     1      45.107   0.661   8.490  0.00  0.00    +0.000 S 
ATOM     27  C   UNL     1      46.177   1.668   7.634  0.00  0.00    +0.000 A 
ATOM     28  N   UNL     1      46.981   1.164   6.658  0.00  0.00    +0.000 NA
ATOM     29  C   UNL     1      47.759   2.037   6.107  0.00  0.00    +0.000 A 
ATOM     30  N   UNL     1      47.814   3.363   6.449  0.00  0.00    +0.000 N 
ATOM     31  C   UNL     1      47.014   3.915   7.420  0.00  0.00    +0.000 A 
ATOM     32  O   UNL     1      47.075   5.111   7.691  0.00  0.00    +0.000 OA
ATOM     33  C   UNL     1      46.107   2.981   8.062  0.00  0.00    +0.000 A 
ATOM     34  H   UNL     1      48.451   3.996   5.986  0.00  0.00    +0.000 HD
ENDBRANCH  21  24
ENDBRANCH  19  20
ENDBRANCH   4  19
TORSDOF 8
ENDMDL
MODEL 8
REMARK VINA RESULT:    -6.095      3.381      5.947
REMARK INTER + INTRA:         -10.176
REMARK INTER:                  -8.594
REMARK INTRA:                  -1.582
REMARK UNBOUND:                -1.230
REMARK  Name = 
REMARK  9 active torsions:
REMARK  status: ('A' for Active; 'I' for Inactive)
REMARK    1  A    between atoms: C_1  and  C_2
REMARK    2  A    between atoms: C_2  and  C_3
REMARK    3  A    between atoms: C_3  and  N_4
REMARK    4  A    between atoms: C_3  and  C_26
REMARK    5  A    between atoms: N_4  and  C_5
REMARK    6  A    between atoms: C_5  and  C_6
REMARK    7  A    between atoms: C_9  and  C_10
REMARK    8  A    between atoms: C_10  and  N_11
REMARK    9  A    between atoms: C_12  and  C_14
REMARK                            x       y       z     vdW  Elec       q    Type
REMARK                         _______ _______ _______ _____ _____    ______ ____
ROOT
ATOM      1  C   UNL     1      47.371   4.744  15.190  0.00  0.00    +0.000 A 
ATOM      2  C   UNL     1      47.164   3.708  16.112  0.00  0.00    +0.000 A 
ATOM      3  C   UNL     1      47.725   3.769  17.391  0.00  0.00    +0.000 A 
ATOM      4  C   UNL     1      48.505   4.869  17.772  0.00  0.00    +0.000 A 
ATOM      5  C   UNL     1      48.751   5.881  16.836  0.00  0.00    +0.000 A 
ATOM      6  C   UNL     1      48.184   5.823  15.563  0.00  0.00    +0.000 A 
ENDROOT
BRANCH   1   7
ATOM      7  C   UNL     1      46.801   4.683  13.790  0.00  0.00    +0.000 C 
BRANCH   7   8
ATOM      8  N   UNL     1      45.643   5.565  13.627  0.00  0.00    +0.000 NA
ATOM      9  H   UNL     1      44.802   5.001  13.542  0.00  0.00    +0.000 HD
BRANCH   8  10
ATOM     10  C   UNL     1      45.751   6.442  12.439  0.00  0.00    +0.000 C 
BRANCH  10  11
ATOM     11  C   UNL     1      46.926   7.426  12.533  0.00  0.00    +0.000 A 
ATOM     12  C   UNL     1      48.011   7.300  11.662  0.00  0.00    +0.000 A 
ATOM     13  C   UNL     1      49.054   8.223  11.743  0.00  0.00    +0.000 A 
ATOM     14  C   UNL     1      48.996   9.238  12.690  0.00  0.00    +0.000 A 
ATOM     15  C   UNL     1      47.888   9.294  13.515  0.00  0.00    +0.000 A 
ATOM     16  N   UNL     1      46.860   8.420  13.454  0.00  0.00    +0.000 NA
ENDBRANCH  10  11
BRANCH  10  18
ATOM     17  C   UNL     1      44.414   5.024  10.734  0.00  0.00    +0.000 C 
ATOM     18  C   UNL     1      45.742   5.679  11.088  0.00  0.00    +0.000 C 
ENDBRANCH  10  18
ENDBRANCH   8  10
ENDBRANCH   7   8
ENDBRANCH   1   7
BRANCH   4  19
ATOM     19  C   UNL     1      49.134   4.934  19.137  0.00  0.00    +0.000 C 
BRANCH  19  20
ATOM     20  N   UNL     1      50.337   4.147  19.165  0.00  0.00    +0.000 N 
ATOM     21  C   UNL     1      51.566   4.694  18.915  0.00  0.00    +0.000 C 
ATOM     22  O   UNL     1      51.719   5.892  18.696  0.00  0.00    +0.000 OA
ATOM     23  H   UNL     1      50.217   3.141  19.102  0.00  0.00    +0.000 HD
BRANCH  21  24
ATOM     24  C   UNL     1      52.705   3.772  18.998  0.00  0.00    +0.000 A 
ATOM     25  C   UNL     1      53.846   4.146  19.691  0.00  0.00    +0.000 A 
ATOM     26  S   UNL     1      55.025   2.915  19.777  0.00  0.00    +0.000 S 
ATOM     27  C   UNL     1      54.074   1.862  18.842  0.00  0.00    +0.000 A 
ATOM     28  N   UNL     1      54.510   0.608  18.538  0.00  0.00    +0.000 NA
ATOM     29  C   UNL     1      53.696  -0.075  17.802  0.00  0.00    +0.000 A 
ATOM     30  N   UNL     1      52.492   0.383  17.334  0.00  0.00    +0.000 N 
ATOM     31  C   UNL     1      52.008   1.636  17.624  0.00  0.00    +0.000 A 
ATOM     32  O   UNL     1      50.917   2.011  17.204  0.00  0.00    +0.000 OA
ATOM     33  C   UNL     1      52.877   2.442  18.464  0.00  0.00    +0.000 A 
ATOM     34  H   UNL     1      51.903  -0.197  16.754  0.00  0.00    +0.000 HD
ENDBRANCH  21  24
ENDBRANCH  19  20
ENDBRANCH   4  19
TORSDOF 8
ENDMDL
MODEL 9
REMARK VINA RESULT:    -6.088      1.805      2.752
REMARK INTER + INTRA:         -10.165
REMARK INTER:                  -8.839
REMARK INTRA:                  -1.326
REMARK UNBOUND:                -1.230
REMARK  Name = 
REMARK  9 active torsions:
REMARK  status: ('A' for Active; 'I' for Inactive)
REMARK    1  A    between atoms: C_1  and  C_2
REMARK    2  A    between atoms: C_2  and  C_3
REMARK    3  A    between atoms: C_3  and  N_4
REMARK    4  A    between atoms: C_3  and  C_26
REMARK    5  A    between atoms: N_4  and  C_5
REMARK    6  A    between atoms: C_5  and  C_6
REMARK    7  A    between atoms: C_9  and  C_10
REMARK    8  A    between atoms: C_10  and  N_11
REMARK    9  A    between atoms: C_12  and  C_14
REMARK                            x       y       z     vdW  Elec       q    Type
REMARK                         _______ _______ _______ _____ _____    ______ ____
ROOT
ATOM      1  C   UNL     1      47.346   7.365  12.512  0.00  0.00    +0.000 A 
ATOM      2  C   UNL     1      48.558   7.369  11.807  0.00  0.00    +0.000 A 
ATOM      3  C   UNL     1      49.771   7.555  12.476  0.00  0.00    +0.000 A 
ATOM      4  C   UNL     1      49.795   7.741  13.865  0.00  0.00    +0.000 A 
ATOM      5  C   UNL     1      48.582   7.785  14.562  0.00  0.00    +0.000 A 
ATOM      6  C   UNL     1      47.372   7.590  13.895  0.00  0.00    +0.000 A 
ENDROOT
BRANCH   1   7
ATOM      7  C   UNL     1      46.019   7.199  11.803  0.00  0.00    +0.000 C 
BRANCH   7   8
ATOM      8  N   UNL     1      46.135   6.357  10.609  0.00  0.00    +0.000 NA
ATOM      9  H   UNL     1      46.220   6.951   9.789  0.00  0.00    +0.000 HD
BRANCH   8  10
ATOM     10  C   UNL     1      44.974   5.457  10.427  0.00  0.00    +0.000 C 
BRANCH  10  11
ATOM     11  C   UNL     1      45.281   4.276   9.493  0.00  0.00    +0.000 A 
ATOM     12  C   UNL     1      44.921   2.980   9.866  0.00  0.00    +0.000 A 
ATOM     13  C   UNL     1      45.181   1.927   8.990  0.00  0.00    +0.000 A 
ATOM     14  C   UNL     1      45.797   2.186   7.773  0.00  0.00    +0.000 A 
ATOM     15  C   UNL     1      46.122   3.497   7.477  0.00  0.00    +0.000 A 
ATOM     16  N   UNL     1      45.876   4.538   8.300  0.00  0.00    +0.000 NA
ENDBRANCH  10  11
BRANCH  10  18
ATOM     17  C   UNL     1      42.816   5.188  11.830  0.00  0.00    +0.000 C 
ATOM     18  C   UNL     1      44.323   4.988  11.754  0.00  0.00    +0.000 C 
ENDBRANCH  10  18
ENDBRANCH   8  10
ENDBRANCH   7   8
ENDBRANCH   1   7
BRANCH   4  19
ATOM     19  C   UNL     1      51.092   7.967  14.592  0.00  0.00    +0.000 C 
BRANCH  19  20
ATOM     20  N   UNL     1      50.994   7.481  15.941  0.00  0.00    +0.000 N 
ATOM     21  C   UNL     1      51.952   6.672  16.492  0.00  0.00    +0.000 C 
ATOM     22  O   UNL     1      52.968   6.352  15.883  0.00  0.00    +0.000 OA
ATOM     23  H   UNL     1      50.075   7.527  16.369  0.00  0.00    +0.000 HD
BRANCH  21  24
ATOM     24  C   UNL     1      51.726   6.271  17.885  0.00  0.00    +0.000 A 
ATOM     25  C   UNL     1      52.670   6.577  18.853  0.00  0.00    +0.000 A 
ATOM     26  S   UNL     1      52.198   6.132  20.431  0.00  0.00    +0.000 S 
ATOM     27  C   UNL     1      50.741   5.463  19.866  0.00  0.00    +0.000 A 
ATOM     28  N   UNL     1      49.849   4.899  20.727  0.00  0.00    +0.000 NA
ATOM     29  C   UNL     1      48.797   4.409  20.158  0.00  0.00    +0.000 A 
ATOM     30  N   UNL     1      48.558   4.424  18.808  0.00  0.00    +0.000 N 
ATOM     31  C   UNL     1      49.425   4.990  17.905  0.00  0.00    +0.000 A 
ATOM     32  O   UNL     1      49.174   5.002  16.703  0.00  0.00    +0.000 OA
ATOM     33  C   UNL     1      50.619   5.571  18.493  0.00  0.00    +0.000 A 
ATOM     34  H   UNL     1      47.719   4.016  18.422  0.00  0.00    +0.000 HD
ENDBRANCH  21  24
ENDBRANCH  19  20
ENDBRANCH   4  19
TORSDOF 8
ENDMDL
