MODEL 1
REMARK VINA RESULT:    -9.083      0.000      0.000
REMARK INTER + INTRA:         -12.119
REMARK INTER:                 -11.208
REMARK INTRA:                  -0.911
REMARK UNBOUND:                -0.911
REMARK  Name = 
REMARK  4 active torsions:
REMARK  status: ('A' for Active; 'I' for Inactive)
REMARK    1  A    between atoms: C_2  and  C_4
REMARK    2  A    between atoms: N_8  and  C_9
REMARK    3  A    between atoms: C_9  and  C_10
REMARK    4  A    between atoms: C_14  and  C_15
REMARK                            x       y       z     vdW  Elec       q    Type
REMARK                         _______ _______ _______ _____ _____    ______ ____
ROOT
ATOM      1  C   UNL     1      46.408   2.261   7.634  0.00  0.00    +0.000 A 
ATOM      2  C   UNL     1      45.708   1.826   8.755  0.00  0.00    +0.000 A 
ATOM      3  C   UNL     1      44.880   2.722   9.436  0.00  0.00    +0.000 A 
ATOM      4  C   UNL     1      44.766   4.037   8.992  0.00  0.00    +0.000 A 
ATOM      5  N   UNL     1      43.898   4.953   9.543  0.00  0.00    +0.000 N 
ATOM      6  N   UNL     1      45.458   4.474   7.919  0.00  0.00    +0.000 NA
ATOM      7  C   UNL     1      46.269   3.591   7.272  0.00  0.00    +0.000 A 
ATOM      8  H   UNL     1      44.045   5.856   9.100  0.00  0.00    +0.000 HD
ENDROOT
BRANCH   1  10
ATOM      9  N   UNL     1      48.302   1.939   6.155  0.00  0.00    +0.000 N 
ATOM     10  C   UNL     1      47.251   1.366   6.819  0.00  0.00    +0.000 C 
ATOM     11  O   UNL     1      47.044   0.160   6.766  0.00  0.00    +0.000 OA
ATOM     12  H   UNL     1      48.939   1.305   5.688  0.00  0.00    +0.000 HD
ATOM     13  H   UNL     1      48.651   2.860   6.379  0.00  0.00    +0.000 HD
ENDBRANCH   1  10
BRANCH   5  14
ATOM     14  C   UNL     1      43.603   5.001  10.962  0.00  0.00    +0.000 C 
BRANCH  14  15
ATOM     15  C   UNL     1      44.791   5.253  11.868  0.00  0.00    +0.000 A 
ATOM     16  C   UNL     1      45.070   4.318  12.875  0.00  0.00    +0.000 A 
ATOM     17  C   UNL     1      46.151   4.498  13.736  0.00  0.00    +0.000 A 
ATOM     18  C   UNL     1      46.982   5.611  13.590  0.00  0.00    +0.000 A 
ATOM     19  C   UNL     1      46.766   6.555  12.572  0.00  0.00    +0.000 A 
ATOM     20  C   UNL     1      45.643   6.363  11.740  0.00  0.00    +0.000 A 
BRANCH  19  21
ATOM     21  C   UNL     1      47.721   7.656  12.306  0.00  0.00    +0.000 A 
ATOM     22  C   UNL     1      49.089   7.391  12.102  0.00  0.00    +0.000 A 
ATOM     23  C   UNL     1      49.983   8.399  11.732  0.00  0.00    +0.000 A 
ATOM     24  C   UNL     1      49.528   9.701  11.554  0.00  0.00    +0.000 A 
ATOM     25  C   UNL     1      48.188   9.999  11.773  0.00  0.00    +0.000 A 
ATOM     26  C   UNL     1      47.298   8.990  12.157  0.00  0.00    +0.000 A 
ENDBRANCH  19  21
ENDBRANCH  14  15
ENDBRANCH   5  14
TORSDOF 4
ENDMDL
MODEL 2
REMARK VINA RESULT:    -8.246      1.778      3.522
REMARK INTER + INTRA:         -11.085
REMARK INTER:                 -10.244
REMARK INTRA:                  -0.841
REMARK UNBOUND:                -0.911
REMARK  Name = 
REMARK  4 active torsions:
REMARK  status: ('A' for Active; 'I' for Inactive)
REMARK    1  A    between atoms: C_2  and  C_4
REMARK    2  A    between atoms: N_8  and  C_9
REMARK    3  A    between atoms: C_9  and  C_10
REMARK    4  A    between atoms: C_14  and  C_15
REMARK                            x       y       z     vdW  Elec       q    Type
REMARK                         _______ _______ _______ _____ _____    ______ ____
ROOT
ATOM      1  C   UNL     1      46.542   2.424   7.539  0.00  0.00    +0.000 A 
ATOM      2  C   UNL     1      45.953   1.967   8.713  0.00  0.00    +0.000 A 
ATOM      3  C   UNL     1      45.252   2.864   9.523  0.00  0.00    +0.000 A 
ATOM      4  C   UNL     1      45.154   4.204   9.152  0.00  0.00    +0.000 A 
ATOM      5  N   UNL     1      44.400   5.129   9.839  0.00  0.00    +0.000 N 
ATOM      6  N   UNL     1      45.741   4.661   8.027  0.00  0.00    +0.000 NA
ATOM      7  C   UNL     1      46.428   3.776   7.253  0.00  0.00    +0.000 A 
ATOM      8  H   UNL     1      44.540   6.045   9.421  0.00  0.00    +0.000 HD
ENDROOT
BRANCH   1  10
ATOM      9  N   UNL     1      48.234   2.093   5.834  0.00  0.00    +0.000 N 
ATOM     10  C   UNL     1      47.243   1.535   6.594  0.00  0.00    +0.000 C 
ATOM     11  O   UNL     1      46.976   0.341   6.518  0.00  0.00    +0.000 OA
ATOM     12  H   UNL     1      48.782   1.456   5.269  0.00  0.00    +0.000 HD
ATOM     13  H   UNL     1      48.648   2.989   6.053  0.00  0.00    +0.000 HD
ENDBRANCH   1  10
BRANCH   5  14
ATOM     14  C   UNL     1      44.270   5.120  11.284  0.00  0.00    +0.000 C 
BRANCH  14  15
ATOM     15  C   UNL     1      45.454   5.674  12.049  0.00  0.00    +0.000 A 
ATOM     16  C   UNL     1      46.008   6.892  11.627  0.00  0.00    +0.000 A 
ATOM     17  C   UNL     1      47.097   7.449  12.294  0.00  0.00    +0.000 A 
ATOM     18  C   UNL     1      47.639   6.804  13.408  0.00  0.00    +0.000 A 
ATOM     19  C   UNL     1      47.094   5.603  13.891  0.00  0.00    +0.000 A 
ATOM     20  C   UNL     1      46.015   5.046  13.173  0.00  0.00    +0.000 A 
BRANCH  19  21
ATOM     21  C   UNL     1      47.556   4.984  15.156  0.00  0.00    +0.000 A 
ATOM     22  C   UNL     1      47.359   3.612  15.402  0.00  0.00    +0.000 A 
ATOM     23  C   UNL     1      47.892   2.987  16.533  0.00  0.00    +0.000 A 
ATOM     24  C   UNL     1      48.641   3.722  17.446  0.00  0.00    +0.000 A 
ATOM     25  C   UNL     1      48.832   5.084  17.243  0.00  0.00    +0.000 A 
ATOM     26  C   UNL     1      48.285   5.709  16.118  0.00  0.00    +0.000 A 
ENDBRANCH  19  21
ENDBRANCH  14  15
ENDBRANCH   5  14
TORSDOF 4
ENDMDL
MODEL 3
REMARK VINA RESULT:    -7.885      3.544      6.997
REMARK INTER + INTRA:         -10.640
REMARK INTER:                  -9.966
REMARK INTRA:                  -0.674
REMARK UNBOUND:                -0.911
REMARK  Name = 
REMARK  4 active torsions:
REMARK  status: ('A' for Active; 'I' for Inactive)
REMARK    1  A    between atoms: C_2  and  C_4
REMARK    2  A    between atoms: N_8  and  C_9
REMARK    3  A    between atoms: C_9  and  C_10
REMARK    4  A    between atoms: C_14  and  C_15
REMARK                            x       y       z     vdW  Elec       q    Type
REMARK                         _______ _______ _______ _____ _____    ______ ____
ROOT
ATOM      1  C   UNL     1      48.232   6.987  14.233  0.00  0.00    +0.000 A 
ATOM      2  C   UNL     1      47.479   5.851  13.953  0.00  0.00    +0.000 A 
ATOM      3  C   UNL     1      46.419   5.937  13.047  0.00  0.00    +0.000 A 
ATOM      4  C   UNL     1      46.123   7.155  12.439  0.00  0.00    +0.000 A 
ATOM      5  N   UNL     1      45.162   7.304  11.463  0.00  0.00    +0.000 N 
ATOM      6  N   UNL     1      46.832   8.267  12.722  0.00  0.00    +0.000 NA
ATOM      7  C   UNL     1      47.856   8.168  13.614  0.00  0.00    +0.000 A 
ATOM      8  H   UNL     1      45.082   8.289  11.226  0.00  0.00    +0.000 HD
ENDROOT
BRANCH   1  10
ATOM      9  N   UNL     1      50.591   7.410  14.599  0.00  0.00    +0.000 N 
ATOM     10  C   UNL     1      49.407   6.970  15.125  0.00  0.00    +0.000 C 
ATOM     11  O   UNL     1      49.320   6.614  16.294  0.00  0.00    +0.000 OA
ATOM     12  H   UNL     1      51.365   7.499  15.246  0.00  0.00    +0.000 HD
ATOM     13  H   UNL     1      50.642   7.944  13.743  0.00  0.00    +0.000 HD
ENDBRANCH   1  10
BRANCH   5  14
ATOM     14  C   UNL     1      43.914   6.564  11.470  0.00  0.00    +0.000 C 
BRANCH  14  15
ATOM     15  C   UNL     1      44.022   5.099  11.100  0.00  0.00    +0.000 A 
ATOM     16  C   UNL     1      43.268   4.171  11.835  0.00  0.00    +0.000 A 
ATOM     17  C   UNL     1      43.327   2.811  11.538  0.00  0.00    +0.000 A 
ATOM     18  C   UNL     1      44.128   2.359  10.487  0.00  0.00    +0.000 A 
ATOM     19  C   UNL     1      44.870   3.254   9.699  0.00  0.00    +0.000 A 
ATOM     20  C   UNL     1      44.817   4.620  10.047  0.00  0.00    +0.000 A 
BRANCH  19  21
ATOM     21  C   UNL     1      45.603   2.812   8.489  0.00  0.00    +0.000 A 
ATOM     22  C   UNL     1      45.923   3.725   7.466  0.00  0.00    +0.000 A 
ATOM     23  C   UNL     1      46.716   3.355   6.376  0.00  0.00    +0.000 A 
ATOM     24  C   UNL     1      47.213   2.060   6.286  0.00  0.00    +0.000 A 
ATOM     25  C   UNL     1      46.894   1.129   7.268  0.00  0.00    +0.000 A 
ATOM     26  C   UNL     1      46.088   1.498   8.350  0.00  0.00    +0.000 A 
ENDBRANCH  19  21
ENDBRANCH  14  15
ENDBRANCH   5  14
TORSDOF 4
ENDMDL
MODEL 4
REMARK VINA RESULT:    -7.785      3.508      6.972
REMARK INTER + INTRA:         -10.517
REMARK INTER:                  -9.638
REMARK INTRA:                  -0.879
REMARK UNBOUND:                -0.911
REMARK  Name = 
REMARK  4 active torsions:
REMARK  status: ('A' for Active; 'I' for Inactive)
REMARK    1  A    between atoms: C_2  and  C_4
REMARK    2  A    between atoms: N_8  and  C_9
REMARK    3  A    between atoms: C_9  and  C_10
REMARK    4  A    between atoms: C_14  and  C_15
REMARK                            x       y       z     vdW  Elec       q    Type
REMARK                         _______ _______ _______ _____ _____    ______ ____
ROOT
ATOM      1  C   UNL     1      48.959   7.664  13.045  0.00  0.00    +0.000 A 
ATOM      2  C   UNL     1      48.335   8.003  11.849  0.00  0.00    +0.000 A 
ATOM      3  C   UNL     1      46.970   7.754  11.693  0.00  0.00    +0.000 A 
ATOM      4  C   UNL     1      46.248   7.167  12.730  0.00  0.00    +0.000 A 
ATOM      5  N   UNL     1      44.884   6.980  12.696  0.00  0.00    +0.000 N 
ATOM      6  N   UNL     1      46.848   6.813  13.885  0.00  0.00    +0.000 NA
ATOM      7  C   UNL     1      48.182   7.054  14.018  0.00  0.00    +0.000 A 
ATOM      8  H   UNL     1      44.599   6.474  13.530  0.00  0.00    +0.000 HD
ENDROOT
BRANCH   1  10
ATOM      9  N   UNL     1      50.909   7.427  14.467  0.00  0.00    +0.000 N 
ATOM     10  C   UNL     1      50.380   7.951  13.319  0.00  0.00    +0.000 C 
ATOM     11  O   UNL     1      51.066   8.597  12.536  0.00  0.00    +0.000 OA
ATOM     12  H   UNL     1      51.908   7.535  14.593  0.00  0.00    +0.000 HD
ATOM     13  H   UNL     1      50.456   6.690  14.988  0.00  0.00    +0.000 HD
ENDBRANCH   1  10
BRANCH   5  14
ATOM     14  C   UNL     1      44.169   6.630  11.484  0.00  0.00    +0.000 C 
BRANCH  14  15
ATOM     15  C   UNL     1      44.206   5.164  11.105  0.00  0.00    +0.000 A 
ATOM     16  C   UNL     1      43.410   4.268  11.834  0.00  0.00    +0.000 A 
ATOM     17  C   UNL     1      43.404   2.908  11.528  0.00  0.00    +0.000 A 
ATOM     18  C   UNL     1      44.183   2.425  10.474  0.00  0.00    +0.000 A 
ATOM     19  C   UNL     1      44.966   3.289   9.691  0.00  0.00    +0.000 A 
ATOM     20  C   UNL     1      44.978   4.654  10.048  0.00  0.00    +0.000 A 
BRANCH  19  21
ATOM     21  C   UNL     1      45.678   2.821   8.478  0.00  0.00    +0.000 A 
ATOM     22  C   UNL     1      46.006   3.718   7.443  0.00  0.00    +0.000 A 
ATOM     23  C   UNL     1      46.780   3.322   6.349  0.00  0.00    +0.000 A 
ATOM     24  C   UNL     1      47.249   2.015   6.265  0.00  0.00    +0.000 A 
ATOM     25  C   UNL     1      46.920   1.100   7.259  0.00  0.00    +0.000 A 
ATOM     26  C   UNL     1      46.133   1.496   8.346  0.00  0.00    +0.000 A 
ENDBRANCH  19  21
ENDBRANCH  14  15
ENDBRANCH   5  14
TORSDOF 4
ENDMDL
MODEL 5
REMARK VINA RESULT:    -7.516      1.503      2.360
REMARK INTER + INTRA:         -10.185
REMARK INTER:                  -9.814
REMARK INTRA:                  -0.371
REMARK UNBOUND:                -0.911
REMARK  Name = 
REMARK  4 active torsions:
REMARK  status: ('A' for Active; 'I' for Inactive)
REMARK    1  A    between atoms: C_2  and  C_4
REMARK    2  A    between atoms: N_8  and  C_9
REMARK    3  A    between atoms: C_9  and  C_10
REMARK    4  A    between atoms: C_14  and  C_15
REMARK                            x       y       z     vdW  Elec       q    Type
REMARK                         _______ _______ _______ _____ _____    ______ ____
ROOT
ATOM      1  C   UNL     1      46.688   2.513   7.125  0.00  0.00    +0.000 A 
ATOM      2  C   UNL     1      46.241   3.746   7.589  0.00  0.00    +0.000 A 
ATOM      3  C   UNL     1      45.508   3.807   8.777  0.00  0.00    +0.000 A 
ATOM      4  C   UNL     1      45.226   2.637   9.479  0.00  0.00    +0.000 A 
ATOM      5  N   UNL     1      44.598   2.619  10.705  0.00  0.00    +0.000 N 
ATOM      6  N   UNL     1      45.634   1.434   9.025  0.00  0.00    +0.000 NA
ATOM      7  C   UNL     1      46.341   1.391   7.861  0.00  0.00    +0.000 A 
ATOM      8  H   UNL     1      44.443   1.654  10.982  0.00  0.00    +0.000 HD
ENDROOT
BRANCH   1  10
ATOM      9  N   UNL     1      47.344   3.288   4.923  0.00  0.00    +0.000 N 
ATOM     10  C   UNL     1      47.522   2.365   5.918  0.00  0.00    +0.000 C 
ATOM     11  O   UNL     1      48.363   1.479   5.823  0.00  0.00    +0.000 OA
ATOM     12  H   UNL     1      47.994   3.246   4.148  0.00  0.00    +0.000 HD
ATOM     13  H   UNL     1      46.861   4.163   5.072  0.00  0.00    +0.000 HD
ENDBRANCH   1  10
BRANCH   5  14
ATOM     14  C   UNL     1      43.538   3.544  11.058  0.00  0.00    +0.000 C 
BRANCH  14  15
ATOM     15  C   UNL     1      43.968   4.981  11.267  0.00  0.00    +0.000 A 
ATOM     16  C   UNL     1      43.016   5.994  11.077  0.00  0.00    +0.000 A 
ATOM     17  C   UNL     1      43.355   7.334  11.256  0.00  0.00    +0.000 A 
ATOM     18  C   UNL     1      44.650   7.680  11.647  0.00  0.00    +0.000 A 
ATOM     19  C   UNL     1      45.627   6.699  11.887  0.00  0.00    +0.000 A 
ATOM     20  C   UNL     1      45.263   5.355  11.663  0.00  0.00    +0.000 A 
BRANCH  19  21
ATOM     21  C   UNL     1      46.957   7.036  12.448  0.00  0.00    +0.000 A 
ATOM     22  C   UNL     1      47.407   6.444  13.643  0.00  0.00    +0.000 A 
ATOM     23  C   UNL     1      48.702   6.655  14.123  0.00  0.00    +0.000 A 
ATOM     24  C   UNL     1      49.583   7.466  13.414  0.00  0.00    +0.000 A 
ATOM     25  C   UNL     1      49.160   8.084  12.243  0.00  0.00    +0.000 A 
ATOM     26  C   UNL     1      47.858   7.881  11.773  0.00  0.00    +0.000 A 
ENDBRANCH  19  21
ENDBRANCH  14  15
ENDBRANCH   5  14
TORSDOF 4
ENDMDL
MODEL 6
REMARK VINA RESULT:    -7.510      2.355      3.059
REMARK INTER + INTRA:         -10.177
REMARK INTER:                  -9.424
REMARK INTRA:                  -0.754
REMARK UNBOUND:                -0.911
REMARK  Name = 
REMARK  4 active torsions:
REMARK  status: ('A' for Active; 'I' for Inactive)
REMARK    1  A    between atoms: C_2  and  C_4
REMARK    2  A    between atoms: N_8  and  C_9
REMARK    3  A    between atoms: C_9  and  C_10
REMARK    4  A    between atoms: C_14  and  C_15
REMARK                            x       y       z     vdW  Elec       q    Type
REMARK                         _______ _______ _______ _____ _____    ______ ____
ROOT
ATOM      1  C   UNL     1      46.603   2.598   7.273  0.00  0.00    +0.000 A 
ATOM      2  C   UNL     1      46.379   3.866   7.799  0.00  0.00    +0.000 A 
ATOM      3  C   UNL     1      45.642   3.998   8.978  0.00  0.00    +0.000 A 
ATOM      4  C   UNL     1      45.136   2.865   9.611  0.00  0.00    +0.000 A 
ATOM      5  N   UNL     1      44.487   2.899  10.826  0.00  0.00    +0.000 N 
ATOM      6  N   UNL     1      45.328   1.633   9.096  0.00  0.00    +0.000 NA
ATOM      7  C   UNL     1      46.041   1.522   7.941  0.00  0.00    +0.000 A 
ATOM      8  H   UNL     1      44.152   1.965  11.047  0.00  0.00    +0.000 HD
ENDROOT
BRANCH   1  10
ATOM      9  N   UNL     1      47.247   3.221   5.019  0.00  0.00    +0.000 N 
ATOM     10  C   UNL     1      47.424   2.362   6.070  0.00  0.00    +0.000 C 
ATOM     11  O   UNL     1      48.254   1.462   6.026  0.00  0.00    +0.000 OA
ATOM     12  H   UNL     1      47.888   3.121   4.243  0.00  0.00    +0.000 HD
ATOM     13  H   UNL     1      46.774   4.109   5.116  0.00  0.00    +0.000 HD
ENDBRANCH   1  10
BRANCH   5  14
ATOM     14  C   UNL     1      43.606   3.983  11.216  0.00  0.00    +0.000 C 
BRANCH  14  15
ATOM     15  C   UNL     1      44.292   5.219  11.759  0.00  0.00    +0.000 A 
ATOM     16  C   UNL     1      45.331   5.049  12.687  0.00  0.00    +0.000 A 
ATOM     17  C   UNL     1      45.999   6.151  13.218  0.00  0.00    +0.000 A 
ATOM     18  C   UNL     1      45.648   7.442  12.815  0.00  0.00    +0.000 A 
ATOM     19  C   UNL     1      44.641   7.660  11.860  0.00  0.00    +0.000 A 
ATOM     20  C   UNL     1      43.961   6.527  11.368  0.00  0.00    +0.000 A 
BRANCH  19  21
ATOM     21  C   UNL     1      44.361   9.006  11.308  0.00  0.00    +0.000 A 
ATOM     22  C   UNL     1      45.291  10.053  11.453  0.00  0.00    +0.000 A 
ATOM     23  C   UNL     1      45.099  11.293  10.838  0.00  0.00    +0.000 A 
ATOM     24  C   UNL     1      43.969  11.515  10.058  0.00  0.00    +0.000 A 
ATOM     25  C   UNL     1      43.020  10.509   9.917  0.00  0.00    +0.000 A 
ATOM     26  C   UNL     1      43.208   9.274  10.546  0.00  0.00    +0.000 A 
ENDBRANCH  19  21
ENDBRANCH  14  15
ENDBRANCH   5  14
TORSDOF 4
ENDMDL
MODEL 7
REMARK VINA RESULT:    -7.411      3.722      7.102
REMARK INTER + INTRA:         -10.055
REMARK INTER:                  -9.591
REMARK INTRA:                  -0.464
REMARK UNBOUND:                -0.911
REMARK  Name = 
REMARK  4 active torsions:
REMARK  status: ('A' for Active; 'I' for Inactive)
REMARK    1  A    between atoms: C_2  and  C_4
REMARK    2  A    between atoms: N_8  and  C_9
REMARK    3  A    between atoms: C_9  and  C_10
REMARK    4  A    between atoms: C_14  and  C_15
REMARK                            x       y       z     vdW  Elec       q    Type
REMARK                         _______ _______ _______ _____ _____    ______ ____
ROOT
ATOM      1  C   UNL     1      47.675   4.684  15.616  0.00  0.00    +0.000 A 
ATOM      2  C   UNL     1      46.705   4.273  14.708  0.00  0.00    +0.000 A 
ATOM      3  C   UNL     1      46.422   5.072  13.597  0.00  0.00    +0.000 A 
ATOM      4  C   UNL     1      47.108   6.271  13.413  0.00  0.00    +0.000 A 
ATOM      5  N   UNL     1      46.963   7.066  12.297  0.00  0.00    +0.000 N 
ATOM      6  N   UNL     1      48.034   6.690  14.300  0.00  0.00    +0.000 NA
ATOM      7  C   UNL     1      48.290   5.903  15.382  0.00  0.00    +0.000 A 
ATOM      8  H   UNL     1      47.508   7.914  12.423  0.00  0.00    +0.000 HD
ENDROOT
BRANCH   1  10
ATOM      9  N   UNL     1      47.093   3.190  17.435  0.00  0.00    +0.000 N 
ATOM     10  C   UNL     1      48.081   3.871  16.778  0.00  0.00    +0.000 C 
ATOM     11  O   UNL     1      49.254   3.780  17.119  0.00  0.00    +0.000 OA
ATOM     12  H   UNL     1      47.392   2.551  18.161  0.00  0.00    +0.000 HD
ATOM     13  H   UNL     1      46.178   3.037  17.034  0.00  0.00    +0.000 HD
ENDBRANCH   1  10
BRANCH   5  14
ATOM     14  C   UNL     1      45.694   7.241  11.617  0.00  0.00    +0.000 C 
BRANCH  14  15
ATOM     15  C   UNL     1      45.103   5.987  11.004  0.00  0.00    +0.000 A 
ATOM     16  C   UNL     1      43.793   5.629  11.356  0.00  0.00    +0.000 A 
ATOM     17  C   UNL     1      43.199   4.487  10.822  0.00  0.00    +0.000 A 
ATOM     18  C   UNL     1      43.902   3.694   9.912  0.00  0.00    +0.000 A 
ATOM     19  C   UNL     1      45.201   4.034   9.500  0.00  0.00    +0.000 A 
ATOM     20  C   UNL     1      45.788   5.175  10.085  0.00  0.00    +0.000 A 
BRANCH  19  21
ATOM     21  C   UNL     1      45.902   3.293   8.424  0.00  0.00    +0.000 A 
ATOM     22  C   UNL     1      46.077   1.899   8.504  0.00  0.00    +0.000 A 
ATOM     23  C   UNL     1      46.627   1.168   7.448  0.00  0.00    +0.000 A 
ATOM     24  C   UNL     1      47.014   1.817   6.280  0.00  0.00    +0.000 A 
ATOM     25  C   UNL     1      46.878   3.197   6.181  0.00  0.00    +0.000 A 
ATOM     26  C   UNL     1      46.340   3.927   7.246  0.00  0.00    +0.000 A 
ENDBRANCH  19  21
ENDBRANCH  14  15
ENDBRANCH   5  14
TORSDOF 4
ENDMDL
MODEL 8
REMARK VINA RESULT:    -6.267      3.966      6.267
REMARK INTER + INTRA:          -8.644
REMARK INTER:                  -7.970
REMARK INTRA:                  -0.673
REMARK UNBOUND:                -0.911
REMARK  Name = 
REMARK  4 active torsions:
REMARK  status: ('A' for Active; 'I' for Inactive)
REMARK    1  A    between atoms: C_2  and  C_4
REMARK    2  A    between atoms: N_8  and  C_9
REMARK    3  A    between atoms: C_9  and  C_10
REMARK    4  A    between atoms: C_14  and  C_15
REMARK                            x       y       z     vdW  Elec       q    Type
REMARK                         _______ _______ _______ _____ _____    ______ ____
ROOT
ATOM      1  C   UNL     1      44.675   4.679  12.025  0.00  0.00    +0.000 A 
ATOM      2  C   UNL     1      45.809   4.607  12.827  0.00  0.00    +0.000 A 
ATOM      3  C   UNL     1      46.415   5.787  13.265  0.00  0.00    +0.000 A 
ATOM      4  C   UNL     1      45.885   7.020  12.890  0.00  0.00    +0.000 A 
ATOM      5  N   UNL     1      46.361   8.225  13.358  0.00  0.00    +0.000 N 
ATOM      6  N   UNL     1      44.800   7.100  12.093  0.00  0.00    +0.000 NA
ATOM      7  C   UNL     1      44.226   5.940  11.668  0.00  0.00    +0.000 A 
ATOM      8  H   UNL     1      45.863   8.979  12.892  0.00  0.00    +0.000 HD
ENDROOT
BRANCH   1  10
ATOM      9  N   UNL     1      43.799   2.462  12.473  0.00  0.00    +0.000 N 
ATOM     10  C   UNL     1      43.935   3.485  11.574  0.00  0.00    +0.000 C 
ATOM     11  O   UNL     1      43.432   3.425  10.458  0.00  0.00    +0.000 OA
ATOM     12  H   UNL     1      43.199   1.695  12.195  0.00  0.00    +0.000 HD
ATOM     13  H   UNL     1      43.968   2.581  13.462  0.00  0.00    +0.000 HD
ENDBRANCH   1  10
BRANCH   5  14
ATOM     14  C   UNL     1      47.768   8.472  13.605  0.00  0.00    +0.000 C 
BRANCH  14  15
ATOM     15  C   UNL     1      48.256   8.127  14.997  0.00  0.00    +0.000 A 
ATOM     16  C   UNL     1      48.209   9.124  15.984  0.00  0.00    +0.000 A 
ATOM     17  C   UNL     1      48.643   8.862  17.282  0.00  0.00    +0.000 A 
ATOM     18  C   UNL     1      49.116   7.592  17.619  0.00  0.00    +0.000 A 
ATOM     19  C   UNL     1      49.146   6.552  16.675  0.00  0.00    +0.000 A 
ATOM     20  C   UNL     1      48.733   6.857  15.362  0.00  0.00    +0.000 A 
BRANCH  19  21
ATOM     21  C   UNL     1      49.499   5.162  17.050  0.00  0.00    +0.000 A 
ATOM     22  C   UNL     1      48.542   4.132  16.983  0.00  0.00    +0.000 A 
ATOM     23  C   UNL     1      48.886   2.797  17.216  0.00  0.00    +0.000 A 
ATOM     24  C   UNL     1      50.200   2.460  17.520  0.00  0.00    +0.000 A 
ATOM     25  C   UNL     1      51.163   3.458  17.618  0.00  0.00    +0.000 A 
ATOM     26  C   UNL     1      50.813   4.795  17.398  0.00  0.00    +0.000 A 
ENDBRANCH  19  21
ENDBRANCH  14  15
ENDBRANCH   5  14
TORSDOF 4
ENDMDL
MODEL 9
REMARK VINA RESULT:    -6.246      2.783      5.175
REMARK INTER + INTRA:          -8.618
REMARK INTER:                  -7.824
REMARK INTRA:                  -0.794
REMARK UNBOUND:                -0.911
REMARK  Name = 
REMARK  4 active torsions:
REMARK  status: ('A' for Active; 'I' for Inactive)
REMARK    1  A    between atoms: C_2  and  C_4
REMARK    2  A    between atoms: N_8  and  C_9
REMARK    3  A    between atoms: C_9  and  C_10
REMARK    4  A    between atoms: C_14  and  C_15
REMARK                            x       y       z     vdW  Elec       q    Type
REMARK                         _______ _______ _______ _____ _____    ______ ____
ROOT
ATOM      1  C   UNL     1      44.728   4.133  11.515  0.00  0.00    +0.000 A 
ATOM      2  C   UNL     1      45.089   5.252  10.773  0.00  0.00    +0.000 A 
ATOM      3  C   UNL     1      45.723   6.322  11.409  0.00  0.00    +0.000 A 
ATOM      4  C   UNL     1      45.983   6.260  12.777  0.00  0.00    +0.000 A 
ATOM      5  N   UNL     1      46.692   7.224  13.460  0.00  0.00    +0.000 N 
ATOM      6  N   UNL     1      45.617   5.189  13.510  0.00  0.00    +0.000 NA
ATOM      7  C   UNL     1      44.991   4.158  12.875  0.00  0.00    +0.000 A 
ATOM      8  H   UNL     1      46.690   6.995  14.450  0.00  0.00    +0.000 HD
ENDROOT
BRANCH   1  10
ATOM      9  N   UNL     1      44.830   2.296   9.934  0.00  0.00    +0.000 N 
ATOM     10  C   UNL     1      44.115   2.934  10.912  0.00  0.00    +0.000 C 
ATOM     11  O   UNL     1      43.032   2.507  11.292  0.00  0.00    +0.000 OA
ATOM     12  H   UNL     1      44.454   1.417   9.603  0.00  0.00    +0.000 HD
ATOM     13  H   UNL     1      45.815   2.463   9.784  0.00  0.00    +0.000 HD
ENDBRANCH   1  10
BRANCH   5  14
ATOM     14  C   UNL     1      46.593   8.638  13.151  0.00  0.00    +0.000 C 
BRANCH  14  15
ATOM     15  C   UNL     1      47.751   9.216  12.363  0.00  0.00    +0.000 A 
ATOM     16  C   UNL     1      47.640  10.531  11.887  0.00  0.00    +0.000 A 
ATOM     17  C   UNL     1      48.674  11.114  11.157  0.00  0.00    +0.000 A 
ATOM     18  C   UNL     1      49.846  10.395  10.908  0.00  0.00    +0.000 A 
ATOM     19  C   UNL     1      50.019   9.090  11.398  0.00  0.00    +0.000 A 
ATOM     20  C   UNL     1      48.940   8.515  12.102  0.00  0.00    +0.000 A 
BRANCH  19  21
ATOM     21  C   UNL     1      51.308   8.370  11.276  0.00  0.00    +0.000 A 
ATOM     22  C   UNL     1      51.501   7.400  10.274  0.00  0.00    +0.000 A 
ATOM     23  C   UNL     1      52.744   6.798  10.067  0.00  0.00    +0.000 A 
ATOM     24  C   UNL     1      53.831   7.155  10.858  0.00  0.00    +0.000 A 
ATOM     25  C   UNL     1      53.666   8.092  11.873  0.00  0.00    +0.000 A 
ATOM     26  C   UNL     1      52.416   8.682  12.087  0.00  0.00    +0.000 A 
ENDBRANCH  19  21
ENDBRANCH  14  15
ENDBRANCH   5  14
TORSDOF 4
ENDMDL
