MODEL 1
REMARK VINA RESULT:    -8.421      0.000      0.000
REMARK INTER + INTRA:         -12.836
REMARK INTER:                 -11.867
REMARK INTRA:                  -0.969
REMARK UNBOUND:                -0.969
REMARK  Name = 
REMARK  7 active torsions:
REMARK  status: ('A' for Active; 'I' for Inactive)
REMARK    1  A    between atoms: C_2  and  C_4
REMARK    2  A    between atoms: C_7  and  N_8
REMARK    3  A    between atoms: N_8  and  C_9
REMARK    4  A    between atoms: C_9  and  C_10
REMARK    5  A    between atoms: C_10  and  C_11
REMARK    6  A    between atoms: C_15  and  O_16
REMARK    7  A    between atoms: O_16  and  C_17
REMARK                            x       y       z     vdW  Elec       q    Type
REMARK                         _______ _______ _______ _____ _____    ______ ____
ROOT
ATOM      1  N   UNL     1      43.630   4.810   9.961  0.00  0.00    +0.000 N 
ATOM      2  H   UNL     1      42.905   5.140   9.327  0.00  0.00    +0.000 HD
ENDROOT
BRANCH   1   6
ATOM      3  C   UNL     1      46.381   2.363   7.872  0.00  0.00    +0.000 A 
ATOM      4  C   UNL     1      46.425   3.748   7.707  0.00  0.00    +0.000 A 
ATOM      5  C   UNL     1      45.528   4.564   8.402  0.00  0.00    +0.000 A 
ATOM      6  C   UNL     1      44.592   4.030   9.300  0.00  0.00    +0.000 A 
ATOM      7  C   UNL     1      44.541   2.635   9.431  0.00  0.00    +0.000 A 
ATOM      8  C   UNL     1      45.423   1.807   8.723  0.00  0.00    +0.000 A 
BRANCH   3  10
ATOM      9  N   UNL     1      48.346   2.054   6.470  0.00  0.00    +0.000 N 
ATOM     10  C   UNL     1      47.302   1.465   7.129  0.00  0.00    +0.000 C 
ATOM     11  O   UNL     1      47.162   0.249   7.129  0.00  0.00    +0.000 OA
ATOM     12  H   UNL     1      49.023   1.429   6.053  0.00  0.00    +0.000 HD
ATOM     13  H   UNL     1      48.629   3.009   6.641  0.00  0.00    +0.000 HD
ENDBRANCH   3  10
ENDBRANCH   1   6
BRANCH   1  14
ATOM     14  C   UNL     1      43.155   4.374  11.274  0.00  0.00    +0.000 C 
BRANCH  14  15
ATOM     15  C   UNL     1      43.362   5.437  12.357  0.00  0.00    +0.000 C 
BRANCH  15  16
ATOM     16  C   UNL     1      44.823   5.499  12.750  0.00  0.00    +0.000 A 
ATOM     17  C   UNL     1      45.585   6.644  12.479  0.00  0.00    +0.000 A 
ATOM     18  C   UNL     1      46.905   6.737  12.924  0.00  0.00    +0.000 A 
ATOM     19  C   UNL     1      47.480   5.691  13.647  0.00  0.00    +0.000 A 
ATOM     20  C   UNL     1      46.734   4.546  13.922  0.00  0.00    +0.000 A 
ATOM     21  C   UNL     1      45.411   4.453  13.480  0.00  0.00    +0.000 A 
BRANCH  20  22
ATOM     22  O   UNL     1      47.192   3.526  14.716  0.00  0.00    +0.000 OA
BRANCH  22  23
ATOM     23  C   UNL     1      47.706   3.924  16.004  0.00  0.00    +0.000 C 
ATOM     24  C   UNL     1      48.479   2.834  16.708  0.00  0.00    +0.000 C 
ATOM     25  C   UNL     1      47.140   3.255  17.229  0.00  0.00    +0.000 C 
ENDBRANCH  22  23
ENDBRANCH  20  22
ENDBRANCH  15  16
ENDBRANCH  14  15
ENDBRANCH   1  14
TORSDOF 7
ENDMDL
MODEL 2
REMARK VINA RESULT:    -7.630      1.727      1.977
REMARK INTER + INTRA:         -11.721
REMARK INTER:                 -10.597
REMARK INTRA:                  -1.125
REMARK UNBOUND:                -0.969
REMARK  Name = 
REMARK  7 active torsions:
REMARK  status: ('A' for Active; 'I' for Inactive)
REMARK    1  A    between atoms: C_2  and  C_4
REMARK    2  A    between atoms: C_7  and  N_8
REMARK    3  A    between atoms: N_8  and  C_9
REMARK    4  A    between atoms: C_9  and  C_10
REMARK    5  A    between atoms: C_10  and  C_11
REMARK    6  A    between atoms: C_15  and  O_16
REMARK    7  A    between atoms: O_16  and  C_17
REMARK                            x       y       z     vdW  Elec       q    Type
REMARK                         _______ _______ _______ _____ _____    ______ ____
ROOT
ATOM      1  N   UNL     1      43.564   4.520  10.069  0.00  0.00    +0.000 N 
ATOM      2  H   UNL     1      42.839   3.872  10.372  0.00  0.00    +0.000 HD
ENDROOT
BRANCH   1   6
ATOM      3  C   UNL     1      46.461   2.481   7.752  0.00  0.00    +0.000 A 
ATOM      4  C   UNL     1      46.363   3.871   7.669  0.00  0.00    +0.000 A 
ATOM      5  C   UNL     1      45.417   4.553   8.439  0.00  0.00    +0.000 A 
ATOM      6  C   UNL     1      44.573   3.879   9.333  0.00  0.00    +0.000 A 
ATOM      7  C   UNL     1      44.662   2.481   9.383  0.00  0.00    +0.000 A 
ATOM      8  C   UNL     1      45.594   1.786   8.599  0.00  0.00    +0.000 A 
BRANCH   3  10
ATOM      9  N   UNL     1      48.528   2.409   6.470  0.00  0.00    +0.000 N 
ATOM     10  C   UNL     1      47.437   1.722   6.929  0.00  0.00    +0.000 C 
ATOM     11  O   UNL     1      47.297   0.529   6.694  0.00  0.00    +0.000 OA
ATOM     12  H   UNL     1      49.235   1.861   5.998  0.00  0.00    +0.000 HD
ATOM     13  H   UNL     1      48.796   3.311   6.835  0.00  0.00    +0.000 HD
ENDBRANCH   3  10
ENDBRANCH   1   6
BRANCH   1  14
ATOM     14  C   UNL     1      43.950   5.526  11.060  0.00  0.00    +0.000 C 
BRANCH  14  15
ATOM     15  C   UNL     1      44.677   4.917  12.263  0.00  0.00    +0.000 C 
BRANCH  15  16
ATOM     16  C   UNL     1      46.026   5.580  12.444  0.00  0.00    +0.000 A 
ATOM     17  C   UNL     1      46.525   6.454  11.470  0.00  0.00    +0.000 A 
ATOM     18  C   UNL     1      47.725   7.137  11.680  0.00  0.00    +0.000 A 
ATOM     19  C   UNL     1      48.440   6.957  12.865  0.00  0.00    +0.000 A 
ATOM     20  C   UNL     1      47.955   6.089  13.841  0.00  0.00    +0.000 A 
ATOM     21  C   UNL     1      46.752   5.408  13.634  0.00  0.00    +0.000 A 
BRANCH  20  22
ATOM     22  O   UNL     1      48.543   5.943  15.072  0.00  0.00    +0.000 OA
BRANCH  22  23
ATOM     23  C   UNL     1      49.392   7.032  15.489  0.00  0.00    +0.000 C 
ATOM     24  C   UNL     1      49.794   6.961  16.943  0.00  0.00    +0.000 C 
ATOM     25  C   UNL     1      48.840   8.019  16.483  0.00  0.00    +0.000 C 
ENDBRANCH  22  23
ENDBRANCH  20  22
ENDBRANCH  15  16
ENDBRANCH  14  15
ENDBRANCH   1  14
TORSDOF 7
ENDMDL
MODEL 3
REMARK VINA RESULT:    -7.171      2.699      4.424
REMARK INTER + INTRA:         -11.075
REMARK INTER:                 -10.168
REMARK INTRA:                  -0.907
REMARK UNBOUND:                -0.969
REMARK  Name = 
REMARK  7 active torsions:
REMARK  status: ('A' for Active; 'I' for Inactive)
REMARK    1  A    between atoms: C_2  and  C_4
REMARK    2  A    between atoms: C_7  and  N_8
REMARK    3  A    between atoms: N_8  and  C_9
REMARK    4  A    between atoms: C_9  and  C_10
REMARK    5  A    between atoms: C_10  and  C_11
REMARK    6  A    between atoms: C_15  and  O_16
REMARK    7  A    between atoms: O_16  and  C_17
REMARK                            x       y       z     vdW  Elec       q    Type
REMARK                         _______ _______ _______ _____ _____    ______ ____
ROOT
ATOM      1  N   UNL     1      43.600   3.643  10.567  0.00  0.00    +0.000 N 
ATOM      2  H   UNL     1      43.341   2.857  11.159  0.00  0.00    +0.000 HD
ENDROOT
BRANCH   1   6
ATOM      3  C   UNL     1      46.393   2.617   7.557  0.00  0.00    +0.000 A 
ATOM      4  C   UNL     1      45.843   1.616   8.358  0.00  0.00    +0.000 A 
ATOM      5  C   UNL     1      44.911   1.945   9.346  0.00  0.00    +0.000 A 
ATOM      6  C   UNL     1      44.478   3.265   9.539  0.00  0.00    +0.000 A 
ATOM      7  C   UNL     1      45.064   4.263   8.747  0.00  0.00    +0.000 A 
ATOM      8  C   UNL     1      46.014   3.945   7.767  0.00  0.00    +0.000 A 
BRANCH   3  10
ATOM      9  N   UNL     1      47.273   2.944   5.312  0.00  0.00    +0.000 N 
ATOM     10  C   UNL     1      47.405   2.306   6.515  0.00  0.00    +0.000 C 
ATOM     11  O   UNL     1      48.338   1.542   6.724  0.00  0.00    +0.000 OA
ATOM     12  H   UNL     1      48.021   2.805   4.646  0.00  0.00    +0.000 HD
ATOM     13  H   UNL     1      46.671   3.745   5.183  0.00  0.00    +0.000 HD
ENDBRANCH   3  10
ENDBRANCH   1   6
BRANCH   1  14
ATOM     14  C   UNL     1      43.849   4.899  11.277  0.00  0.00    +0.000 C 
BRANCH  14  15
ATOM     15  C   UNL     1      45.033   4.801  12.245  0.00  0.00    +0.000 C 
BRANCH  15  16
ATOM     16  C   UNL     1      45.739   6.137  12.338  0.00  0.00    +0.000 A 
ATOM     17  C   UNL     1      47.124   6.225  12.144  0.00  0.00    +0.000 A 
ATOM     18  C   UNL     1      47.759   7.468  12.139  0.00  0.00    +0.000 A 
ATOM     19  C   UNL     1      47.022   8.638  12.324  0.00  0.00    +0.000 A 
ATOM     20  C   UNL     1      45.644   8.564  12.520  0.00  0.00    +0.000 A 
ATOM     21  C   UNL     1      45.005   7.320  12.522  0.00  0.00    +0.000 A 
BRANCH  20  22
ATOM     22  O   UNL     1      44.838   9.671  12.601  0.00  0.00    +0.000 OA
BRANCH  22  23
ATOM     23  C   UNL     1      44.650  10.395  11.367  0.00  0.00    +0.000 C 
ATOM     24  C   UNL     1      43.332  11.128  11.293  0.00  0.00    +0.000 C 
ATOM     25  C   UNL     1      43.568   9.927  10.431  0.00  0.00    +0.000 C 
ENDBRANCH  22  23
ENDBRANCH  20  22
ENDBRANCH  15  16
ENDBRANCH  14  15
ENDBRANCH   1  14
TORSDOF 7
ENDMDL
MODEL 4
REMARK VINA RESULT:    -6.764      2.185      3.765
REMARK INTER + INTRA:         -10.502
REMARK INTER:                  -9.642
REMARK INTRA:                  -0.859
REMARK UNBOUND:                -0.969
REMARK  Name = 
REMARK  7 active torsions:
REMARK  status: ('A' for Active; 'I' for Inactive)
REMARK    1  A    between atoms: C_2  and  C_4
REMARK    2  A    between atoms: C_7  and  N_8
REMARK    3  A    between atoms: N_8  and  C_9
REMARK    4  A    between atoms: C_9  and  C_10
REMARK    5  A    between atoms: C_10  and  C_11
REMARK    6  A    between atoms: C_15  and  O_16
REMARK    7  A    between atoms: O_16  and  C_17
REMARK                            x       y       z     vdW  Elec       q    Type
REMARK                         _______ _______ _______ _____ _____    ______ ____
ROOT
ATOM      1  N   UNL     1      43.779   4.370  10.164  0.00  0.00    +0.000 N 
ATOM      2  H   UNL     1      42.861   3.934  10.115  0.00  0.00    +0.000 HD
ENDROOT
BRANCH   1   6
ATOM      3  C   UNL     1      46.645   2.774   7.489  0.00  0.00    +0.000 A 
ATOM      4  C   UNL     1      45.821   1.912   8.213  0.00  0.00    +0.000 A 
ATOM      5  C   UNL     1      44.865   2.431   9.089  0.00  0.00    +0.000 A 
ATOM      6  C   UNL     1      44.679   3.813   9.242  0.00  0.00    +0.000 A 
ATOM      7  C   UNL     1      45.535   4.665   8.531  0.00  0.00    +0.000 A 
ATOM      8  C   UNL     1      46.512   4.154   7.664  0.00  0.00    +0.000 A 
BRANCH   3  10
ATOM      9  N   UNL     1      47.833   2.900   5.369  0.00  0.00    +0.000 N 
ATOM     10  C   UNL     1      47.689   2.257   6.568  0.00  0.00    +0.000 C 
ATOM     11  O   UNL     1      48.416   1.320   6.872  0.00  0.00    +0.000 OA
ATOM     12  H   UNL     1      48.612   2.606   4.794  0.00  0.00    +0.000 HD
ATOM     13  H   UNL     1      47.426   3.806   5.184  0.00  0.00    +0.000 HD
ENDBRANCH   3  10
ENDBRANCH   1   6
BRANCH   1  14
ATOM     14  C   UNL     1      44.254   4.666  11.517  0.00  0.00    +0.000 C 
BRANCH  14  15
ATOM     15  C   UNL     1      44.339   6.170  11.794  0.00  0.00    +0.000 C 
BRANCH  15  16
ATOM     16  C   UNL     1      45.592   6.482  12.586  0.00  0.00    +0.000 A 
ATOM     17  C   UNL     1      46.399   5.447  13.075  0.00  0.00    +0.000 A 
ATOM     18  C   UNL     1      47.602   5.735  13.724  0.00  0.00    +0.000 A 
ATOM     19  C   UNL     1      48.013   7.058  13.891  0.00  0.00    +0.000 A 
ATOM     20  C   UNL     1      47.218   8.096  13.411  0.00  0.00    +0.000 A 
ATOM     21  C   UNL     1      46.015   7.810  12.757  0.00  0.00    +0.000 A 
BRANCH  20  22
ATOM     22  O   UNL     1      47.605   9.412  13.440  0.00  0.00    +0.000 OA
BRANCH  22  23
ATOM     23  C   UNL     1      48.921   9.685  12.915  0.00  0.00    +0.000 C 
ATOM     24  C   UNL     1      48.976  10.908  12.033  0.00  0.00    +0.000 C 
ATOM     25  C   UNL     1      49.133   9.547  11.431  0.00  0.00    +0.000 C 
ENDBRANCH  22  23
ENDBRANCH  20  22
ENDBRANCH  15  16
ENDBRANCH  14  15
ENDBRANCH   1  14
TORSDOF 7
ENDMDL
MODEL 5
REMARK VINA RESULT:    -6.365      3.506      6.987
REMARK INTER + INTRA:          -9.938
REMARK INTER:                  -9.105
REMARK INTRA:                  -0.833
REMARK UNBOUND:                -0.969
REMARK  Name = 
REMARK  7 active torsions:
REMARK  status: ('A' for Active; 'I' for Inactive)
REMARK    1  A    between atoms: C_2  and  C_4
REMARK    2  A    between atoms: C_7  and  N_8
REMARK    3  A    between atoms: N_8  and  C_9
REMARK    4  A    between atoms: C_9  and  C_10
REMARK    5  A    between atoms: C_10  and  C_11
REMARK    6  A    between atoms: C_15  and  O_16
REMARK    7  A    between atoms: O_16  and  C_17
REMARK                            x       y       z     vdW  Elec       q    Type
REMARK                         _______ _______ _______ _____ _____    ______ ____
ROOT
ATOM      1  N   UNL     1      44.491   7.229  12.743  0.00  0.00    +0.000 N 
ATOM      2  H   UNL     1      43.850   7.978  12.491  0.00  0.00    +0.000 HD
ENDROOT
BRANCH   1   6
ATOM      3  C   UNL     1      48.519   8.272  11.961  0.00  0.00    +0.000 A 
ATOM      4  C   UNL     1      48.150   6.927  12.005  0.00  0.00    +0.000 A 
ATOM      5  C   UNL     1      46.821   6.575  12.251  0.00  0.00    +0.000 A 
ATOM      6  C   UNL     1      45.822   7.544  12.424  0.00  0.00    +0.000 A 
ATOM      7  C   UNL     1      46.214   8.890  12.407  0.00  0.00    +0.000 A 
ATOM      8  C   UNL     1      47.549   9.254  12.181  0.00  0.00    +0.000 A 
BRANCH   3  10
ATOM      9  N   UNL     1      50.848   7.681  11.580  0.00  0.00    +0.000 N 
ATOM     10  C   UNL     1      49.927   8.682  11.728  0.00  0.00    +0.000 C 
ATOM     11  O   UNL     1      50.254   9.858  11.637  0.00  0.00    +0.000 OA
ATOM     12  H   UNL     1      51.783   7.968  11.321  0.00  0.00    +0.000 HD
ATOM     13  H   UNL     1      50.586   6.720  11.411  0.00  0.00    +0.000 HD
ENDBRANCH   3  10
ENDBRANCH   1   6
BRANCH   1  14
ATOM     14  C   UNL     1      44.006   5.876  12.468  0.00  0.00    +0.000 C 
BRANCH  14  15
ATOM     15  C   UNL     1      43.418   5.738  11.060  0.00  0.00    +0.000 C 
BRANCH  15  16
ATOM     16  C   UNL     1      43.919   4.465  10.411  0.00  0.00    +0.000 A 
ATOM     17  C   UNL     1      43.737   3.227  11.040  0.00  0.00    +0.000 A 
ATOM     18  C   UNL     1      44.117   2.045  10.400  0.00  0.00    +0.000 A 
ATOM     19  C   UNL     1      44.679   2.085   9.123  0.00  0.00    +0.000 A 
ATOM     20  C   UNL     1      44.867   3.310   8.487  0.00  0.00    +0.000 A 
ATOM     21  C   UNL     1      44.484   4.494   9.125  0.00  0.00    +0.000 A 
BRANCH  20  22
ATOM     22  O   UNL     1      45.312   3.423   7.194  0.00  0.00    +0.000 OA
BRANCH  22  23
ATOM     23  C   UNL     1      46.739   3.307   7.014  0.00  0.00    +0.000 C 
ATOM     24  C   UNL     1      47.135   2.809   5.646  0.00  0.00    +0.000 C 
ATOM     25  C   UNL     1      47.319   1.929   6.842  0.00  0.00    +0.000 C 
ENDBRANCH  22  23
ENDBRANCH  20  22
ENDBRANCH  15  16
ENDBRANCH  14  15
ENDBRANCH   1  14
TORSDOF 7
ENDMDL
MODEL 6
REMARK VINA RESULT:    -6.234      3.499      8.364
REMARK INTER + INTRA:          -9.754
REMARK INTER:                  -9.186
REMARK INTRA:                  -0.568
REMARK UNBOUND:                -0.969
REMARK  Name = 
REMARK  7 active torsions:
REMARK  status: ('A' for Active; 'I' for Inactive)
REMARK    1  A    between atoms: C_2  and  C_4
REMARK    2  A    between atoms: C_7  and  N_8
REMARK    3  A    between atoms: N_8  and  C_9
REMARK    4  A    between atoms: C_9  and  C_10
REMARK    5  A    between atoms: C_10  and  C_11
REMARK    6  A    between atoms: C_15  and  O_16
REMARK    7  A    between atoms: O_16  and  C_17
REMARK                            x       y       z     vdW  Elec       q    Type
REMARK                         _______ _______ _______ _____ _____    ______ ____
ROOT
ATOM      1  N   UNL     1      46.907   4.194  14.364  0.00  0.00    +0.000 N 
ATOM      2  H   UNL     1      46.011   3.711  14.367  0.00  0.00    +0.000 HD
ENDROOT
BRANCH   1   6
ATOM      3  C   UNL     1      48.559   4.582  18.242  0.00  0.00    +0.000 A 
ATOM      4  C   UNL     1      48.677   5.634  17.333  0.00  0.00    +0.000 A 
ATOM      5  C   UNL     1      48.124   5.519  16.055  0.00  0.00    +0.000 A 
ATOM      6  C   UNL     1      47.413   4.375  15.661  0.00  0.00    +0.000 A 
ATOM      7  C   UNL     1      47.330   3.315  16.575  0.00  0.00    +0.000 A 
ATOM      8  C   UNL     1      47.899   3.414  17.853  0.00  0.00    +0.000 A 
BRANCH   3  10
ATOM      9  N   UNL     1      48.540   3.947  20.591  0.00  0.00    +0.000 N 
ATOM     10  C   UNL     1      49.156   4.661  19.600  0.00  0.00    +0.000 C 
ATOM     11  O   UNL     1      50.173   5.304  19.825  0.00  0.00    +0.000 OA
ATOM     12  H   UNL     1      49.011   3.925  21.486  0.00  0.00    +0.000 HD
ATOM     13  H   UNL     1      47.856   3.229  20.401  0.00  0.00    +0.000 HD
ENDBRANCH   3  10
ENDBRANCH   1   6
BRANCH   1  14
ATOM     14  C   UNL     1      47.013   5.298  13.409  0.00  0.00    +0.000 C 
BRANCH  14  15
ATOM     15  C   UNL     1      45.649   5.750  12.880  0.00  0.00    +0.000 C 
BRANCH  15  16
ATOM     16  C   UNL     1      45.159   4.788  11.818  0.00  0.00    +0.000 A 
ATOM     17  C   UNL     1      44.273   3.754  12.151  0.00  0.00    +0.000 A 
ATOM     18  C   UNL     1      43.749   2.925  11.157  0.00  0.00    +0.000 A 
ATOM     19  C   UNL     1      44.100   3.118   9.821  0.00  0.00    +0.000 A 
ATOM     20  C   UNL     1      44.982   4.141   9.477  0.00  0.00    +0.000 A 
ATOM     21  C   UNL     1      45.504   4.975  10.470  0.00  0.00    +0.000 A 
BRANCH  20  22
ATOM     22  O   UNL     1      45.289   4.461   8.179  0.00  0.00    +0.000 OA
BRANCH  22  23
ATOM     23  C   UNL     1      46.544   3.944   7.691  0.00  0.00    +0.000 C 
ATOM     24  C   UNL     1      46.452   3.345   6.308  0.00  0.00    +0.000 C 
ATOM     25  C   UNL     1      46.667   2.457   7.494  0.00  0.00    +0.000 C 
ENDBRANCH  22  23
ENDBRANCH  20  22
ENDBRANCH  15  16
ENDBRANCH  14  15
ENDBRANCH   1  14
TORSDOF 7
ENDMDL
MODEL 7
REMARK VINA RESULT:    -6.113      3.817      8.130
REMARK INTER + INTRA:          -9.584
REMARK INTER:                  -8.982
REMARK INTRA:                  -0.602
REMARK UNBOUND:                -0.969
REMARK  Name = 
REMARK  7 active torsions:
REMARK  status: ('A' for Active; 'I' for Inactive)
REMARK    1  A    between atoms: C_2  and  C_4
REMARK    2  A    between atoms: C_7  and  N_8
REMARK    3  A    between atoms: N_8  and  C_9
REMARK    4  A    between atoms: C_9  and  C_10
REMARK    5  A    between atoms: C_10  and  C_11
REMARK    6  A    between atoms: C_15  and  O_16
REMARK    7  A    between atoms: O_16  and  C_17
REMARK                            x       y       z     vdW  Elec       q    Type
REMARK                         _______ _______ _______ _____ _____    ______ ____
ROOT
ATOM      1  N   UNL     1      47.063   4.651  15.974  0.00  0.00    +0.000 N 
ATOM      2  H   UNL     1      46.753   5.598  16.184  0.00  0.00    +0.000 HD
ENDROOT
BRANCH   1   6
ATOM      3  C   UNL     1      50.756   3.587  17.748  0.00  0.00    +0.000 A 
ATOM      4  C   UNL     1      50.477   4.929  17.486  0.00  0.00    +0.000 A 
ATOM      5  C   UNL     1      49.256   5.290  16.911  0.00  0.00    +0.000 A 
ATOM      6  C   UNL     1      48.271   4.336  16.617  0.00  0.00    +0.000 A 
ATOM      7  C   UNL     1      48.578   2.990  16.858  0.00  0.00    +0.000 A 
ATOM      8  C   UNL     1      49.809   2.616  17.416  0.00  0.00    +0.000 A 
BRANCH   3  10
ATOM      9  N   UNL     1      52.383   1.842  18.226  0.00  0.00    +0.000 N 
ATOM     10  C   UNL     1      52.054   3.166  18.334  0.00  0.00    +0.000 C 
ATOM     11  O   UNL     1      52.817   3.964  18.862  0.00  0.00    +0.000 OA
ATOM     12  H   UNL     1      53.311   1.584  18.536  0.00  0.00    +0.000 HD
ATOM     13  H   UNL     1      51.903   1.211  17.600  0.00  0.00    +0.000 HD
ENDBRANCH   3  10
ENDBRANCH   1   6
BRANCH   1  14
ATOM     14  C   UNL     1      46.876   4.231  14.585  0.00  0.00    +0.000 C 
BRANCH  14  15
ATOM     15  C   UNL     1      46.365   5.365  13.692  0.00  0.00    +0.000 C 
BRANCH  15  16
ATOM     16  C   UNL     1      45.196   4.883  12.859  0.00  0.00    +0.000 A 
ATOM     17  C   UNL     1      43.940   5.494  12.976  0.00  0.00    +0.000 A 
ATOM     18  C   UNL     1      42.887   5.112  12.142  0.00  0.00    +0.000 A 
ATOM     19  C   UNL     1      43.075   4.118  11.180  0.00  0.00    +0.000 A 
ATOM     20  C   UNL     1      44.318   3.501  11.056  0.00  0.00    +0.000 A 
ATOM     21  C   UNL     1      45.375   3.886  11.887  0.00  0.00    +0.000 A 
BRANCH  20  22
ATOM     22  O   UNL     1      44.610   2.596  10.066  0.00  0.00    +0.000 OA
BRANCH  22  23
ATOM     23  C   UNL     1      44.575   3.114   8.720  0.00  0.00    +0.000 C 
ATOM     24  C   UNL     1      45.831   2.831   7.933  0.00  0.00    +0.000 C 
ATOM     25  C   UNL     1      45.522   4.229   8.367  0.00  0.00    +0.000 C 
ENDBRANCH  22  23
ENDBRANCH  20  22
ENDBRANCH  15  16
ENDBRANCH  14  15
ENDBRANCH   1  14
TORSDOF 7
ENDMDL
MODEL 8
REMARK VINA RESULT:    -5.972      2.959      4.426
REMARK INTER + INTRA:          -9.385
REMARK INTER:                  -8.227
REMARK INTRA:                  -1.157
REMARK UNBOUND:                -0.969
REMARK  Name = 
REMARK  7 active torsions:
REMARK  status: ('A' for Active; 'I' for Inactive)
REMARK    1  A    between atoms: C_2  and  C_4
REMARK    2  A    between atoms: C_7  and  N_8
REMARK    3  A    between atoms: N_8  and  C_9
REMARK    4  A    between atoms: C_9  and  C_10
REMARK    5  A    between atoms: C_10  and  C_11
REMARK    6  A    between atoms: C_15  and  O_16
REMARK    7  A    between atoms: O_16  and  C_17
REMARK                            x       y       z     vdW  Elec       q    Type
REMARK                         _______ _______ _______ _____ _____    ______ ____
ROOT
ATOM      1  N   UNL     1      45.771   7.853  13.254  0.00  0.00    +0.000 N 
ATOM      2  H   UNL     1      46.005   7.730  14.237  0.00  0.00    +0.000 HD
ENDROOT
BRANCH   1   6
ATOM      3  C   UNL     1      44.424   4.189  11.619  0.00  0.00    +0.000 A 
ATOM      4  C   UNL     1      44.053   5.391  11.016  0.00  0.00    +0.000 A 
ATOM      5  C   UNL     1      44.503   6.605  11.543  0.00  0.00    +0.000 A 
ATOM      6  C   UNL     1      45.357   6.653  12.654  0.00  0.00    +0.000 A 
ATOM      7  C   UNL     1      45.696   5.438  13.266  0.00  0.00    +0.000 A 
ATOM      8  C   UNL     1      45.233   4.217  12.757  0.00  0.00    +0.000 A 
BRANCH   3  10
ATOM      9  N   UNL     1      44.643   2.330  10.063  0.00  0.00    +0.000 N 
ATOM     10  C   UNL     1      43.943   2.882  11.101  0.00  0.00    +0.000 C 
ATOM     11  O   UNL     1      42.986   2.301  11.596  0.00  0.00    +0.000 OA
ATOM     12  H   UNL     1      44.371   1.396   9.786  0.00  0.00    +0.000 HD
ATOM     13  H   UNL     1      45.561   2.654   9.792  0.00  0.00    +0.000 HD
ENDBRANCH   3  10
ENDBRANCH   1   6
BRANCH   1  14
ATOM     14  C   UNL     1      46.669   8.736  12.508  0.00  0.00    +0.000 C 
BRANCH  14  15
ATOM     15  C   UNL     1      48.142   8.347  12.668  0.00  0.00    +0.000 C 
BRANCH  15  16
ATOM     16  C   UNL     1      48.463   8.118  14.131  0.00  0.00    +0.000 A 
ATOM     17  C   UNL     1      48.288   9.147  15.066  0.00  0.00    +0.000 A 
ATOM     18  C   UNL     1      48.494   8.908  16.426  0.00  0.00    +0.000 A 
ATOM     19  C   UNL     1      48.875   7.641  16.870  0.00  0.00    +0.000 A 
ATOM     20  C   UNL     1      49.055   6.611  15.949  0.00  0.00    +0.000 A 
ATOM     21  C   UNL     1      48.844   6.847  14.587  0.00  0.00    +0.000 A 
BRANCH  20  22
ATOM     22  O   UNL     1      49.322   5.316  16.317  0.00  0.00    +0.000 OA
BRANCH  22  23
ATOM     23  C   UNL     1      48.316   4.681  17.134  0.00  0.00    +0.000 C 
ATOM     24  C   UNL     1      48.298   3.177  17.008  0.00  0.00    +0.000 C 
ATOM     25  C   UNL     1      47.175   3.988  16.440  0.00  0.00    +0.000 C 
ENDBRANCH  22  23
ENDBRANCH  20  22
ENDBRANCH  15  16
ENDBRANCH  14  15
ENDBRANCH   1  14
TORSDOF 7
ENDMDL
MODEL 9
REMARK VINA RESULT:    -5.683      2.852      5.183
REMARK INTER + INTRA:          -8.977
REMARK INTER:                  -8.350
REMARK INTRA:                  -0.628
REMARK UNBOUND:                -0.969
REMARK  Name = 
REMARK  7 active torsions:
REMARK  status: ('A' for Active; 'I' for Inactive)
REMARK    1  A    between atoms: C_2  and  C_4
REMARK    2  A    between atoms: C_7  and  N_8
REMARK    3  A    between atoms: N_8  and  C_9
REMARK    4  A    between atoms: C_9  and  C_10
REMARK    5  A    between atoms: C_10  and  C_11
REMARK    6  A    between atoms: C_15  and  O_16
REMARK    7  A    between atoms: O_16  and  C_17
REMARK                            x       y       z     vdW  Elec       q    Type
REMARK                         _______ _______ _______ _____ _____    ______ ____
ROOT
ATOM      1  N   UNL     1      47.122   6.997  13.802  0.00  0.00    +0.000 N 
ATOM      2  H   UNL     1      46.558   7.463  14.509  0.00  0.00    +0.000 HD
ENDROOT
BRANCH   1   6
ATOM      3  C   UNL     1      44.941   4.543  11.131  0.00  0.00    +0.000 A 
ATOM      4  C   UNL     1      45.212   4.087  12.422  0.00  0.00    +0.000 A 
ATOM      5  C   UNL     1      45.922   4.896  13.313  0.00  0.00    +0.000 A 
ATOM      6  C   UNL     1      46.347   6.185  12.959  0.00  0.00    +0.000 A 
ATOM      7  C   UNL     1      46.093   6.615  11.649  0.00  0.00    +0.000 A 
ATOM      8  C   UNL     1      45.400   5.803  10.741  0.00  0.00    +0.000 A 
BRANCH   3  10
ATOM      9  N   UNL     1      44.285   4.073   8.835  0.00  0.00    +0.000 N 
ATOM     10  C   UNL     1      44.212   3.699  10.149  0.00  0.00    +0.000 C 
ATOM     11  O   UNL     1      43.600   2.694  10.485  0.00  0.00    +0.000 OA
ATOM     12  H   UNL     1      43.872   3.438   8.165  0.00  0.00    +0.000 HD
ATOM     13  H   UNL     1      44.962   4.741   8.496  0.00  0.00    +0.000 HD
ENDBRANCH   3  10
ENDBRANCH   1   6
BRANCH   1  14
ATOM     14  C   UNL     1      48.412   6.491  14.271  0.00  0.00    +0.000 C 
BRANCH  14  15
ATOM     15  C   UNL     1      48.635   6.745  15.765  0.00  0.00    +0.000 C 
BRANCH  15  16
ATOM     16  C   UNL     1      48.607   5.435  16.525  0.00  0.00    +0.000 A 
ATOM     17  C   UNL     1      47.488   4.595  16.452  0.00  0.00    +0.000 A 
ATOM     18  C   UNL     1      47.500   3.346  17.076  0.00  0.00    +0.000 A 
ATOM     19  C   UNL     1      48.628   2.920  17.778  0.00  0.00    +0.000 A 
ATOM     20  C   UNL     1      49.747   3.747  17.860  0.00  0.00    +0.000 A 
ATOM     21  C   UNL     1      49.738   4.996  17.232  0.00  0.00    +0.000 A 
BRANCH  20  22
ATOM     22  O   UNL     1      50.928   3.355  18.438  0.00  0.00    +0.000 OA
BRANCH  22  23
ATOM     23  C   UNL     1      51.917   2.824  17.532  0.00  0.00    +0.000 C 
ATOM     24  C   UNL     1      51.959   1.316  17.503  0.00  0.00    +0.000 C 
ATOM     25  C   UNL     1      53.088   2.082  18.119  0.00  0.00    +0.000 C 
ENDBRANCH  22  23
ENDBRANCH  20  22
ENDBRANCH  15  16
ENDBRANCH  14  15
ENDBRANCH   1  14
TORSDOF 7
ENDMDL
