MODEL 1
REMARK VINA RESULT:    -8.671      0.000      0.000
REMARK INTER + INTRA:         -12.071
REMARK INTER:                 -11.459
REMARK INTRA:                  -0.612
REMARK UNBOUND:                -0.612
REMARK  Name = 
REMARK  7 active torsions:
REMARK  status: ('A' for Active; 'I' for Inactive)
REMARK    1  A    between atoms: C_1  and  C_2
REMARK    2  A    between atoms: C_2  and  C_3
REMARK    3  A    between atoms: C_7  and  C_8
REMARK    4  A    between atoms: C_8  and  O_9
REMARK    5  A    between atoms: C_8  and  C_10
REMARK    6  A    between atoms: C_10  and  N_11
REMARK    7  A    between atoms: C_15  and  C_16
REMARK                            x       y       z     vdW  Elec       q    Type
REMARK                         _______ _______ _______ _____ _____    ______ ____
ROOT
ATOM      1  C   UNL     1      43.247   4.932  12.379  0.00  0.00    +0.000 C 
ENDROOT
BRANCH   1   6
ATOM      2  C   UNL     1      46.700   6.514  12.974  0.00  0.00    +0.000 A 
ATOM      3  C   UNL     1      47.399   5.403  13.485  0.00  0.00    +0.000 A 
ATOM      4  C   UNL     1      46.795   4.151  13.596  0.00  0.00    +0.000 A 
ATOM      5  C   UNL     1      45.467   3.978  13.215  0.00  0.00    +0.000 A 
ATOM      6  C   UNL     1      44.734   5.054  12.693  0.00  0.00    +0.000 A 
ATOM      7  C   UNL     1      45.374   6.304  12.552  0.00  0.00    +0.000 A 
BRANCH   2   9
ATOM      8  C   UNL     1      46.264   8.972  12.898  0.00  0.00    +0.000 C 
ATOM      9  C   UNL     1      47.369   7.900  12.996  0.00  0.00    +0.000 C 
ATOM     10  C   UNL     1      48.238   8.087  14.245  0.00  0.00    +0.000 C 
ATOM     11  C   UNL     1      49.646   7.717  13.799  0.00  0.00    +0.000 C 
ATOM     12  O   UNL     1      49.642   7.603  12.372  0.00  0.00    +0.000 OA
ATOM     13  C   UNL     1      48.416   8.173  11.905  0.00  0.00    +0.000 C 
ENDBRANCH   2   9
ENDBRANCH   1   6
BRANCH   1  14
ATOM     14  O   UNL     1      42.606   6.216  12.317  0.00  0.00    +0.000 OA
ATOM     15  H   UNL     1      43.285   6.897  12.440  0.00  0.00    +0.000 HD
ENDBRANCH   1  14
BRANCH   1  16
ATOM     16  C   UNL     1      43.032   4.190  11.038  0.00  0.00    +0.000 C 
BRANCH  16  17
ATOM     17  N   UNL     1      43.819   4.804   9.955  0.00  0.00    +0.000 N 
ATOM     18  C   UNL     1      44.662   3.889   9.302  0.00  0.00    +0.000 A 
ATOM     19  C   UNL     1      45.469   4.343   8.264  0.00  0.00    +0.000 A 
ATOM     20  C   UNL     1      46.279   3.436   7.569  0.00  0.00    +0.000 A 
ATOM     21  C   UNL     1      46.265   2.094   7.938  0.00  0.00    +0.000 A 
ATOM     22  C   UNL     1      45.445   1.725   8.990  0.00  0.00    +0.000 A 
ATOM     23  N   UNL     1      44.641   2.587   9.657  0.00  0.00    +0.000 NA
ATOM     24  H   UNL     1      44.358   5.599  10.307  0.00  0.00    +0.000 HD
BRANCH  21  25
ATOM     25  C   UNL     1      47.094   1.058   7.282  0.00  0.00    +0.000 C 
ATOM     26  N   UNL     1      46.851  -0.246   7.631  0.00  0.00    +0.000 N 
ATOM     27  O   UNL     1      47.970   1.347   6.484  0.00  0.00    +0.000 OA
ATOM     28  H   UNL     1      46.294  -0.509   8.428  0.00  0.00    +0.000 HD
ATOM     29  H   UNL     1      47.475  -0.940   7.241  0.00  0.00    +0.000 HD
ENDBRANCH  21  25
ENDBRANCH  16  17
ENDBRANCH   1  16
TORSDOF 6
ENDMDL
MODEL 2
REMARK VINA RESULT:    -8.346      1.369      1.834
REMARK INTER + INTRA:         -11.641
REMARK INTER:                 -10.886
REMARK INTRA:                  -0.755
REMARK UNBOUND:                -0.612
REMARK  Name = 
REMARK  7 active torsions:
REMARK  status: ('A' for Active; 'I' for Inactive)
REMARK    1  A    between atoms: C_1  and  C_2
REMARK    2  A    between atoms: C_2  and  C_3
REMARK    3  A    between atoms: C_7  and  C_8
REMARK    4  A    between atoms: C_8  and  O_9
REMARK    5  A    between atoms: C_8  and  C_10
REMARK    6  A    between atoms: C_10  and  N_11
REMARK    7  A    between atoms: C_15  and  C_16
REMARK                            x       y       z     vdW  Elec       q    Type
REMARK                         _______ _______ _______ _____ _____    ______ ____
ROOT
ATOM      1  C   UNL     1      43.652   5.721  11.760  0.00  0.00    +0.000 C 
ENDROOT
BRANCH   1   6
ATOM      2  C   UNL     1      47.268   6.426  12.857  0.00  0.00    +0.000 A 
ATOM      3  C   UNL     1      47.511   5.293  13.657  0.00  0.00    +0.000 A 
ATOM      4  C   UNL     1      46.555   4.290  13.811  0.00  0.00    +0.000 A 
ATOM      5  C   UNL     1      45.319   4.401  13.180  0.00  0.00    +0.000 A 
ATOM      6  C   UNL     1      45.034   5.507  12.366  0.00  0.00    +0.000 A 
ATOM      7  C   UNL     1      46.029   6.492  12.193  0.00  0.00    +0.000 A 
BRANCH   2   9
ATOM      8  C   UNL     1      48.904   7.636  11.409  0.00  0.00    +0.000 C 
ATOM      9  C   UNL     1      48.304   7.565  12.827  0.00  0.00    +0.000 C 
ATOM     10  C   UNL     1      47.685   8.901  13.254  0.00  0.00    +0.000 C 
ATOM     11  C   UNL     1      48.001   9.020  14.738  0.00  0.00    +0.000 C 
ATOM     12  O   UNL     1      48.947   8.000  15.073  0.00  0.00    +0.000 OA
ATOM     13  C   UNL     1      49.453   7.472  13.844  0.00  0.00    +0.000 C 
ENDBRANCH   2   9
ENDBRANCH   1   6
BRANCH   1  14
ATOM     14  O   UNL     1      43.292   7.110  11.724  0.00  0.00    +0.000 OA
ATOM     15  H   UNL     1      43.799   7.570  12.411  0.00  0.00    +0.000 HD
ENDBRANCH   1  14
BRANCH   1  16
ATOM     16  C   UNL     1      43.592   5.142  10.325  0.00  0.00    +0.000 C 
BRANCH  16  17
ATOM     17  N   UNL     1      43.893   3.700  10.317  0.00  0.00    +0.000 N 
ATOM     18  C   UNL     1      44.788   3.332   9.297  0.00  0.00    +0.000 A 
ATOM     19  C   UNL     1      45.149   1.995   9.172  0.00  0.00    +0.000 A 
ATOM     20  C   UNL     1      46.076   1.617   8.194  0.00  0.00    +0.000 A 
ATOM     21  C   UNL     1      46.616   2.591   7.359  0.00  0.00    +0.000 A 
ATOM     22  C   UNL     1      46.196   3.897   7.539  0.00  0.00    +0.000 A 
ATOM     23  N   UNL     1      45.315   4.280   8.494  0.00  0.00    +0.000 NA
ATOM     24  H   UNL     1      43.032   3.153  10.252  0.00  0.00    +0.000 HD
BRANCH  21  25
ATOM     25  C   UNL     1      47.590   2.298   6.283  0.00  0.00    +0.000 C 
ATOM     26  N   UNL     1      47.554   3.103   5.174  0.00  0.00    +0.000 N 
ATOM     27  O   UNL     1      48.376   1.368   6.365  0.00  0.00    +0.000 OA
ATOM     28  H   UNL     1      46.795   3.736   4.976  0.00  0.00    +0.000 HD
ATOM     29  H   UNL     1      48.165   2.846   4.411  0.00  0.00    +0.000 HD
ENDBRANCH  21  25
ENDBRANCH  16  17
ENDBRANCH   1  16
TORSDOF 6
ENDMDL
MODEL 3
REMARK VINA RESULT:    -8.191      1.592      2.423
REMARK INTER + INTRA:         -11.437
REMARK INTER:                 -10.747
REMARK INTRA:                  -0.689
REMARK UNBOUND:                -0.612
REMARK  Name = 
REMARK  7 active torsions:
REMARK  status: ('A' for Active; 'I' for Inactive)
REMARK    1  A    between atoms: C_1  and  C_2
REMARK    2  A    between atoms: C_2  and  C_3
REMARK    3  A    between atoms: C_7  and  C_8
REMARK    4  A    between atoms: C_8  and  O_9
REMARK    5  A    between atoms: C_8  and  C_10
REMARK    6  A    between atoms: C_10  and  N_11
REMARK    7  A    between atoms: C_15  and  C_16
REMARK                            x       y       z     vdW  Elec       q    Type
REMARK                         _______ _______ _______ _____ _____    ______ ____
ROOT
ATOM      1  C   UNL     1      43.940   5.444  12.300  0.00  0.00    +0.000 C 
ENDROOT
BRANCH   1   6
ATOM      2  C   UNL     1      46.763   8.050  12.431  0.00  0.00    +0.000 A 
ATOM      3  C   UNL     1      46.115   9.150  11.836  0.00  0.00    +0.000 A 
ATOM      4  C   UNL     1      44.780   9.082  11.439  0.00  0.00    +0.000 A 
ATOM      5  C   UNL     1      44.059   7.903  11.611  0.00  0.00    +0.000 A 
ATOM      6  C   UNL     1      44.659   6.784  12.207  0.00  0.00    +0.000 A 
ATOM      7  C   UNL     1      46.000   6.886  12.637  0.00  0.00    +0.000 A 
BRANCH   2   9
ATOM      8  C   UNL     1      48.928   9.022  11.654  0.00  0.00    +0.000 C 
ATOM      9  C   UNL     1      48.271   8.134  12.729  0.00  0.00    +0.000 C 
ATOM     10  C   UNL     1      48.537   8.659  14.145  0.00  0.00    +0.000 C 
ATOM     11  C   UNL     1      48.716   7.409  14.996  0.00  0.00    +0.000 C 
ATOM     12  O   UNL     1      48.826   6.286  14.116  0.00  0.00    +0.000 OA
ATOM     13  C   UNL     1      49.032   6.800  12.797  0.00  0.00    +0.000 C 
ENDBRANCH   2   9
ENDBRANCH   1   6
BRANCH   1  14
ATOM     14  O   UNL     1      42.823   5.497  13.201  0.00  0.00    +0.000 OA
ATOM     15  H   UNL     1      42.867   4.723  13.782  0.00  0.00    +0.000 HD
ENDBRANCH   1  14
BRANCH   1  16
ATOM     16  C   UNL     1      43.448   4.991  10.904  0.00  0.00    +0.000 C 
BRANCH  16  17
ATOM     17  N   UNL     1      43.673   3.551  10.699  0.00  0.00    +0.000 N 
ATOM     18  C   UNL     1      44.570   3.279   9.652  0.00  0.00    +0.000 A 
ATOM     19  C   UNL     1      44.863   1.954   9.346  0.00  0.00    +0.000 A 
ATOM     20  C   UNL     1      45.792   1.664   8.339  0.00  0.00    +0.000 A 
ATOM     21  C   UNL     1      46.401   2.713   7.657  0.00  0.00    +0.000 A 
ATOM     22  C   UNL     1      46.046   4.003   8.012  0.00  0.00    +0.000 A 
ATOM     23  N   UNL     1      45.165   4.298   8.998  0.00  0.00    +0.000 NA
ATOM     24  H   UNL     1      42.786   3.066  10.545  0.00  0.00    +0.000 HD
BRANCH  21  25
ATOM     25  C   UNL     1      47.383   2.519   6.566  0.00  0.00    +0.000 C 
ATOM     26  N   UNL     1      47.234   3.299   5.449  0.00  0.00    +0.000 N 
ATOM     27  O   UNL     1      48.272   1.688   6.644  0.00  0.00    +0.000 OA
ATOM     28  H   UNL     1      46.404   3.837   5.258  0.00  0.00    +0.000 HD
ATOM     29  H   UNL     1      47.857   3.103   4.677  0.00  0.00    +0.000 HD
ENDBRANCH  21  25
ENDBRANCH  16  17
ENDBRANCH   1  16
TORSDOF 6
ENDMDL
MODEL 4
REMARK VINA RESULT:    -7.124      3.888      7.407
REMARK INTER + INTRA:         -10.026
REMARK INTER:                  -9.149
REMARK INTRA:                  -0.877
REMARK UNBOUND:                -0.612
REMARK  Name = 
REMARK  7 active torsions:
REMARK  status: ('A' for Active; 'I' for Inactive)
REMARK    1  A    between atoms: C_1  and  C_2
REMARK    2  A    between atoms: C_2  and  C_3
REMARK    3  A    between atoms: C_7  and  C_8
REMARK    4  A    between atoms: C_8  and  O_9
REMARK    5  A    between atoms: C_8  and  C_10
REMARK    6  A    between atoms: C_10  and  N_11
REMARK    7  A    between atoms: C_15  and  C_16
REMARK                            x       y       z     vdW  Elec       q    Type
REMARK                         _______ _______ _______ _____ _____    ______ ____
ROOT
ATOM      1  C   UNL     1      47.675   8.855  13.531  0.00  0.00    +0.000 C 
ENDROOT
BRANCH   1   6
ATOM      2  C   UNL     1      44.999   6.976  11.511  0.00  0.00    +0.000 A 
ATOM      3  C   UNL     1      44.203   8.057  11.084  0.00  0.00    +0.000 A 
ATOM      4  C   UNL     1      44.538   9.374  11.394  0.00  0.00    +0.000 A 
ATOM      5  C   UNL     1      45.671   9.647  12.156  0.00  0.00    +0.000 A 
ATOM      6  C   UNL     1      46.498   8.604  12.596  0.00  0.00    +0.000 A 
ATOM      7  C   UNL     1      46.163   7.280  12.239  0.00  0.00    +0.000 A 
BRANCH   2   9
ATOM      8  C   UNL     1      45.259   4.988  10.021  0.00  0.00    +0.000 C 
ATOM      9  C   UNL     1      44.515   5.537  11.255  0.00  0.00    +0.000 C 
ATOM     10  C   UNL     1      44.717   4.647  12.487  0.00  0.00    +0.000 C 
ATOM     11  C   UNL     1      43.379   4.677  13.212  0.00  0.00    +0.000 C 
ATOM     12  O   UNL     1      42.418   5.287  12.344  0.00  0.00    +0.000 OA
ATOM     13  C   UNL     1      43.004   5.349  11.041  0.00  0.00    +0.000 C 
ENDBRANCH   2   9
ENDBRANCH   1   6
BRANCH   1  14
ATOM     14  O   UNL     1      47.260   8.950  14.902  0.00  0.00    +0.000 OA
ATOM     15  H   UNL     1      46.903   8.089  15.169  0.00  0.00    +0.000 HD
ENDBRANCH   1  14
BRANCH   1  16
ATOM     16  C   UNL     1      48.728   7.728  13.395  0.00  0.00    +0.000 C 
BRANCH  16  17
ATOM     17  N   UNL     1      49.512   7.577  14.633  0.00  0.00    +0.000 N 
ATOM     18  C   UNL     1      49.036   6.548  15.463  0.00  0.00    +0.000 A 
ATOM     19  C   UNL     1      49.682   6.306  16.670  0.00  0.00    +0.000 A 
ATOM     20  C   UNL     1      49.253   5.254  17.487  0.00  0.00    +0.000 A 
ATOM     21  C   UNL     1      48.179   4.470  17.076  0.00  0.00    +0.000 A 
ATOM     22  C   UNL     1      47.581   4.784  15.867  0.00  0.00    +0.000 A 
ATOM     23  N   UNL     1      47.999   5.786  15.057  0.00  0.00    +0.000 NA
ATOM     24  H   UNL     1      49.550   8.461  15.145  0.00  0.00    +0.000 HD
BRANCH  21  25
ATOM     25  C   UNL     1      47.634   3.346  17.869  0.00  0.00    +0.000 C 
ATOM     26  N   UNL     1      48.295   3.024  19.027  0.00  0.00    +0.000 N 
ATOM     27  O   UNL     1      46.655   2.717  17.503  0.00  0.00    +0.000 OA
ATOM     28  H   UNL     1      49.213   3.372  19.254  0.00  0.00    +0.000 HD
ATOM     29  H   UNL     1      47.966   2.204  19.520  0.00  0.00    +0.000 HD
ENDBRANCH  21  25
ENDBRANCH  16  17
ENDBRANCH   1  16
TORSDOF 6
ENDMDL
MODEL 5
REMARK VINA RESULT:    -6.976      3.413      5.735
REMARK INTER + INTRA:          -9.831
REMARK INTER:                  -8.886
REMARK INTRA:                  -0.944
REMARK UNBOUND:                -0.612
REMARK  Name = 
REMARK  7 active torsions:
REMARK  status: ('A' for Active; 'I' for Inactive)
REMARK    1  A    between atoms: C_1  and  C_2
REMARK    2  A    between atoms: C_2  and  C_3
REMARK    3  A    between atoms: C_7  and  C_8
REMARK    4  A    between atoms: C_8  and  O_9
REMARK    5  A    between atoms: C_8  and  C_10
REMARK    6  A    between atoms: C_10  and  N_11
REMARK    7  A    between atoms: C_15  and  C_16
REMARK                            x       y       z     vdW  Elec       q    Type
REMARK                         _______ _______ _______ _____ _____    ______ ____
ROOT
ATOM      1  C   UNL     1      49.281   7.641  13.648  0.00  0.00    +0.000 C 
ENDROOT
BRANCH   1   6
ATOM      2  C   UNL     1      49.135   5.706  16.966  0.00  0.00    +0.000 A 
ATOM      3  C   UNL     1      50.441   5.931  17.443  0.00  0.00    +0.000 A 
ATOM      4  C   UNL     1      51.346   6.727  16.743  0.00  0.00    +0.000 A 
ATOM      5  C   UNL     1      50.975   7.310  15.534  0.00  0.00    +0.000 A 
ATOM      6  C   UNL     1      49.682   7.121  15.023  0.00  0.00    +0.000 A 
ATOM      7  C   UNL     1      48.769   6.343  15.766  0.00  0.00    +0.000 A 
BRANCH   2   9
ATOM      8  C   UNL     1      47.264   5.519  18.610  0.00  0.00    +0.000 C 
ATOM      9  C   UNL     1      48.222   4.714  17.708  0.00  0.00    +0.000 C 
ATOM     10  C   UNL     1      47.462   3.809  16.732  0.00  0.00    +0.000 C 
ATOM     11  C   UNL     1      48.302   2.543  16.639  0.00  0.00    +0.000 C 
ATOM     12  O   UNL     1      49.294   2.594  17.670  0.00  0.00    +0.000 OA
ATOM     13  C   UNL     1      48.922   3.646  18.564  0.00  0.00    +0.000 C 
ENDBRANCH   2   9
ENDBRANCH   1   6
BRANCH   1  14
ATOM     14  O   UNL     1      49.732   6.775  12.595  0.00  0.00    +0.000 OA
ATOM     15  H   UNL     1      49.704   7.273  11.764  0.00  0.00    +0.000 HD
ENDBRANCH   1  14
BRANCH   1  16
ATOM     16  C   UNL     1      47.744   7.801  13.553  0.00  0.00    +0.000 C 
BRANCH  16  17
ATOM     17  N   UNL     1      47.276   7.657  12.164  0.00  0.00    +0.000 N 
ATOM     18  C   UNL     1      46.501   6.503  11.963  0.00  0.00    +0.000 A 
ATOM     19  C   UNL     1      46.004   6.242  10.690  0.00  0.00    +0.000 A 
ATOM     20  C   UNL     1      45.188   5.123  10.481  0.00  0.00    +0.000 A 
ATOM     21  C   UNL     1      44.895   4.287  11.554  0.00  0.00    +0.000 A 
ATOM     22  C   UNL     1      45.439   4.609  12.786  0.00  0.00    +0.000 A 
ATOM     23  N   UNL     1      46.213   5.698  13.007  0.00  0.00    +0.000 NA
ATOM     24  H   UNL     1      48.066   7.675  11.515  0.00  0.00    +0.000 HD
BRANCH  21  25
ATOM     25  C   UNL     1      44.059   3.071  11.440  0.00  0.00    +0.000 C 
ATOM     26  N   UNL     1      43.726   2.432  12.606  0.00  0.00    +0.000 N 
ATOM     27  O   UNL     1      43.698   2.641  10.357  0.00  0.00    +0.000 OA
ATOM     28  H   UNL     1      44.171   2.628  13.489  0.00  0.00    +0.000 HD
ATOM     29  H   UNL     1      43.225   1.559  12.514  0.00  0.00    +0.000 HD
ENDBRANCH  21  25
ENDBRANCH  16  17
ENDBRANCH   1  16
TORSDOF 6
ENDMDL
MODEL 6
REMARK VINA RESULT:    -6.867      5.458      8.712
REMARK INTER + INTRA:          -9.686
REMARK INTER:                  -8.965
REMARK INTRA:                  -0.721
REMARK UNBOUND:                -0.612
REMARK  Name = 
REMARK  7 active torsions:
REMARK  status: ('A' for Active; 'I' for Inactive)
REMARK    1  A    between atoms: C_1  and  C_2
REMARK    2  A    between atoms: C_2  and  C_3
REMARK    3  A    between atoms: C_7  and  C_8
REMARK    4  A    between atoms: C_8  and  O_9
REMARK    5  A    between atoms: C_8  and  C_10
REMARK    6  A    between atoms: C_10  and  N_11
REMARK    7  A    between atoms: C_15  and  C_16
REMARK                            x       y       z     vdW  Elec       q    Type
REMARK                         _______ _______ _______ _____ _____    ______ ____
ROOT
ATOM      1  C   UNL     1      47.105   4.556  14.908  0.00  0.00    +0.000 C 
ENDROOT
BRANCH   1   6
ATOM      2  C   UNL     1      45.178   4.925  11.603  0.00  0.00    +0.000 A 
ATOM      3  C   UNL     1      45.836   6.044  11.054  0.00  0.00    +0.000 A 
ATOM      4  C   UNL     1      46.911   6.648  11.704  0.00  0.00    +0.000 A 
ATOM      5  C   UNL     1      47.350   6.159  12.932  0.00  0.00    +0.000 A 
ATOM      6  C   UNL     1      46.732   5.043  13.513  0.00  0.00    +0.000 A 
ATOM      7  C   UNL     1      45.670   4.422  12.821  0.00  0.00    +0.000 A 
BRANCH   2   9
ATOM      8  C   UNL     1      42.698   5.167  11.436  0.00  0.00    +0.000 C 
ATOM      9  C   UNL     1      43.915   4.379  10.912  0.00  0.00    +0.000 C 
ATOM     10  C   UNL     1      44.031   4.455   9.385  0.00  0.00    +0.000 C 
ATOM     11  C   UNL     1      44.525   3.078   8.963  0.00  0.00    +0.000 C 
ATOM     12  O   UNL     1      44.433   2.209  10.096  0.00  0.00    +0.000 OA
ATOM     13  C   UNL     1      43.638   2.877  11.079  0.00  0.00    +0.000 C 
ENDBRANCH   2   9
ENDBRANCH   1   6
BRANCH   1  14
ATOM     14  O   UNL     1      47.585   3.203  14.893  0.00  0.00    +0.000 OA
ATOM     15  H   UNL     1      47.223   2.764  14.109  0.00  0.00    +0.000 HD
ENDBRANCH   1  14
BRANCH   1  16
ATOM     16  C   UNL     1      48.185   5.473  15.534  0.00  0.00    +0.000 C 
BRANCH  16  17
ATOM     17  N   UNL     1      48.052   5.531  16.999  0.00  0.00    +0.000 N 
ATOM     18  C   UNL     1      49.212   5.112  17.673  0.00  0.00    +0.000 A 
ATOM     19  C   UNL     1      49.217   5.109  19.064  0.00  0.00    +0.000 A 
ATOM     20  C   UNL     1      50.379   4.741  19.752  0.00  0.00    +0.000 A 
ATOM     21  C   UNL     1      51.510   4.378  19.027  0.00  0.00    +0.000 A 
ATOM     22  C   UNL     1      51.420   4.394  17.645  0.00  0.00    +0.000 A 
ATOM     23  N   UNL     1      50.309   4.767  16.967  0.00  0.00    +0.000 NA
ATOM     24  H   UNL     1      47.242   4.990  17.310  0.00  0.00    +0.000 HD
BRANCH  21  25
ATOM     25  C   UNL     1      52.783   3.957  19.653  0.00  0.00    +0.000 C 
ATOM     26  N   UNL     1      53.422   4.876  20.445  0.00  0.00    +0.000 N 
ATOM     27  O   UNL     1      53.258   2.850  19.460  0.00  0.00    +0.000 OA
ATOM     28  H   UNL     1      53.179   5.854  20.461  0.00  0.00    +0.000 HD
ATOM     29  H   UNL     1      54.330   4.609  20.802  0.00  0.00    +0.000 HD
ENDBRANCH  21  25
ENDBRANCH  16  17
ENDBRANCH   1  16
TORSDOF 6
ENDMDL
MODEL 7
REMARK VINA RESULT:    -6.706      3.558      5.733
REMARK INTER + INTRA:          -9.473
REMARK INTER:                  -8.541
REMARK INTRA:                  -0.933
REMARK UNBOUND:                -0.612
REMARK  Name = 
REMARK  7 active torsions:
REMARK  status: ('A' for Active; 'I' for Inactive)
REMARK    1  A    between atoms: C_1  and  C_2
REMARK    2  A    between atoms: C_2  and  C_3
REMARK    3  A    between atoms: C_7  and  C_8
REMARK    4  A    between atoms: C_8  and  O_9
REMARK    5  A    between atoms: C_8  and  C_10
REMARK    6  A    between atoms: C_10  and  N_11
REMARK    7  A    between atoms: C_15  and  C_16
REMARK                            x       y       z     vdW  Elec       q    Type
REMARK                         _______ _______ _______ _____ _____    ______ ____
ROOT
ATOM      1  C   UNL     1      48.882   7.551  13.662  0.00  0.00    +0.000 C 
ENDROOT
BRANCH   1   6
ATOM      2  C   UNL     1      48.573   5.951  17.143  0.00  0.00    +0.000 A 
ATOM      3  C   UNL     1      48.551   7.106  17.948  0.00  0.00    +0.000 A 
ATOM      4  C   UNL     1      48.586   8.384  17.390  0.00  0.00    +0.000 A 
ATOM      5  C   UNL     1      48.662   8.541  16.009  0.00  0.00    +0.000 A 
ATOM      6  C   UNL     1      48.678   7.420  15.167  0.00  0.00    +0.000 A 
ATOM      7  C   UNL     1      48.603   6.136  15.749  0.00  0.00    +0.000 A 
BRANCH   2   9
ATOM      8  C   UNL     1      47.410   3.759  17.429  0.00  0.00    +0.000 C 
ATOM      9  C   UNL     1      48.666   4.567  17.813  0.00  0.00    +0.000 C 
ATOM     10  C   UNL     1      49.957   3.838  17.423  0.00  0.00    +0.000 C 
ATOM     11  C   UNL     1      50.934   4.146  18.549  0.00  0.00    +0.000 C 
ATOM     12  O   UNL     1      50.199   4.752  19.618  0.00  0.00    +0.000 OA
ATOM     13  C   UNL     1      48.810   4.555  19.343  0.00  0.00    +0.000 C 
ENDBRANCH   2   9
ENDBRANCH   1   6
BRANCH   1  14
ATOM     14  O   UNL     1      49.129   6.280  13.042  0.00  0.00    +0.000 OA
ATOM     15  H   UNL     1      49.264   6.429  12.093  0.00  0.00    +0.000 HD
ENDBRANCH   1  14
BRANCH   1  16
ATOM     16  C   UNL     1      47.648   8.209  13.000  0.00  0.00    +0.000 C 
BRANCH  16  17
ATOM     17  N   UNL     1      46.394   7.626  13.508  0.00  0.00    +0.000 N 
ATOM     18  C   UNL     1      45.804   6.723  12.607  0.00  0.00    +0.000 A 
ATOM     19  C   UNL     1      44.608   6.108  12.961  0.00  0.00    +0.000 A 
ATOM     20  C   UNL     1      44.030   5.169  12.098  0.00  0.00    +0.000 A 
ATOM     21  C   UNL     1      44.665   4.873  10.895  0.00  0.00    +0.000 A 
ATOM     22  C   UNL     1      45.846   5.538  10.611  0.00  0.00    +0.000 A 
ATOM     23  N   UNL     1      46.426   6.433  11.445  0.00  0.00    +0.000 NA
ATOM     24  H   UNL     1      45.732   8.363  13.762  0.00  0.00    +0.000 HD
BRANCH  21  25
ATOM     25  C   UNL     1      44.133   3.910   9.905  0.00  0.00    +0.000 C 
ATOM     26  N   UNL     1      44.115   4.311   8.594  0.00  0.00    +0.000 N 
ATOM     27  O   UNL     1      43.709   2.816  10.238  0.00  0.00    +0.000 OA
ATOM     28  H   UNL     1      44.255   5.267   8.308  0.00  0.00    +0.000 HD
ATOM     29  H   UNL     1      43.675   3.681   7.936  0.00  0.00    +0.000 HD
ENDBRANCH  21  25
ENDBRANCH  16  17
ENDBRANCH   1  16
TORSDOF 6
ENDMDL
MODEL 8
REMARK VINA RESULT:    -6.542      4.002      5.818
REMARK INTER + INTRA:          -9.257
REMARK INTER:                  -8.482
REMARK INTRA:                  -0.775
REMARK UNBOUND:                -0.612
REMARK  Name = 
REMARK  7 active torsions:
REMARK  status: ('A' for Active; 'I' for Inactive)
REMARK    1  A    between atoms: C_1  and  C_2
REMARK    2  A    between atoms: C_2  and  C_3
REMARK    3  A    between atoms: C_7  and  C_8
REMARK    4  A    between atoms: C_8  and  O_9
REMARK    5  A    between atoms: C_8  and  C_10
REMARK    6  A    between atoms: C_10  and  N_11
REMARK    7  A    between atoms: C_15  and  C_16
REMARK                            x       y       z     vdW  Elec       q    Type
REMARK                         _______ _______ _______ _____ _____    ______ ____
ROOT
ATOM      1  C   UNL     1      47.709   3.376  17.165  0.00  0.00    +0.000 C 
ENDROOT
BRANCH   1   6
ATOM      2  C   UNL     1      49.920   6.355  18.168  0.00  0.00    +0.000 A 
ATOM      3  C   UNL     1      48.985   7.131  18.881  0.00  0.00    +0.000 A 
ATOM      4  C   UNL     1      47.677   6.692  19.083  0.00  0.00    +0.000 A 
ATOM      5  C   UNL     1      47.262   5.470  18.562  0.00  0.00    +0.000 A 
ATOM      6  C   UNL     1      48.159   4.659  17.852  0.00  0.00    +0.000 A 
ATOM      7  C   UNL     1      49.489   5.104  17.691  0.00  0.00    +0.000 A 
BRANCH   2   9
ATOM      8  C   UNL     1      52.267   6.543  19.000  0.00  0.00    +0.000 C 
ATOM      9  C   UNL     1      51.309   6.944  17.860  0.00  0.00    +0.000 C 
ATOM     10  C   UNL     1      51.825   6.484  16.492  0.00  0.00    +0.000 C 
ATOM     11  C   UNL     1      51.440   7.604  15.535  0.00  0.00    +0.000 C 
ATOM     12  O   UNL     1      51.002   8.721  16.314  0.00  0.00    +0.000 OA
ATOM     13  C   UNL     1      51.381   8.467  17.669  0.00  0.00    +0.000 C 
ENDBRANCH   2   9
ENDBRANCH   1   6
BRANCH   1  14
ATOM     14  O   UNL     1      46.378   2.999  17.552  0.00  0.00    +0.000 OA
ATOM     15  H   UNL     1      46.143   3.502  18.347  0.00  0.00    +0.000 HD
ENDBRANCH   1  14
BRANCH   1  16
ATOM     16  C   UNL     1      47.765   3.533  15.626  0.00  0.00    +0.000 C 
BRANCH  16  17
ATOM     17  N   UNL     1      47.040   4.736  15.184  0.00  0.00    +0.000 N 
ATOM     18  C   UNL     1      46.321   4.538  13.993  0.00  0.00    +0.000 A 
ATOM     19  C   UNL     1      45.598   5.600  13.461  0.00  0.00    +0.000 A 
ATOM     20  C   UNL     1      44.836   5.408  12.302  0.00  0.00    +0.000 A 
ATOM     21  C   UNL     1      44.822   4.153  11.700  0.00  0.00    +0.000 A 
ATOM     22  C   UNL     1      45.578   3.152  12.285  0.00  0.00    +0.000 A 
ATOM     23  N   UNL     1      46.303   3.318  13.416  0.00  0.00    +0.000 NA
ATOM     24  H   UNL     1      47.680   5.527  15.088  0.00  0.00    +0.000 HD
BRANCH  21  25
ATOM     25  C   UNL     1      44.065   3.847  10.465  0.00  0.00    +0.000 C 
ATOM     26  N   UNL     1      44.034   4.817   9.497  0.00  0.00    +0.000 N 
ATOM     27  O   UNL     1      43.476   2.788  10.320  0.00  0.00    +0.000 OA
ATOM     28  H   UNL     1      44.321   5.769   9.660  0.00  0.00    +0.000 HD
ATOM     29  H   UNL     1      43.448   4.632   8.694  0.00  0.00    +0.000 HD
ENDBRANCH  21  25
ENDBRANCH  16  17
ENDBRANCH   1  16
TORSDOF 6
ENDMDL
MODEL 9
REMARK VINA RESULT:    -6.476      4.528      8.041
REMARK INTER + INTRA:          -9.169
REMARK INTER:                  -8.390
REMARK INTRA:                  -0.780
REMARK UNBOUND:                -0.612
REMARK  Name = 
REMARK  7 active torsions:
REMARK  status: ('A' for Active; 'I' for Inactive)
REMARK    1  A    between atoms: C_1  and  C_2
REMARK    2  A    between atoms: C_2  and  C_3
REMARK    3  A    between atoms: C_7  and  C_8
REMARK    4  A    between atoms: C_8  and  O_9
REMARK    5  A    between atoms: C_8  and  C_10
REMARK    6  A    between atoms: C_10  and  N_11
REMARK    7  A    between atoms: C_15  and  C_16
REMARK                            x       y       z     vdW  Elec       q    Type
REMARK                         _______ _______ _______ _____ _____    ______ ____
ROOT
ATOM      1  C   UNL     1      48.742   7.179  13.438  0.00  0.00    +0.000 C 
ENDROOT
BRANCH   1   6
ATOM      2  C   UNL     1      45.489   6.306  11.585  0.00  0.00    +0.000 A 
ATOM      3  C   UNL     1      44.797   7.526  11.709  0.00  0.00    +0.000 A 
ATOM      4  C   UNL     1      45.373   8.631  12.333  0.00  0.00    +0.000 A 
ATOM      5  C   UNL     1      46.656   8.542  12.867  0.00  0.00    +0.000 A 
ATOM      6  C   UNL     1      47.388   7.350  12.761  0.00  0.00    +0.000 A 
ATOM      7  C   UNL     1      46.801   6.255  12.091  0.00  0.00    +0.000 A 
BRANCH   2   9
ATOM      8  C   UNL     1      45.297   4.824   9.584  0.00  0.00    +0.000 C 
ATOM      9  C   UNL     1      44.760   5.080  11.006  0.00  0.00    +0.000 C 
ATOM     10  C   UNL     1      44.920   3.851  11.908  0.00  0.00    +0.000 C 
ATOM     11  C   UNL     1      43.672   3.841  12.779  0.00  0.00    +0.000 C 
ATOM     12  O   UNL     1      42.752   4.798  12.244  0.00  0.00    +0.000 OA
ATOM     13  C   UNL     1      43.226   5.161  10.945  0.00  0.00    +0.000 C 
ENDBRANCH   2   9
ENDBRANCH   1   6
BRANCH   1  14
ATOM     14  O   UNL     1      49.737   8.046  12.873  0.00  0.00    +0.000 OA
ATOM     15  H   UNL     1      49.685   7.975  11.907  0.00  0.00    +0.000 HD
ENDBRANCH   1  14
BRANCH   1  16
ATOM     16  C   UNL     1      48.630   7.454  14.957  0.00  0.00    +0.000 C 
BRANCH  16  17
ATOM     17  N   UNL     1      48.069   6.295  15.671  0.00  0.00    +0.000 N 
ATOM     18  C   UNL     1      49.035   5.570  16.388  0.00  0.00    +0.000 A 
ATOM     19  C   UNL     1      48.638   4.443  17.100  0.00  0.00    +0.000 A 
ATOM     20  C   UNL     1      49.578   3.737  17.861  0.00  0.00    +0.000 A 
ATOM     21  C   UNL     1      50.898   4.176  17.884  0.00  0.00    +0.000 A 
ATOM     22  C   UNL     1      51.216   5.298  17.139  0.00  0.00    +0.000 A 
ATOM     23  N   UNL     1      50.313   6.002  16.415  0.00  0.00    +0.000 NA
ATOM     24  H   UNL     1      47.569   5.681  15.023  0.00  0.00    +0.000 HD
BRANCH  21  25
ATOM     25  C   UNL     1      51.973   3.495  18.640  0.00  0.00    +0.000 C 
ATOM     26  N   UNL     1      52.166   2.162  18.384  0.00  0.00    +0.000 N 
ATOM     27  O   UNL     1      52.645   4.084  19.471  0.00  0.00    +0.000 OA
ATOM     28  H   UNL     1      51.507   1.597  17.872  0.00  0.00    +0.000 HD
ATOM     29  H   UNL     1      52.846   1.686  18.963  0.00  0.00    +0.000 HD
ENDBRANCH  21  25
ENDBRANCH  16  17
ENDBRANCH   1  16
TORSDOF 6
ENDMDL
