MODEL 1
REMARK VINA RESULT:    -7.205      0.000      0.000
REMARK INTER + INTRA:          -9.764
REMARK INTER:                  -9.100
REMARK INTRA:                  -0.663
REMARK UNBOUND:                -0.663
REMARK  Name = 
REMARK  5 active torsions:
REMARK  status: ('A' for Active; 'I' for Inactive)
REMARK    1  A    between atoms: N_1  and  C_2
REMARK    2  A    between atoms: C_2  and  C_3
REMARK    3  A    between atoms: C_6  and  C_7
REMARK    4  A    between atoms: C_7  and  N_8
REMARK    5  A    between atoms: C_13  and  C_14
REMARK                            x       y       z     vdW  Elec       q    Type
REMARK                         _______ _______ _______ _____ _____    ______ ____
ROOT
ATOM      1  N   UNL     1      44.497   4.907  10.460  0.00  0.00    +0.000 N 
ATOM      2  C   UNL     1      43.721   3.905  11.001  0.00  0.00    +0.000 A 
ATOM      3  C   UNL     1      44.114   2.708  10.450  0.00  0.00    +0.000 A 
ATOM      4  C   UNL     1      45.031   3.008   9.423  0.00  0.00    +0.000 A 
ATOM      5  C   UNL     1      45.690   2.229   8.469  0.00  0.00    +0.000 A 
ATOM      6  C   UNL     1      46.490   2.874   7.528  0.00  0.00    +0.000 A 
ATOM      7  C   UNL     1      46.630   4.261   7.631  0.00  0.00    +0.000 A 
ATOM      8  N   UNL     1      46.046   5.065   8.571  0.00  0.00    +0.000 NA
ATOM      9  C   UNL     1      45.247   4.386   9.423  0.00  0.00    +0.000 A 
ENDROOT
BRANCH   6  10
ATOM     10  C   UNL     1      47.146   2.129   6.432  0.00  0.00    +0.000 C 
ATOM     11  N   UNL     1      47.768   2.831   5.433  0.00  0.00    +0.000 N 
ATOM     12  O   UNL     1      47.152   0.897   6.417  0.00  0.00    +0.000 OA
ATOM     13  H   UNL     1      47.841   3.836   5.384  0.00  0.00    +0.000 HD
ATOM     14  H   UNL     1      48.236   2.304   4.711  0.00  0.00    +0.000 HD
ENDBRANCH   6  10
BRANCH   1  15
ATOM     15  C   UNL     1      44.518   6.291  10.919  0.00  0.00    +0.000 C 
BRANCH  15  19
ATOM     16  C   UNL     1      47.597   8.161  12.312  0.00  0.00    +0.000 C 
ATOM     17  C   UNL     1      47.585   6.694  11.854  0.00  0.00    +0.000 C 
ATOM     18  C   UNL     1      46.490   5.883  12.544  0.00  0.00    +0.000 C 
ATOM     19  C   UNL     1      45.084   6.487  12.353  0.00  0.00    +0.000 C 
ATOM     20  C   UNL     1      45.093   7.972  12.773  0.00  0.00    +0.000 C 
ATOM     21  C   UNL     1      46.204   8.779  12.100  0.00  0.00    +0.000 C 
BRANCH  16  22
ATOM     22  C   UNL     1      48.057   8.316  13.777  0.00  0.00    +0.000 C 
BRANCH  22  23
ATOM     23  N   UNL     1      47.886   9.683  14.253  0.00  0.00    +0.000 NA
ATOM     24  H   UNL     1      47.661   9.670  15.247  0.00  0.00    +0.000 HD
ATOM     25  H   UNL     1      47.089  10.109  13.782  0.00  0.00    +0.000 HD
ENDBRANCH  22  23
ENDBRANCH  16  22
ENDBRANCH  15  19
ENDBRANCH   1  15
TORSDOF 5
ENDMDL
MODEL 2
REMARK VINA RESULT:    -6.774      2.609      6.815
REMARK INTER + INTRA:          -9.219
REMARK INTER:                  -8.587
REMARK INTRA:                  -0.632
REMARK UNBOUND:                -0.663
REMARK  Name = 
REMARK  5 active torsions:
REMARK  status: ('A' for Active; 'I' for Inactive)
REMARK    1  A    between atoms: N_1  and  C_2
REMARK    2  A    between atoms: C_2  and  C_3
REMARK    3  A    between atoms: C_6  and  C_7
REMARK    4  A    between atoms: C_7  and  N_8
REMARK    5  A    between atoms: C_13  and  C_14
REMARK                            x       y       z     vdW  Elec       q    Type
REMARK                         _______ _______ _______ _____ _____    ______ ____
ROOT
ATOM      1  N   UNL     1      44.283   4.102  11.054  0.00  0.00    +0.000 N 
ATOM      2  C   UNL     1      42.946   4.305  11.315  0.00  0.00    +0.000 A 
ATOM      3  C   UNL     1      42.771   5.617  11.685  0.00  0.00    +0.000 A 
ATOM      4  C   UNL     1      44.056   6.182  11.820  0.00  0.00    +0.000 A 
ATOM      5  C   UNL     1      44.514   7.429  12.250  0.00  0.00    +0.000 A 
ATOM      6  C   UNL     1      45.889   7.633  12.336  0.00  0.00    +0.000 A 
ATOM      7  C   UNL     1      46.730   6.594  11.930  0.00  0.00    +0.000 A 
ATOM      8  N   UNL     1      46.336   5.372  11.458  0.00  0.00    +0.000 NA
ATOM      9  C   UNL     1      44.993   5.221  11.444  0.00  0.00    +0.000 A 
ENDROOT
BRANCH   6  10
ATOM     10  C   UNL     1      46.451   8.894  12.869  0.00  0.00    +0.000 C 
ATOM     11  N   UNL     1      46.811   8.953  14.189  0.00  0.00    +0.000 N 
ATOM     12  O   UNL     1      46.610   9.876  12.141  0.00  0.00    +0.000 OA
ATOM     13  H   UNL     1      46.747   8.190  14.847  0.00  0.00    +0.000 HD
ATOM     14  H   UNL     1      47.220   9.812  14.526  0.00  0.00    +0.000 HD
ENDBRANCH   6  10
BRANCH   1  15
ATOM     15  C   UNL     1      44.847   2.896  10.457  0.00  0.00    +0.000 C 
BRANCH  15  19
ATOM     16  C   UNL     1      47.054   2.888   7.288  0.00  0.00    +0.000 C 
ATOM     17  C   UNL     1      46.398   4.132   7.906  0.00  0.00    +0.000 C 
ATOM     18  C   UNL     1      44.892   3.955   8.097  0.00  0.00    +0.000 C 
ATOM     19  C   UNL     1      44.535   2.718   8.945  0.00  0.00    +0.000 C 
ATOM     20  C   UNL     1      45.222   1.467   8.357  0.00  0.00    +0.000 C 
ATOM     21  C   UNL     1      46.724   1.652   8.143  0.00  0.00    +0.000 C 
BRANCH  16  22
ATOM     22  C   UNL     1      46.639   2.672   5.817  0.00  0.00    +0.000 C 
BRANCH  22  23
ATOM     23  N   UNL     1      47.788   2.712   4.922  0.00  0.00    +0.000 NA
ATOM     24  H   UNL     1      47.662   3.461   4.242  0.00  0.00    +0.000 HD
ATOM     25  H   UNL     1      47.835   1.844   4.391  0.00  0.00    +0.000 HD
ENDBRANCH  22  23
ENDBRANCH  16  22
ENDBRANCH  15  19
ENDBRANCH   1  15
TORSDOF 5
ENDMDL
MODEL 3
REMARK VINA RESULT:    -5.887      4.508      6.178
REMARK INTER + INTRA:          -8.099
REMARK INTER:                  -7.658
REMARK INTRA:                  -0.441
REMARK UNBOUND:                -0.663
REMARK  Name = 
REMARK  5 active torsions:
REMARK  status: ('A' for Active; 'I' for Inactive)
REMARK    1  A    between atoms: N_1  and  C_2
REMARK    2  A    between atoms: C_2  and  C_3
REMARK    3  A    between atoms: C_6  and  C_7
REMARK    4  A    between atoms: C_7  and  N_8
REMARK    5  A    between atoms: C_13  and  C_14
REMARK                            x       y       z     vdW  Elec       q    Type
REMARK                         _______ _______ _______ _____ _____    ______ ____
ROOT
ATOM      1  N   UNL     1      47.437   5.344  14.604  0.00  0.00    +0.000 N 
ATOM      2  C   UNL     1      47.963   6.534  14.151  0.00  0.00    +0.000 A 
ATOM      3  C   UNL     1      47.328   6.869  12.979  0.00  0.00    +0.000 A 
ATOM      4  C   UNL     1      46.519   5.772  12.619  0.00  0.00    +0.000 A 
ATOM      5  C   UNL     1      45.724   5.492  11.506  0.00  0.00    +0.000 A 
ATOM      6  C   UNL     1      45.105   4.246  11.434  0.00  0.00    +0.000 A 
ATOM      7  C   UNL     1      45.271   3.371  12.511  0.00  0.00    +0.000 A 
ATOM      8  N   UNL     1      45.999   3.611  13.644  0.00  0.00    +0.000 NA
ATOM      9  C   UNL     1      46.611   4.816  13.630  0.00  0.00    +0.000 A 
ENDROOT
BRANCH   6  10
ATOM     10  C   UNL     1      44.322   3.840  10.246  0.00  0.00    +0.000 C 
ATOM     11  N   UNL     1      44.262   4.687   9.171  0.00  0.00    +0.000 N 
ATOM     12  O   UNL     1      43.742   2.753  10.209  0.00  0.00    +0.000 OA
ATOM     13  H   UNL     1      44.732   5.578   9.102  0.00  0.00    +0.000 HD
ATOM     14  H   UNL     1      43.748   4.379   8.359  0.00  0.00    +0.000 HD
ENDBRANCH   6  10
BRANCH   1  15
ATOM     15  C   UNL     1      47.712   4.748  15.907  0.00  0.00    +0.000 C 
BRANCH  15  19
ATOM     16  C   UNL     1      48.715   4.632  19.635  0.00  0.00    +0.000 C 
ATOM     17  C   UNL     1      47.655   5.567  19.032  0.00  0.00    +0.000 C 
ATOM     18  C   UNL     1      48.201   6.377  17.857  0.00  0.00    +0.000 C 
ATOM     19  C   UNL     1      48.793   5.492  16.741  0.00  0.00    +0.000 C 
ATOM     20  C   UNL     1      49.831   4.519  17.341  0.00  0.00    +0.000 C 
ATOM     21  C   UNL     1      49.291   3.727  18.532  0.00  0.00    +0.000 C 
BRANCH  16  22
ATOM     22  C   UNL     1      49.837   5.403  20.362  0.00  0.00    +0.000 C 
BRANCH  22  23
ATOM     23  N   UNL     1      50.870   4.506  20.864  0.00  0.00    +0.000 NA
ATOM     24  H   UNL     1      51.711   4.609  20.299  0.00  0.00    +0.000 HD
ATOM     25  H   UNL     1      50.563   3.540  20.753  0.00  0.00    +0.000 HD
ENDBRANCH  22  23
ENDBRANCH  16  22
ENDBRANCH  15  19
ENDBRANCH   1  15
TORSDOF 5
ENDMDL
MODEL 4
REMARK VINA RESULT:    -5.882      4.806      8.327
REMARK INTER + INTRA:          -8.092
REMARK INTER:                  -7.621
REMARK INTRA:                  -0.471
REMARK UNBOUND:                -0.663
REMARK  Name = 
REMARK  5 active torsions:
REMARK  status: ('A' for Active; 'I' for Inactive)
REMARK    1  A    between atoms: N_1  and  C_2
REMARK    2  A    between atoms: C_2  and  C_3
REMARK    3  A    between atoms: C_6  and  C_7
REMARK    4  A    between atoms: C_7  and  N_8
REMARK    5  A    between atoms: C_13  and  C_14
REMARK                            x       y       z     vdW  Elec       q    Type
REMARK                         _______ _______ _______ _____ _____    ______ ____
ROOT
ATOM      1  N   UNL     1      48.120   6.610  14.269  0.00  0.00    +0.000 N 
ATOM      2  C   UNL     1      48.547   7.905  14.461  0.00  0.00    +0.000 A 
ATOM      3  C   UNL     1      49.182   7.976  15.678  0.00  0.00    +0.000 A 
ATOM      4  C   UNL     1      48.985   6.736  16.319  0.00  0.00    +0.000 A 
ATOM      5  C   UNL     1      49.310   6.251  17.588  0.00  0.00    +0.000 A 
ATOM      6  C   UNL     1      48.886   4.969  17.933  0.00  0.00    +0.000 A 
ATOM      7  C   UNL     1      48.209   4.223  16.965  0.00  0.00    +0.000 A 
ATOM      8  N   UNL     1      47.906   4.630  15.695  0.00  0.00    +0.000 NA
ATOM      9  C   UNL     1      48.301   5.898  15.439  0.00  0.00    +0.000 A 
ENDROOT
BRANCH   6  10
ATOM     10  C   UNL     1      49.112   4.420  19.287  0.00  0.00    +0.000 C 
ATOM     11  N   UNL     1      48.443   3.286  19.663  0.00  0.00    +0.000 N 
ATOM     12  O   UNL     1      49.900   4.959  20.068  0.00  0.00    +0.000 OA
ATOM     13  H   UNL     1      47.808   2.762  19.078  0.00  0.00    +0.000 HD
ATOM     14  H   UNL     1      48.633   2.910  20.580  0.00  0.00    +0.000 HD
ENDBRANCH   6  10
BRANCH   1  15
ATOM     15  C   UNL     1      47.568   6.084  13.026  0.00  0.00    +0.000 C 
BRANCH  15  19
ATOM     16  C   UNL     1      44.973   4.245  10.835  0.00  0.00    +0.000 C 
ATOM     17  C   UNL     1      45.673   5.561  10.461  0.00  0.00    +0.000 C 
ATOM     18  C   UNL     1      45.517   6.626  11.545  0.00  0.00    +0.000 C 
ATOM     19  C   UNL     1      46.019   6.157  12.925  0.00  0.00    +0.000 C 
ATOM     20  C   UNL     1      45.352   4.815  13.295  0.00  0.00    +0.000 C 
ATOM     21  C   UNL     1      45.488   3.756  12.200  0.00  0.00    +0.000 C 
BRANCH  16  22
ATOM     22  C   UNL     1      43.435   4.377  10.836  0.00  0.00    +0.000 C 
BRANCH  22  23
ATOM     23  N   UNL     1      42.797   3.225  11.462  0.00  0.00    +0.000 NA
ATOM     24  H   UNL     1      43.401   2.410  11.367  0.00  0.00    +0.000 HD
ATOM     25  H   UNL     1      41.934   3.005  10.968  0.00  0.00    +0.000 HD
ENDBRANCH  22  23
ENDBRANCH  16  22
ENDBRANCH  15  19
ENDBRANCH   1  15
TORSDOF 5
ENDMDL
MODEL 5
REMARK VINA RESULT:    -5.280      3.078      4.817
REMARK INTER + INTRA:          -7.333
REMARK INTER:                  -6.813
REMARK INTRA:                  -0.520
REMARK UNBOUND:                -0.663
REMARK  Name = 
REMARK  5 active torsions:
REMARK  status: ('A' for Active; 'I' for Inactive)
REMARK    1  A    between atoms: N_1  and  C_2
REMARK    2  A    between atoms: C_2  and  C_3
REMARK    3  A    between atoms: C_6  and  C_7
REMARK    4  A    between atoms: C_7  and  N_8
REMARK    5  A    between atoms: C_13  and  C_14
REMARK                            x       y       z     vdW  Elec       q    Type
REMARK                         _______ _______ _______ _____ _____    ______ ____
ROOT
ATOM      1  N   UNL     1      47.583   6.296  13.995  0.00  0.00    +0.000 N 
ATOM      2  C   UNL     1      47.648   5.329  14.974  0.00  0.00    +0.000 A 
ATOM      3  C   UNL     1      46.976   4.216  14.528  0.00  0.00    +0.000 A 
ATOM      4  C   UNL     1      46.339   4.574  13.322  0.00  0.00    +0.000 A 
ATOM      5  C   UNL     1      45.458   3.906  12.469  0.00  0.00    +0.000 A 
ATOM      6  C   UNL     1      44.946   4.600  11.375  0.00  0.00    +0.000 A 
ATOM      7  C   UNL     1      45.391   5.907  11.165  0.00  0.00    +0.000 A 
ATOM      8  N   UNL     1      46.286   6.592  11.940  0.00  0.00    +0.000 NA
ATOM      9  C   UNL     1      46.707   5.882  13.010  0.00  0.00    +0.000 A 
ENDROOT
BRANCH   6  10
ATOM     10  C   UNL     1      43.938   3.992  10.478  0.00  0.00    +0.000 C 
ATOM     11  N   UNL     1      43.904   4.376   9.164  0.00  0.00    +0.000 N 
ATOM     12  O   UNL     1      43.148   3.142  10.894  0.00  0.00    +0.000 OA
ATOM     13  H   UNL     1      44.532   5.037   8.732  0.00  0.00    +0.000 HD
ATOM     14  H   UNL     1      43.229   3.927   8.562  0.00  0.00    +0.000 HD
ENDBRANCH   6  10
BRANCH   1  15
ATOM     15  C   UNL     1      48.327   7.551  14.005  0.00  0.00    +0.000 C 
BRANCH  15  19
ATOM     16  C   UNL     1      50.354  10.156  12.001  0.00  0.00    +0.000 C 
ATOM     17  C   UNL     1      49.302   9.207  11.408  0.00  0.00    +0.000 C 
ATOM     18  C   UNL     1      49.583   7.746  11.752  0.00  0.00    +0.000 C 
ATOM     19  C   UNL     1      49.695   7.496  13.269  0.00  0.00    +0.000 C 
ATOM     20  C   UNL     1      50.721   8.471  13.884  0.00  0.00    +0.000 C 
ATOM     21  C   UNL     1      50.453   9.932  13.520  0.00  0.00    +0.000 C 
BRANCH  16  22
ATOM     22  C   UNL     1      51.734  10.001  11.326  0.00  0.00    +0.000 C 
BRANCH  22  23
ATOM     23  N   UNL     1      51.787  10.693  10.044  0.00  0.00    +0.000 NA
ATOM     24  H   UNL     1      51.008  10.387   9.462  0.00  0.00    +0.000 HD
ATOM     25  H   UNL     1      52.638  10.429   9.551  0.00  0.00    +0.000 HD
ENDBRANCH  22  23
ENDBRANCH  16  22
ENDBRANCH  15  19
ENDBRANCH   1  15
TORSDOF 5
ENDMDL
MODEL 6
REMARK VINA RESULT:    -5.055      3.573      5.006
REMARK INTER + INTRA:          -7.048
REMARK INTER:                  -6.834
REMARK INTRA:                  -0.214
REMARK UNBOUND:                -0.663
REMARK  Name = 
REMARK  5 active torsions:
REMARK  status: ('A' for Active; 'I' for Inactive)
REMARK    1  A    between atoms: N_1  and  C_2
REMARK    2  A    between atoms: C_2  and  C_3
REMARK    3  A    between atoms: C_6  and  C_7
REMARK    4  A    between atoms: C_7  and  N_8
REMARK    5  A    between atoms: C_13  and  C_14
REMARK                            x       y       z     vdW  Elec       q    Type
REMARK                         _______ _______ _______ _____ _____    ______ ____
ROOT
ATOM      1  N   UNL     1      46.080   8.404  12.840  0.00  0.00    +0.000 N 
ATOM      2  C   UNL     1      45.399   9.217  11.961  0.00  0.00    +0.000 A 
ATOM      3  C   UNL     1      44.405   8.475  11.367  0.00  0.00    +0.000 A 
ATOM      4  C   UNL     1      44.596   7.136  11.765  0.00  0.00    +0.000 A 
ATOM      5  C   UNL     1      43.970   5.936  11.421  0.00  0.00    +0.000 A 
ATOM      6  C   UNL     1      44.474   4.752  11.956  0.00  0.00    +0.000 A 
ATOM      7  C   UNL     1      45.543   4.844  12.852  0.00  0.00    +0.000 A 
ATOM      8  N   UNL     1      46.162   5.993  13.258  0.00  0.00    +0.000 NA
ATOM      9  C   UNL     1      45.658   7.100  12.668  0.00  0.00    +0.000 A 
ENDROOT
BRANCH   6  10
ATOM     10  C   UNL     1      43.924   3.435  11.569  0.00  0.00    +0.000 C 
ATOM     11  N   UNL     1      43.845   2.446  12.514  0.00  0.00    +0.000 N 
ATOM     12  O   UNL     1      43.527   3.225  10.421  0.00  0.00    +0.000 OA
ATOM     13  H   UNL     1      44.115   2.541  13.482  0.00  0.00    +0.000 HD
ATOM     14  H   UNL     1      43.439   1.564  12.238  0.00  0.00    +0.000 HD
ENDBRANCH   6  10
BRANCH   1  15
ATOM     15  C   UNL     1      47.082   8.859  13.798  0.00  0.00    +0.000 C 
BRANCH  15  19
ATOM     16  C   UNL     1      50.370   7.536  12.264  0.00  0.00    +0.000 C 
ATOM     17  C   UNL     1      50.164   7.891  13.745  0.00  0.00    +0.000 C 
ATOM     18  C   UNL     1      49.626   9.309  13.929  0.00  0.00    +0.000 C 
ATOM     19  C   UNL     1      48.314   9.558  13.159  0.00  0.00    +0.000 C 
ATOM     20  C   UNL     1      48.497   9.168  11.677  0.00  0.00    +0.000 C 
ATOM     21  C   UNL     1      49.057   7.758  11.493  0.00  0.00    +0.000 C 
BRANCH  16  22
ATOM     22  C   UNL     1      51.530   8.329  11.624  0.00  0.00    +0.000 C 
BRANCH  22  23
ATOM     23  N   UNL     1      52.789   8.097  12.321  0.00  0.00    +0.000 NA
ATOM     24  H   UNL     1      53.122   8.973  12.721  0.00  0.00    +0.000 HD
ATOM     25  H   UNL     1      53.497   7.797  11.653  0.00  0.00    +0.000 HD
ENDBRANCH  22  23
ENDBRANCH  16  22
ENDBRANCH  15  19
ENDBRANCH   1  15
TORSDOF 5
ENDMDL
MODEL 7
REMARK VINA RESULT:    -5.018      4.776      6.772
REMARK INTER + INTRA:          -7.001
REMARK INTER:                  -6.776
REMARK INTRA:                  -0.225
REMARK UNBOUND:                -0.663
REMARK  Name = 
REMARK  5 active torsions:
REMARK  status: ('A' for Active; 'I' for Inactive)
REMARK    1  A    between atoms: N_1  and  C_2
REMARK    2  A    between atoms: C_2  and  C_3
REMARK    3  A    between atoms: C_6  and  C_7
REMARK    4  A    between atoms: C_7  and  N_8
REMARK    5  A    between atoms: C_13  and  C_14
REMARK                            x       y       z     vdW  Elec       q    Type
REMARK                         _______ _______ _______ _____ _____    ______ ____
ROOT
ATOM      1  N   UNL     1      47.044   4.903  13.998  0.00  0.00    +0.000 N 
ATOM      2  C   UNL     1      45.829   4.853  13.351  0.00  0.00    +0.000 A 
ATOM      3  C   UNL     1      45.871   5.717  12.283  0.00  0.00    +0.000 A 
ATOM      4  C   UNL     1      47.078   6.439  12.384  0.00  0.00    +0.000 A 
ATOM      5  C   UNL     1      47.626   7.497  11.655  0.00  0.00    +0.000 A 
ATOM      6  C   UNL     1      48.835   8.038  12.085  0.00  0.00    +0.000 A 
ATOM      7  C   UNL     1      49.459   7.449  13.188  0.00  0.00    +0.000 A 
ATOM      8  N   UNL     1      48.992   6.384  13.908  0.00  0.00    +0.000 NA
ATOM      9  C   UNL     1      47.793   5.938  13.471  0.00  0.00    +0.000 A 
ENDROOT
BRANCH   6  10
ATOM     10  C   UNL     1      49.433   9.217  11.421  0.00  0.00    +0.000 C 
ATOM     11  N   UNL     1      48.635  10.294  11.138  0.00  0.00    +0.000 N 
ATOM     12  O   UNL     1      50.632   9.246  11.137  0.00  0.00    +0.000 OA
ATOM     13  H   UNL     1      47.654  10.369  11.366  0.00  0.00    +0.000 HD
ATOM     14  H   UNL     1      49.067  11.100  10.713  0.00  0.00    +0.000 HD
ENDBRANCH   6  10
BRANCH   1  15
ATOM     15  C   UNL     1      47.464   4.002  15.065  0.00  0.00    +0.000 C 
BRANCH  15  19
ATOM     16  C   UNL     1      49.440   3.969  18.383  0.00  0.00    +0.000 C 
ATOM     17  C   UNL     1      48.501   2.853  17.902  0.00  0.00    +0.000 C 
ATOM     18  C   UNL     1      47.110   3.379  17.552  0.00  0.00    +0.000 C 
ATOM     19  C   UNL     1      47.142   4.506  16.500  0.00  0.00    +0.000 C 
ATOM     20  C   UNL     1      48.113   5.617  16.953  0.00  0.00    +0.000 C 
ATOM     21  C   UNL     1      49.497   5.087  17.326  0.00  0.00    +0.000 C 
BRANCH  16  22
ATOM     22  C   UNL     1      49.030   4.530  19.762  0.00  0.00    +0.000 C 
BRANCH  22  23
ATOM     23  N   UNL     1      48.399   3.511  20.591  0.00  0.00    +0.000 NA
ATOM     24  H   UNL     1      49.118   2.930  21.020  0.00  0.00    +0.000 HD
ATOM     25  H   UNL     1      47.841   2.894  20.003  0.00  0.00    +0.000 HD
ENDBRANCH  22  23
ENDBRANCH  16  22
ENDBRANCH  15  19
ENDBRANCH   1  15
TORSDOF 5
ENDMDL
MODEL 8
REMARK VINA RESULT:    -4.954      4.484      6.483
REMARK INTER + INTRA:          -6.920
REMARK INTER:                  -6.496
REMARK INTRA:                  -0.424
REMARK UNBOUND:                -0.663
REMARK  Name = 
REMARK  5 active torsions:
REMARK  status: ('A' for Active; 'I' for Inactive)
REMARK    1  A    between atoms: N_1  and  C_2
REMARK    2  A    between atoms: C_2  and  C_3
REMARK    3  A    between atoms: C_6  and  C_7
REMARK    4  A    between atoms: C_7  and  N_8
REMARK    5  A    between atoms: C_13  and  C_14
REMARK                            x       y       z     vdW  Elec       q    Type
REMARK                         _______ _______ _______ _____ _____    ______ ____
ROOT
ATOM      1  N   UNL     1      46.518   4.682  13.532  0.00  0.00    +0.000 N 
ATOM      2  C   UNL     1      45.654   3.810  12.907  0.00  0.00    +0.000 A 
ATOM      3  C   UNL     1      44.930   4.513  11.973  0.00  0.00    +0.000 A 
ATOM      4  C   UNL     1      45.237   5.877  12.154  0.00  0.00    +0.000 A 
ATOM      5  C   UNL     1      44.755   7.053  11.575  0.00  0.00    +0.000 A 
ATOM      6  C   UNL     1      45.234   8.269  12.056  0.00  0.00    +0.000 A 
ATOM      7  C   UNL     1      46.213   8.238  13.052  0.00  0.00    +0.000 A 
ATOM      8  N   UNL     1      46.753   7.117  13.621  0.00  0.00    +0.000 NA
ATOM      9  C   UNL     1      46.213   5.973  13.145  0.00  0.00    +0.000 A 
ENDROOT
BRANCH   6  10
ATOM     10  C   UNL     1      44.706   9.558  11.557  0.00  0.00    +0.000 C 
ATOM     11  N   UNL     1      45.089  10.717  12.180  0.00  0.00    +0.000 N 
ATOM     12  O   UNL     1      43.944   9.600  10.589  0.00  0.00    +0.000 OA
ATOM     13  H   UNL     1      45.734  10.778  12.955  0.00  0.00    +0.000 HD
ATOM     14  H   UNL     1      44.742  11.587  11.806  0.00  0.00    +0.000 HD
ENDBRANCH   6  10
BRANCH   1  15
ATOM     15  C   UNL     1      47.581   4.293  14.451  0.00  0.00    +0.000 C 
BRANCH  15  19
ATOM     16  C   UNL     1      49.666   4.011  17.690  0.00  0.00    +0.000 C 
ATOM     17  C   UNL     1      48.874   2.863  17.045  0.00  0.00    +0.000 C 
ATOM     18  C   UNL     1      47.411   3.234  16.806  0.00  0.00    +0.000 C 
ATOM     19  C   UNL     1      47.246   4.509  15.954  0.00  0.00    +0.000 C 
ATOM     20  C   UNL     1      48.070   5.659  16.571  0.00  0.00    +0.000 C 
ATOM     21  C   UNL     1      49.527   5.280  16.832  0.00  0.00    +0.000 C 
BRANCH  16  22
ATOM     22  C   UNL     1      49.234   4.278  19.148  0.00  0.00    +0.000 C 
BRANCH  22  23
ATOM     23  N   UNL     1      50.382   4.369  20.042  0.00  0.00    +0.000 NA
ATOM     24  H   UNL     1      50.588   5.349  20.229  0.00  0.00    +0.000 HD
ATOM     25  H   UNL     1      51.204   3.985  19.578  0.00  0.00    +0.000 HD
ENDBRANCH  22  23
ENDBRANCH  16  22
ENDBRANCH  15  19
ENDBRANCH   1  15
TORSDOF 5
ENDMDL
MODEL 9
REMARK VINA RESULT:    -4.584      4.504      6.558
REMARK INTER + INTRA:          -6.453
REMARK INTER:                  -5.823
REMARK INTRA:                  -0.630
REMARK UNBOUND:                -0.663
REMARK  Name = 
REMARK  5 active torsions:
REMARK  status: ('A' for Active; 'I' for Inactive)
REMARK    1  A    between atoms: N_1  and  C_2
REMARK    2  A    between atoms: C_2  and  C_3
REMARK    3  A    between atoms: C_6  and  C_7
REMARK    4  A    between atoms: C_7  and  N_8
REMARK    5  A    between atoms: C_13  and  C_14
REMARK                            x       y       z     vdW  Elec       q    Type
REMARK                         _______ _______ _______ _____ _____    ______ ____
ROOT
ATOM      1  N   UNL     1      47.194   7.057  12.850  0.00  0.00    +0.000 N 
ATOM      2  C   UNL     1      46.414   6.389  11.931  0.00  0.00    +0.000 A 
ATOM      3  C   UNL     1      46.032   5.188  12.479  0.00  0.00    +0.000 A 
ATOM      4  C   UNL     1      46.738   5.044  13.690  0.00  0.00    +0.000 A 
ATOM      5  C   UNL     1      46.834   4.013  14.627  0.00  0.00    +0.000 A 
ATOM      6  C   UNL     1      47.707   4.175  15.700  0.00  0.00    +0.000 A 
ATOM      7  C   UNL     1      48.394   5.387  15.806  0.00  0.00    +0.000 A 
ATOM      8  N   UNL     1      48.303   6.446  14.945  0.00  0.00    +0.000 NA
ATOM      9  C   UNL     1      47.478   6.207  13.902  0.00  0.00    +0.000 A 
ENDROOT
BRANCH   6  10
ATOM     10  C   UNL     1      47.932   3.092  16.684  0.00  0.00    +0.000 C 
ATOM     11  N   UNL     1      46.965   2.835  17.618  0.00  0.00    +0.000 N 
ATOM     12  O   UNL     1      48.963   2.418  16.660  0.00  0.00    +0.000 OA
ATOM     13  H   UNL     1      46.078   3.313  17.689  0.00  0.00    +0.000 HD
ATOM     14  H   UNL     1      47.124   2.073  18.261  0.00  0.00    +0.000 HD
ENDBRANCH   6  10
BRANCH   1  15
ATOM     15  C   UNL     1      47.641   8.439  12.723  0.00  0.00    +0.000 C 
BRANCH  15  19
ATOM     16  C   UNL     1      51.265   9.760  12.543  0.00  0.00    +0.000 C 
ATOM     17  C   UNL     1      50.002  10.633  12.488  0.00  0.00    +0.000 C 
ATOM     18  C   UNL     1      49.031  10.175  11.400  0.00  0.00    +0.000 C 
ATOM     19  C   UNL     1      48.622   8.695  11.545  0.00  0.00    +0.000 C 
ATOM     20  C   UNL     1      49.884   7.811  11.641  0.00  0.00    +0.000 C 
ATOM     21  C   UNL     1      50.866   8.284  12.713  0.00  0.00    +0.000 C 
BRANCH  16  22
ATOM     22  C   UNL     1      52.168   9.952  11.305  0.00  0.00    +0.000 C 
BRANCH  22  23
ATOM     23  N   UNL     1      52.512  11.353  11.102  0.00  0.00    +0.000 NA
ATOM     24  H   UNL     1      51.784  11.804  10.550  0.00  0.00    +0.000 HD
ATOM     25  H   UNL     1      53.370  11.416  10.556  0.00  0.00    +0.000 HD
ENDBRANCH  22  23
ENDBRANCH  16  22
ENDBRANCH  15  19
ENDBRANCH   1  15
TORSDOF 5
ENDMDL
