MODEL 1
REMARK VINA RESULT:    -7.639      0.000      0.000
REMARK INTER + INTRA:         -10.153
REMARK INTER:                  -9.425
REMARK INTRA:                  -0.728
REMARK UNBOUND:                -0.728
REMARK  Name = 
REMARK  5 active torsions:
REMARK  status: ('A' for Active; 'I' for Inactive)
REMARK    1  A    between atoms: C_1  and  C_2
REMARK    2  A    between atoms: C_4  and  C_5
REMARK    3  A    between atoms: N_10  and  C_11
REMARK    4  A    between atoms: C_11  and  C_12
REMARK    5  A    between atoms: C_16  and  C_17
REMARK                            x       y       z     vdW  Elec       q    Type
REMARK                         _______ _______ _______ _____ _____    ______ ____
ROOT
ATOM      1  C   UNL     1      43.967   5.487  11.528  0.00  0.00    +0.000 C 
ATOM      2  C   UNL     1      42.574   6.087  11.351  0.00  0.00    +0.000 C 
ATOM      3  C   UNL     1      42.970   5.519  12.673  0.00  0.00    +0.000 C 
ENDROOT
BRANCH   1  10
ATOM      4  C   UNL     1      49.688   7.471  11.543  0.00  0.00    +0.000 C 
ATOM      5  C   UNL     1      48.510   6.854  12.233  0.00  0.00    +0.000 A 
ATOM      6  C   UNL     1      48.625   6.301  13.483  0.00  0.00    +0.000 A 
ATOM      7  C   UNL     1      47.467   5.762  13.993  0.00  0.00    +0.000 A 
ATOM      8  N   UNL     1      46.276   5.744  13.348  0.00  0.00    +0.000 NA
ATOM      9  C   UNL     1      46.257   6.318  12.142  0.00  0.00    +0.000 A 
ATOM     10  N   UNL     1      45.076   6.439  11.412  0.00  0.00    +0.000 N 
ATOM     11  N   UNL     1      47.338   6.870  11.563  0.00  0.00    +0.000 NA
ATOM     12  H   UNL     1      45.345   6.748  10.484  0.00  0.00    +0.000 HD
BRANCH   7  13
ATOM     13  C   UNL     1      47.482   5.168  15.364  0.00  0.00    +0.000 C 
ATOM     14  N   UNL     1      48.174   5.881  16.306  0.00  0.00    +0.000 N 
ATOM     15  O   UNL     1      46.928   4.108  15.633  0.00  0.00    +0.000 OA
ATOM     16  H   UNL     1      48.649   6.736  16.038  0.00  0.00    +0.000 HD
ATOM     17  H   UNL     1      48.261   5.519  17.245  0.00  0.00    +0.000 HD
ENDBRANCH   7  13
ENDBRANCH   1  10
BRANCH   1  18
ATOM     18  C   UNL     1      44.236   4.117  10.912  0.00  0.00    +0.000 A 
ATOM     19  C   UNL     1      43.503   2.988  11.304  0.00  0.00    +0.000 A 
ATOM     20  C   UNL     1      43.645   1.771  10.639  0.00  0.00    +0.000 A 
ATOM     21  C   UNL     1      44.524   1.663   9.559  0.00  0.00    +0.000 A 
ATOM     22  C   UNL     1      45.299   2.757   9.140  0.00  0.00    +0.000 A 
ATOM     23  C   UNL     1      45.164   3.957   9.864  0.00  0.00    +0.000 A 
BRANCH  22  24
ATOM     24  C   UNL     1      46.156   2.690   7.939  0.00  0.00    +0.000 A 
ATOM     25  C   UNL     1      46.200   3.716   6.982  0.00  0.00    +0.000 A 
ATOM     26  C   UNL     1      46.978   3.582   5.831  0.00  0.00    +0.000 A 
ATOM     27  C   UNL     1      47.711   2.421   5.665  0.00  0.00    +0.000 A 
ATOM     28  N   UNL     1      47.713   1.407   6.551  0.00  0.00    +0.000 NA
ATOM     29  C   UNL     1      46.935   1.566   7.653  0.00  0.00    +0.000 A 
ENDBRANCH  22  24
ENDBRANCH   1  18
TORSDOF 4
ENDMDL
MODEL 2
REMARK VINA RESULT:    -7.104      2.330      4.817
REMARK INTER + INTRA:          -9.493
REMARK INTER:                  -9.448
REMARK INTRA:                  -0.046
REMARK UNBOUND:                -0.728
REMARK  Name = 
REMARK  5 active torsions:
REMARK  status: ('A' for Active; 'I' for Inactive)
REMARK    1  A    between atoms: C_1  and  C_2
REMARK    2  A    between atoms: C_4  and  C_5
REMARK    3  A    between atoms: N_10  and  C_11
REMARK    4  A    between atoms: C_11  and  C_12
REMARK    5  A    between atoms: C_16  and  C_17
REMARK                            x       y       z     vdW  Elec       q    Type
REMARK                         _______ _______ _______ _____ _____    ______ ____
ROOT
ATOM      1  C   UNL     1      48.594   7.880  12.912  0.00  0.00    +0.000 C 
ATOM      2  C   UNL     1      49.686   7.047  12.244  0.00  0.00    +0.000 C 
ATOM      3  C   UNL     1      49.515   8.480  11.865  0.00  0.00    +0.000 C 
ENDROOT
BRANCH   1  10
ATOM      4  C   UNL     1      50.406   6.777  18.584  0.00  0.00    +0.000 C 
ATOM      5  C   UNL     1      49.611   6.418  17.366  0.00  0.00    +0.000 A 
ATOM      6  C   UNL     1      48.988   5.201  17.254  0.00  0.00    +0.000 A 
ATOM      7  C   UNL     1      48.301   5.002  16.079  0.00  0.00    +0.000 A 
ATOM      8  N   UNL     1      48.221   5.903  15.071  0.00  0.00    +0.000 NA
ATOM      9  C   UNL     1      48.848   7.064  15.275  0.00  0.00    +0.000 A 
ATOM     10  N   UNL     1      48.773   8.105  14.350  0.00  0.00    +0.000 N 
ATOM     11  N   UNL     1      49.544   7.349  16.389  0.00  0.00    +0.000 NA
ATOM     12  H   UNL     1      49.453   8.798  14.645  0.00  0.00    +0.000 HD
BRANCH   7  13
ATOM     13  C   UNL     1      47.557   3.722  15.878  0.00  0.00    +0.000 C 
ATOM     14  N   UNL     1      46.891   3.251  16.977  0.00  0.00    +0.000 N 
ATOM     15  O   UNL     1      47.550   3.120  14.811  0.00  0.00    +0.000 OA
ATOM     16  H   UNL     1      46.948   3.758  17.853  0.00  0.00    +0.000 HD
ATOM     17  H   UNL     1      46.400   2.369  16.926  0.00  0.00    +0.000 HD
ENDBRANCH   7  13
ENDBRANCH   1  10
BRANCH   1  18
ATOM     18  C   UNL     1      47.151   7.642  12.478  0.00  0.00    +0.000 A 
ATOM     19  C   UNL     1      46.176   8.640  12.619  0.00  0.00    +0.000 A 
ATOM     20  C   UNL     1      44.897   8.477  12.089  0.00  0.00    +0.000 A 
ATOM     21  C   UNL     1      44.570   7.307  11.400  0.00  0.00    +0.000 A 
ATOM     22  C   UNL     1      45.502   6.267  11.250  0.00  0.00    +0.000 A 
ATOM     23  C   UNL     1      46.768   6.447  11.838  0.00  0.00    +0.000 A 
BRANCH  22  24
ATOM     24  C   UNL     1      45.208   5.068  10.438  0.00  0.00    +0.000 A 
ATOM     25  C   UNL     1      45.642   4.928   9.111  0.00  0.00    +0.000 A 
ATOM     26  C   UNL     1      45.288   3.804   8.362  0.00  0.00    +0.000 A 
ATOM     27  C   UNL     1      44.511   2.831   8.964  0.00  0.00    +0.000 A 
ATOM     28  N   UNL     1      44.071   2.909  10.235  0.00  0.00    +0.000 NA
ATOM     29  C   UNL     1      44.424   4.021  10.930  0.00  0.00    +0.000 A 
ENDBRANCH  22  24
ENDBRANCH   1  18
TORSDOF 4
ENDMDL
MODEL 3
REMARK VINA RESULT:    -6.990      2.734      5.265
REMARK INTER + INTRA:          -9.353
REMARK INTER:                  -8.511
REMARK INTRA:                  -0.841
REMARK UNBOUND:                -0.728
REMARK  Name = 
REMARK  5 active torsions:
REMARK  status: ('A' for Active; 'I' for Inactive)
REMARK    1  A    between atoms: C_1  and  C_2
REMARK    2  A    between atoms: C_4  and  C_5
REMARK    3  A    between atoms: N_10  and  C_11
REMARK    4  A    between atoms: C_11  and  C_12
REMARK    5  A    between atoms: C_16  and  C_17
REMARK                            x       y       z     vdW  Elec       q    Type
REMARK                         _______ _______ _______ _____ _____    ______ ____
ROOT
ATOM      1  C   UNL     1      49.036   7.970  12.727  0.00  0.00    +0.000 C 
ATOM      2  C   UNL     1      49.948   8.295  11.547  0.00  0.00    +0.000 C 
ATOM      3  C   UNL     1      49.549   9.379  12.490  0.00  0.00    +0.000 C 
ENDROOT
BRANCH   1  10
ATOM      4  C   UNL     1      49.264   4.506  17.689  0.00  0.00    +0.000 C 
ATOM      5  C   UNL     1      49.071   5.834  17.022  0.00  0.00    +0.000 A 
ATOM      6  C   UNL     1      48.606   6.921  17.717  0.00  0.00    +0.000 A 
ATOM      7  C   UNL     1      48.469   8.073  16.978  0.00  0.00    +0.000 A 
ATOM      8  N   UNL     1      48.749   8.179  15.657  0.00  0.00    +0.000 NA
ATOM      9  C   UNL     1      49.209   7.072  15.067  0.00  0.00    +0.000 A 
ATOM     10  N   UNL     1      49.612   7.072  13.733  0.00  0.00    +0.000 N 
ATOM     11  N   UNL     1      49.376   5.902  15.708  0.00  0.00    +0.000 NA
ATOM     12  H   UNL     1      49.757   6.101  13.479  0.00  0.00    +0.000 HD
BRANCH   7  13
ATOM     13  C   UNL     1      48.004   9.321  17.654  0.00  0.00    +0.000 C 
ATOM     14  N   UNL     1      47.885  10.419  16.845  0.00  0.00    +0.000 N 
ATOM     15  O   UNL     1      47.759   9.372  18.854  0.00  0.00    +0.000 OA
ATOM     16  H   UNL     1      48.130  10.347  15.865  0.00  0.00    +0.000 HD
ATOM     17  H   UNL     1      47.614  11.308  17.243  0.00  0.00    +0.000 HD
ENDBRANCH   7  13
ENDBRANCH   1  10
BRANCH   1  18
ATOM     18  C   UNL     1      47.555   7.738  12.440  0.00  0.00    +0.000 A 
ATOM     19  C   UNL     1      46.601   8.730  12.706  0.00  0.00    +0.000 A 
ATOM     20  C   UNL     1      45.274   8.576  12.308  0.00  0.00    +0.000 A 
ATOM     21  C   UNL     1      44.877   7.423  11.627  0.00  0.00    +0.000 A 
ATOM     22  C   UNL     1      45.788   6.390  11.355  0.00  0.00    +0.000 A 
ATOM     23  C   UNL     1      47.109   6.559  11.813  0.00  0.00    +0.000 A 
BRANCH  22  24
ATOM     24  C   UNL     1      45.412   5.211  10.548  0.00  0.00    +0.000 A 
ATOM     25  C   UNL     1      45.717   5.099   9.183  0.00  0.00    +0.000 A 
ATOM     26  C   UNL     1      45.287   3.995   8.446  0.00  0.00    +0.000 A 
ATOM     27  C   UNL     1      44.565   3.011   9.097  0.00  0.00    +0.000 A 
ATOM     28  N   UNL     1      44.248   3.061  10.406  0.00  0.00    +0.000 NA
ATOM     29  C   UNL     1      44.672   4.156  11.089  0.00  0.00    +0.000 A 
ENDBRANCH  22  24
ENDBRANCH   1  18
TORSDOF 4
ENDMDL
MODEL 4
REMARK VINA RESULT:    -6.814      2.415      3.442
REMARK INTER + INTRA:          -9.135
REMARK INTER:                  -8.666
REMARK INTRA:                  -0.469
REMARK UNBOUND:                -0.728
REMARK  Name = 
REMARK  5 active torsions:
REMARK  status: ('A' for Active; 'I' for Inactive)
REMARK    1  A    between atoms: C_1  and  C_2
REMARK    2  A    between atoms: C_4  and  C_5
REMARK    3  A    between atoms: N_10  and  C_11
REMARK    4  A    between atoms: C_11  and  C_12
REMARK    5  A    between atoms: C_16  and  C_17
REMARK                            x       y       z     vdW  Elec       q    Type
REMARK                         _______ _______ _______ _____ _____    ______ ____
ROOT
ATOM      1  C   UNL     1      46.036   5.028  13.471  0.00  0.00    +0.000 C 
ATOM      2  C   UNL     1      46.469   4.389  14.788  0.00  0.00    +0.000 C 
ATOM      3  C   UNL     1      47.479   4.624  13.715  0.00  0.00    +0.000 C 
ENDROOT
BRANCH   1  10
ATOM      4  C   UNL     1      45.048  10.756  11.777  0.00  0.00    +0.000 C 
ATOM      5  C   UNL     1      45.973   9.621  12.092  0.00  0.00    +0.000 A 
ATOM      6  C   UNL     1      47.316   9.699  11.822  0.00  0.00    +0.000 A 
ATOM      7  C   UNL     1      48.045   8.581  12.153  0.00  0.00    +0.000 A 
ATOM      8  N   UNL     1      47.525   7.456  12.699  0.00  0.00    +0.000 NA
ATOM      9  C   UNL     1      46.211   7.476  12.938  0.00  0.00    +0.000 A 
ATOM     10  N   UNL     1      45.570   6.413  13.572  0.00  0.00    +0.000 N 
ATOM     11  N   UNL     1      45.418   8.522  12.648  0.00  0.00    +0.000 NA
ATOM     12  H   UNL     1      44.574   6.590  13.488  0.00  0.00    +0.000 HD
BRANCH   7  13
ATOM     13  C   UNL     1      49.523   8.584  11.933  0.00  0.00    +0.000 C 
ATOM     14  N   UNL     1      50.159   7.402  12.201  0.00  0.00    +0.000 N 
ATOM     15  O   UNL     1      50.134   9.576  11.553  0.00  0.00    +0.000 OA
ATOM     16  H   UNL     1      49.625   6.613  12.547  0.00  0.00    +0.000 HD
ATOM     17  H   UNL     1      51.164   7.343  12.113  0.00  0.00    +0.000 HD
ENDBRANCH   7  13
ENDBRANCH   1  10
BRANCH   1  18
ATOM     18  C   UNL     1      45.256   4.163  12.483  0.00  0.00    +0.000 A 
ATOM     19  C   UNL     1      43.930   3.786  12.739  0.00  0.00    +0.000 A 
ATOM     20  C   UNL     1      43.173   3.124  11.774  0.00  0.00    +0.000 A 
ATOM     21  C   UNL     1      43.729   2.831  10.528  0.00  0.00    +0.000 A 
ATOM     22  C   UNL     1      45.059   3.167  10.228  0.00  0.00    +0.000 A 
ATOM     23  C   UNL     1      45.810   3.793  11.242  0.00  0.00    +0.000 A 
BRANCH  22  24
ATOM     24  C   UNL     1      45.632   2.959   8.882  0.00  0.00    +0.000 A 
ATOM     25  C   UNL     1      46.041   1.698   8.420  0.00  0.00    +0.000 A 
ATOM     26  C   UNL     1      46.634   1.559   7.165  0.00  0.00    +0.000 A 
ATOM     27  C   UNL     1      46.797   2.690   6.386  0.00  0.00    +0.000 A 
ATOM     28  N   UNL     1      46.419   3.924   6.774  0.00  0.00    +0.000 NA
ATOM     29  C   UNL     1      45.857   4.024   8.006  0.00  0.00    +0.000 A 
ENDBRANCH  22  24
ENDBRANCH   1  18
TORSDOF 4
ENDMDL
MODEL 5
REMARK VINA RESULT:    -6.653      3.460      6.503
REMARK INTER + INTRA:          -8.937
REMARK INTER:                  -8.047
REMARK INTRA:                  -0.890
REMARK UNBOUND:                -0.728
REMARK  Name = 
REMARK  5 active torsions:
REMARK  status: ('A' for Active; 'I' for Inactive)
REMARK    1  A    between atoms: C_1  and  C_2
REMARK    2  A    between atoms: C_4  and  C_5
REMARK    3  A    between atoms: N_10  and  C_11
REMARK    4  A    between atoms: C_11  and  C_12
REMARK    5  A    between atoms: C_16  and  C_17
REMARK                            x       y       z     vdW  Elec       q    Type
REMARK                         _______ _______ _______ _____ _____    ______ ____
ROOT
ATOM      1  C   UNL     1      49.435   8.579  15.733  0.00  0.00    +0.000 C 
ATOM      2  C   UNL     1      49.609  10.071  16.004  0.00  0.00    +0.000 C 
ATOM      3  C   UNL     1      48.348   9.390  16.415  0.00  0.00    +0.000 C 
ENDROOT
BRANCH   1  10
ATOM      4  C   UNL     1      52.035   3.407  17.509  0.00  0.00    +0.000 C 
ATOM      5  C   UNL     1      50.838   4.299  17.382  0.00  0.00    +0.000 A 
ATOM      6  C   UNL     1      49.576   3.846  17.670  0.00  0.00    +0.000 A 
ATOM      7  C   UNL     1      48.570   4.768  17.501  0.00  0.00    +0.000 A 
ATOM      8  N   UNL     1      48.755   6.040  17.074  0.00  0.00    +0.000 NA
ATOM      9  C   UNL     1      50.018   6.396  16.830  0.00  0.00    +0.000 A 
ATOM     10  N   UNL     1      50.350   7.701  16.467  0.00  0.00    +0.000 N 
ATOM     11  N   UNL     1      51.066   5.565  16.968  0.00  0.00    +0.000 NA
ATOM     12  H   UNL     1      51.323   7.677  16.180  0.00  0.00    +0.000 HD
BRANCH   7  13
ATOM     13  C   UNL     1      47.164   4.380  17.825  0.00  0.00    +0.000 C 
ATOM     14  N   UNL     1      46.481   5.258  18.622  0.00  0.00    +0.000 N 
ATOM     15  O   UNL     1      46.654   3.340  17.424  0.00  0.00    +0.000 OA
ATOM     16  H   UNL     1      46.947   6.091  18.964  0.00  0.00    +0.000 HD
ATOM     17  H   UNL     1      45.539   5.040  18.915  0.00  0.00    +0.000 HD
ENDBRANCH   7  13
ENDBRANCH   1  10
BRANCH   1  18
ATOM     18  C   UNL     1      49.146   8.145  14.298  0.00  0.00    +0.000 A 
ATOM     19  C   UNL     1      50.091   8.333  13.280  0.00  0.00    +0.000 A 
ATOM     20  C   UNL     1      49.889   7.805  12.005  0.00  0.00    +0.000 A 
ATOM     21  C   UNL     1      48.735   7.070  11.728  0.00  0.00    +0.000 A 
ATOM     22  C   UNL     1      47.747   6.872  12.706  0.00  0.00    +0.000 A 
ATOM     23  C   UNL     1      47.962   7.459  13.967  0.00  0.00    +0.000 A 
BRANCH  22  24
ATOM     24  C   UNL     1      46.569   6.013  12.462  0.00  0.00    +0.000 A 
ATOM     25  C   UNL     1      45.825   6.067  11.273  0.00  0.00    +0.000 A 
ATOM     26  C   UNL     1      44.684   5.281  11.112  0.00  0.00    +0.000 A 
ATOM     27  C   UNL     1      44.313   4.441  12.146  0.00  0.00    +0.000 A 
ATOM     28  N   UNL     1      44.990   4.342  13.307  0.00  0.00    +0.000 NA
ATOM     29  C   UNL     1      46.089   5.131  13.434  0.00  0.00    +0.000 A 
ENDBRANCH  22  24
ENDBRANCH   1  18
TORSDOF 4
ENDMDL
MODEL 6
REMARK VINA RESULT:    -6.645      2.348      7.254
REMARK INTER + INTRA:          -8.927
REMARK INTER:                  -8.951
REMARK INTRA:                   0.025
REMARK UNBOUND:                -0.728
REMARK  Name = 
REMARK  5 active torsions:
REMARK  status: ('A' for Active; 'I' for Inactive)
REMARK    1  A    between atoms: C_1  and  C_2
REMARK    2  A    between atoms: C_4  and  C_5
REMARK    3  A    between atoms: N_10  and  C_11
REMARK    4  A    between atoms: C_11  and  C_12
REMARK    5  A    between atoms: C_16  and  C_17
REMARK                            x       y       z     vdW  Elec       q    Type
REMARK                         _______ _______ _______ _____ _____    ______ ____
ROOT
ATOM      1  C   UNL     1      47.097   7.851  12.288  0.00  0.00    +0.000 C 
ATOM      2  C   UNL     1      45.716   8.436  12.573  0.00  0.00    +0.000 C 
ATOM      3  C   UNL     1      46.777   9.304  11.986  0.00  0.00    +0.000 C 
ENDROOT
BRANCH   1  10
ATOM      4  C   UNL     1      44.985   4.023   8.099  0.00  0.00    +0.000 C 
ATOM      5  C   UNL     1      45.049   4.520   9.511  0.00  0.00    +0.000 A 
ATOM      6  C   UNL     1      44.182   4.059  10.469  0.00  0.00    +0.000 A 
ATOM      7  C   UNL     1      44.348   4.608  11.720  0.00  0.00    +0.000 A 
ATOM      8  N   UNL     1      45.277   5.542  12.034  0.00  0.00    +0.000 NA
ATOM      9  C   UNL     1      46.084   5.920  11.040  0.00  0.00    +0.000 A 
ATOM     10  N   UNL     1      47.134   6.813  11.254  0.00  0.00    +0.000 N 
ATOM     11  N   UNL     1      45.998   5.440   9.787  0.00  0.00    +0.000 NA
ATOM     12  H   UNL     1      47.485   7.064  10.336  0.00  0.00    +0.000 HD
BRANCH   7  13
ATOM     13  C   UNL     1      43.476   4.142  12.841  0.00  0.00    +0.000 C 
ATOM     14  N   UNL     1      42.686   5.104  13.409  0.00  0.00    +0.000 N 
ATOM     15  O   UNL     1      43.474   2.984  13.241  0.00  0.00    +0.000 OA
ATOM     16  H   UNL     1      42.741   6.060  13.074  0.00  0.00    +0.000 HD
ATOM     17  H   UNL     1      42.101   4.870  14.198  0.00  0.00    +0.000 HD
ENDBRANCH   7  13
ENDBRANCH   1  10
BRANCH   1  18
ATOM     18  C   UNL     1      48.023   7.601  13.476  0.00  0.00    +0.000 A 
ATOM     19  C   UNL     1      48.962   8.562  13.878  0.00  0.00    +0.000 A 
ATOM     20  C   UNL     1      49.702   8.398  15.048  0.00  0.00    +0.000 A 
ATOM     21  C   UNL     1      49.512   7.266  15.843  0.00  0.00    +0.000 A 
ATOM     22  C   UNL     1      48.600   6.263  15.474  0.00  0.00    +0.000 A 
ATOM     23  C   UNL     1      47.904   6.440  14.263  0.00  0.00    +0.000 A 
BRANCH  22  24
ATOM     24  C   UNL     1      48.311   5.111  16.352  0.00  0.00    +0.000 A 
ATOM     25  C   UNL     1      49.228   4.632  17.300  0.00  0.00    +0.000 A 
ATOM     26  C   UNL     1      48.936   3.502  18.065  0.00  0.00    +0.000 A 
ATOM     27  C   UNL     1      47.717   2.876  17.874  0.00  0.00    +0.000 A 
ATOM     28  N   UNL     1      46.796   3.294  16.984  0.00  0.00    +0.000 NA
ATOM     29  C   UNL     1      47.119   4.389  16.248  0.00  0.00    +0.000 A 
ENDBRANCH  22  24
ENDBRANCH   1  18
TORSDOF 4
ENDMDL
MODEL 7
REMARK VINA RESULT:    -6.611      3.753      6.692
REMARK INTER + INTRA:          -8.884
REMARK INTER:                  -9.040
REMARK INTRA:                   0.156
REMARK UNBOUND:                -0.728
REMARK  Name = 
REMARK  5 active torsions:
REMARK  status: ('A' for Active; 'I' for Inactive)
REMARK    1  A    between atoms: C_1  and  C_2
REMARK    2  A    between atoms: C_4  and  C_5
REMARK    3  A    between atoms: N_10  and  C_11
REMARK    4  A    between atoms: C_11  and  C_12
REMARK    5  A    between atoms: C_16  and  C_17
REMARK                            x       y       z     vdW  Elec       q    Type
REMARK                         _______ _______ _______ _____ _____    ______ ____
ROOT
ATOM      1  C   UNL     1      49.389   7.469  15.479  0.00  0.00    +0.000 C 
ATOM      2  C   UNL     1      50.843   7.005  15.531  0.00  0.00    +0.000 C 
ATOM      3  C   UNL     1      50.535   8.464  15.504  0.00  0.00    +0.000 C 
ENDROOT
BRANCH   1  10
ATOM      4  C   UNL     1      48.087   5.115  20.903  0.00  0.00    +0.000 C 
ATOM      5  C   UNL     1      48.489   4.963  19.468  0.00  0.00    +0.000 A 
ATOM      6  C   UNL     1      48.918   3.759  18.971  0.00  0.00    +0.000 A 
ATOM      7  C   UNL     1      49.263   3.766  17.639  0.00  0.00    +0.000 A 
ATOM      8  N   UNL     1      49.211   4.855  16.835  0.00  0.00    +0.000 NA
ATOM      9  C   UNL     1      48.768   5.979  17.403  0.00  0.00    +0.000 A 
ATOM     10  N   UNL     1      48.589   7.147  16.663  0.00  0.00    +0.000 N 
ATOM     11  N   UNL     1      48.409   6.068  18.696  0.00  0.00    +0.000 NA
ATOM     12  H   UNL     1      48.412   7.885  17.336  0.00  0.00    +0.000 HD
BRANCH   7  13
ATOM     13  C   UNL     1      49.708   2.493  16.996  0.00  0.00    +0.000 C 
ATOM     14  N   UNL     1      50.756   1.860  17.607  0.00  0.00    +0.000 N 
ATOM     15  O   UNL     1      49.185   2.046  15.981  0.00  0.00    +0.000 OA
ATOM     16  H   UNL     1      51.185   2.278  18.425  0.00  0.00    +0.000 HD
ATOM     17  H   UNL     1      51.135   1.015  17.203  0.00  0.00    +0.000 HD
ENDBRANCH   7  13
ENDBRANCH   1  10
BRANCH   1  18
ATOM     18  C   UNL     1      48.647   7.336  14.152  0.00  0.00    +0.000 A 
ATOM     19  C   UNL     1      49.195   7.833  12.961  0.00  0.00    +0.000 A 
ATOM     20  C   UNL     1      48.589   7.582  11.731  0.00  0.00    +0.000 A 
ATOM     21  C   UNL     1      47.420   6.820  11.669  0.00  0.00    +0.000 A 
ATOM     22  C   UNL     1      46.818   6.318  12.834  0.00  0.00    +0.000 A 
ATOM     23  C   UNL     1      47.431   6.630  14.063  0.00  0.00    +0.000 A 
BRANCH  22  24
ATOM     24  C   UNL     1      45.641   5.426  12.782  0.00  0.00    +0.000 A 
ATOM     25  C   UNL     1      44.324   5.906  12.835  0.00  0.00    +0.000 A 
ATOM     26  C   UNL     1      43.245   5.022  12.844  0.00  0.00    +0.000 A 
ATOM     27  C   UNL     1      43.506   3.665  12.788  0.00  0.00    +0.000 A 
ATOM     28  N   UNL     1      44.748   3.146  12.730  0.00  0.00    +0.000 NA
ATOM     29  C   UNL     1      45.775   4.035  12.735  0.00  0.00    +0.000 A 
ENDBRANCH  22  24
ENDBRANCH   1  18
TORSDOF 4
ENDMDL
MODEL 8
REMARK VINA RESULT:    -6.570      2.971      4.023
REMARK INTER + INTRA:          -8.835
REMARK INTER:                  -8.958
REMARK INTRA:                   0.123
REMARK UNBOUND:                -0.728
REMARK  Name = 
REMARK  5 active torsions:
REMARK  status: ('A' for Active; 'I' for Inactive)
REMARK    1  A    between atoms: C_1  and  C_2
REMARK    2  A    between atoms: C_4  and  C_5
REMARK    3  A    between atoms: N_10  and  C_11
REMARK    4  A    between atoms: C_11  and  C_12
REMARK    5  A    between atoms: C_16  and  C_17
REMARK                            x       y       z     vdW  Elec       q    Type
REMARK                         _______ _______ _______ _____ _____    ______ ____
ROOT
ATOM      1  C   UNL     1      45.242   5.947  12.055  0.00  0.00    +0.000 C 
ATOM      2  C   UNL     1      45.989   5.908  13.386  0.00  0.00    +0.000 C 
ATOM      3  C   UNL     1      46.715   6.302  12.145  0.00  0.00    +0.000 C 
ENDROOT
BRANCH   1  10
ATOM      4  C   UNL     1      42.295  10.816   9.989  0.00  0.00    +0.000 C 
ATOM      5  C   UNL     1      43.494  10.176  10.619  0.00  0.00    +0.000 A 
ATOM      6  C   UNL     1      44.659  10.874  10.806  0.00  0.00    +0.000 A 
ATOM      7  C   UNL     1      45.682  10.161  11.387  0.00  0.00    +0.000 A 
ATOM      8  N   UNL     1      45.600   8.861  11.758  0.00  0.00    +0.000 NA
ATOM      9  C   UNL     1      44.423   8.267  11.549  0.00  0.00    +0.000 A 
ATOM     10  N   UNL     1      44.184   6.957  11.963  0.00  0.00    +0.000 N 
ATOM     11  N   UNL     1      43.367   8.883  10.988  0.00  0.00    +0.000 NA
ATOM     12  H   UNL     1      43.298   6.685  11.550  0.00  0.00    +0.000 HD
BRANCH   7  13
ATOM     13  C   UNL     1      46.980  10.845  11.667  0.00  0.00    +0.000 C 
ATOM     14  N   UNL     1      47.457  10.703  12.942  0.00  0.00    +0.000 N 
ATOM     15  O   UNL     1      47.577  11.504  10.823  0.00  0.00    +0.000 OA
ATOM     16  H   UNL     1      46.918  10.180  13.623  0.00  0.00    +0.000 HD
ATOM     17  H   UNL     1      48.310  11.173  13.213  0.00  0.00    +0.000 HD
ENDBRANCH   7  13
ENDBRANCH   1  10
BRANCH   1  18
ATOM     18  C   UNL     1      44.913   4.616  11.385  0.00  0.00    +0.000 A 
ATOM     19  C   UNL     1      43.803   3.857  11.783  0.00  0.00    +0.000 A 
ATOM     20  C   UNL     1      43.418   2.720  11.074  0.00  0.00    +0.000 A 
ATOM     21  C   UNL     1      44.138   2.322   9.946  0.00  0.00    +0.000 A 
ATOM     22  C   UNL     1      45.270   3.033   9.518  0.00  0.00    +0.000 A 
ATOM     23  C   UNL     1      45.658   4.149  10.284  0.00  0.00    +0.000 A 
BRANCH  22  24
ATOM     24  C   UNL     1      45.982   2.688   8.270  0.00  0.00    +0.000 A 
ATOM     25  C   UNL     1      46.152   3.601   7.218  0.00  0.00    +0.000 A 
ATOM     26  C   UNL     1      46.778   3.212   6.033  0.00  0.00    +0.000 A 
ATOM     27  C   UNL     1      47.234   1.911   5.927  0.00  0.00    +0.000 A 
ATOM     28  N   UNL     1      47.104   0.993   6.905  0.00  0.00    +0.000 NA
ATOM     29  C   UNL     1      46.480   1.403   8.039  0.00  0.00    +0.000 A 
ENDBRANCH  22  24
ENDBRANCH   1  18
TORSDOF 4
ENDMDL
MODEL 9
REMARK VINA RESULT:    -6.530      4.361      6.707
REMARK INTER + INTRA:          -8.784
REMARK INTER:                  -8.340
REMARK INTRA:                  -0.444
REMARK UNBOUND:                -0.728
REMARK  Name = 
REMARK  5 active torsions:
REMARK  status: ('A' for Active; 'I' for Inactive)
REMARK    1  A    between atoms: C_1  and  C_2
REMARK    2  A    between atoms: C_4  and  C_5
REMARK    3  A    between atoms: N_10  and  C_11
REMARK    4  A    between atoms: C_11  and  C_12
REMARK    5  A    between atoms: C_16  and  C_17
REMARK                            x       y       z     vdW  Elec       q    Type
REMARK                         _______ _______ _______ _____ _____    ______ ____
ROOT
ATOM      1  C   UNL     1      46.640   4.706  14.013  0.00  0.00    +0.000 C 
ATOM      2  C   UNL     1      45.657   3.855  13.213  0.00  0.00    +0.000 C 
ATOM      3  C   UNL     1      47.087   3.441  13.303  0.00  0.00    +0.000 C 
ENDROOT
BRANCH   1  10
ATOM      4  C   UNL     1      47.857   5.400  19.904  0.00  0.00    +0.000 C 
ATOM      5  C   UNL     1      48.051   4.693  18.597  0.00  0.00    +0.000 A 
ATOM      6  C   UNL     1      49.045   3.763  18.429  0.00  0.00    +0.000 A 
ATOM      7  C   UNL     1      49.114   3.200  17.177  0.00  0.00    +0.000 A 
ATOM      8  N   UNL     1      48.291   3.510  16.146  0.00  0.00    +0.000 NA
ATOM      9  C   UNL     1      47.346   4.417  16.406  0.00  0.00    +0.000 A 
ATOM     10  N   UNL     1      46.386   4.761  15.455  0.00  0.00    +0.000 N 
ATOM     11  N   UNL     1      47.201   5.020  17.599  0.00  0.00    +0.000 NA
ATOM     12  H   UNL     1      45.898   5.570  15.825  0.00  0.00    +0.000 HD
BRANCH   7  13
ATOM     13  C   UNL     1      50.140   2.148  16.907  0.00  0.00    +0.000 C 
ATOM     14  N   UNL     1      51.116   2.021  17.858  0.00  0.00    +0.000 N 
ATOM     15  O   UNL     1      50.126   1.453  15.897  0.00  0.00    +0.000 OA
ATOM     16  H   UNL     1      51.114   2.638  18.663  0.00  0.00    +0.000 HD
ATOM     17  H   UNL     1      51.865   1.358  17.721  0.00  0.00    +0.000 HD
ENDBRANCH   7  13
ENDBRANCH   1  10
BRANCH   1  18
ATOM     18  C   UNL     1      47.108   6.021  13.397  0.00  0.00    +0.000 A 
ATOM     19  C   UNL     1      48.445   6.210  13.019  0.00  0.00    +0.000 A 
ATOM     20  C   UNL     1      48.841   7.351  12.324  0.00  0.00    +0.000 A 
ATOM     21  C   UNL     1      47.901   8.327  11.986  0.00  0.00    +0.000 A 
ATOM     22  C   UNL     1      46.553   8.197  12.359  0.00  0.00    +0.000 A 
ATOM     23  C   UNL     1      46.198   7.055  13.102  0.00  0.00    +0.000 A 
BRANCH  22  24
ATOM     24  C   UNL     1      45.527   9.166  11.923  0.00  0.00    +0.000 A 
ATOM     25  C   UNL     1      44.378   8.784  11.214  0.00  0.00    +0.000 A 
ATOM     26  C   UNL     1      43.466   9.742  10.769  0.00  0.00    +0.000 A 
ATOM     27  C   UNL     1      43.717  11.072  11.054  0.00  0.00    +0.000 A 
ATOM     28  N   UNL     1      44.799  11.497  11.736  0.00  0.00    +0.000 NA
ATOM     29  C   UNL     1      45.671  10.539  12.143  0.00  0.00    +0.000 A 
ENDBRANCH  22  24
ENDBRANCH   1  18
TORSDOF 4
ENDMDL
