MODEL 1
REMARK VINA RESULT:    -8.092      0.000      0.000
REMARK INTER + INTRA:         -12.034
REMARK INTER:                 -10.931
REMARK INTRA:                  -1.103
REMARK UNBOUND:                -1.103
REMARK  Name = 
REMARK  6 active torsions:
REMARK  status: ('A' for Active; 'I' for Inactive)
REMARK    1  A    between atoms: C_2  and  C_25
REMARK    2  A    between atoms: N_3  and  C_4
REMARK    3  A    between atoms: C_4  and  C_5
REMARK    4  A    between atoms: C_8  and  C_9
REMARK    5  A    between atoms: C_9  and  N_10
REMARK    6  A    between atoms: C_11  and  C_13
REMARK                            x       y       z     vdW  Elec       q    Type
REMARK                         _______ _______ _______ _____ _____    ______ ____
ROOT
ATOM      1  C   UNL     1      44.803   5.284  10.609  0.00  0.00    +0.000 A 
ATOM      2  C   UNL     1      44.231   5.554  11.855  0.00  0.00    +0.000 A 
ATOM      3  C   UNL     1      44.876   6.412  12.745  0.00  0.00    +0.000 A 
ATOM      4  C   UNL     1      46.105   6.957  12.384  0.00  0.00    +0.000 A 
ATOM      5  N   UNL     1      46.685   6.701  11.183  0.00  0.00    +0.000 NA
ATOM      6  C   UNL     1      46.026   5.883  10.331  0.00  0.00    +0.000 A 
ENDROOT
BRANCH   1   7
ATOM      7  C   UNL     1      44.136   4.383   9.612  0.00  0.00    +0.000 C 
BRANCH   7  10
ATOM      8  O   UNL     1      45.256   1.835   9.447  0.00  0.00    +0.000 OA
ATOM      9  C   UNL     1      45.548   2.660   8.583  0.00  0.00    +0.000 C 
ATOM     10  N   UNL     1      45.047   3.940   8.584  0.00  0.00    +0.000 N 
ATOM     11  H   UNL     1      45.186   4.530   7.775  0.00  0.00    +0.000 HD
BRANCH   9  12
ATOM     12  C   UNL     1      46.428   2.348   7.489  0.00  0.00    +0.000 A 
ATOM     13  C   UNL     1      47.280   1.287   7.252  0.00  0.00    +0.000 A 
ATOM     14  N   UNL     1      47.917   1.417   6.045  0.00  0.00    +0.000 NA
ATOM     15  C   UNL     1      47.463   2.536   5.534  0.00  0.00    +0.000 A 
ATOM     16  N   UNL     1      46.558   3.131   6.364  0.00  0.00    +0.000 N 
ATOM     17  H   UNL     1      46.062   3.997   6.194  0.00  0.00    +0.000 HD
ENDBRANCH   9  12
ENDBRANCH   7  10
ENDBRANCH   1   7
BRANCH   4  18
ATOM     18  C   UNL     1      46.840   7.874  13.332  0.00  0.00    +0.000 C 
BRANCH  18  19
ATOM     19  N   UNL     1      47.335   7.183  14.500  0.00  0.00    +0.000 N 
ATOM     20  C   UNL     1      48.631   6.761  14.621  0.00  0.00    +0.000 C 
ATOM     21  O   UNL     1      49.460   6.930  13.730  0.00  0.00    +0.000 OA
ATOM     22  H   UNL     1      46.623   6.819  15.128  0.00  0.00    +0.000 HD
BRANCH  20  23
ATOM     23  C   UNL     1      49.000   6.161  15.911  0.00  0.00    +0.000 A 
ATOM     24  C   UNL     1      50.015   6.727  16.669  0.00  0.00    +0.000 A 
ATOM     25  S   UNL     1      50.281   5.933  18.156  0.00  0.00    +0.000 S 
ATOM     26  C   UNL     1      49.082   4.777  17.817  0.00  0.00    +0.000 A 
ATOM     27  N   UNL     1      48.815   3.767  18.688  0.00  0.00    +0.000 NA
ATOM     28  C   UNL     1      47.901   2.946  18.288  0.00  0.00    +0.000 A 
ATOM     29  N   UNL     1      47.222   3.047  17.103  0.00  0.00    +0.000 N 
ATOM     30  C   UNL     1      47.421   4.079  16.220  0.00  0.00    +0.000 A 
ATOM     31  O   UNL     1      46.730   4.193  15.213  0.00  0.00    +0.000 OA
ATOM     32  C   UNL     1      48.464   5.012  16.600  0.00  0.00    +0.000 A 
ATOM     33  H   UNL     1      46.502   2.386  16.859  0.00  0.00    +0.000 HD
ENDBRANCH  20  23
ENDBRANCH  18  19
ENDBRANCH   4  18
TORSDOF 6
ENDMDL
MODEL 2
REMARK VINA RESULT:    -7.935      2.256      3.706
REMARK INTER + INTRA:         -11.822
REMARK INTER:                 -10.850
REMARK INTRA:                  -0.972
REMARK UNBOUND:                -1.103
REMARK  Name = 
REMARK  6 active torsions:
REMARK  status: ('A' for Active; 'I' for Inactive)
REMARK    1  A    between atoms: C_2  and  C_25
REMARK    2  A    between atoms: N_3  and  C_4
REMARK    3  A    between atoms: C_4  and  C_5
REMARK    4  A    between atoms: C_8  and  C_9
REMARK    5  A    between atoms: C_9  and  N_10
REMARK    6  A    between atoms: C_11  and  C_13
REMARK                            x       y       z     vdW  Elec       q    Type
REMARK                         _______ _______ _______ _____ _____    ______ ____
ROOT
ATOM      1  C   UNL     1      44.838   4.287  10.939  0.00  0.00    +0.000 A 
ATOM      2  C   UNL     1      45.188   5.544  11.438  0.00  0.00    +0.000 A 
ATOM      3  C   UNL     1      45.828   5.648  12.673  0.00  0.00    +0.000 A 
ATOM      4  C   UNL     1      46.072   4.489  13.404  0.00  0.00    +0.000 A 
ATOM      5  N   UNL     1      45.731   3.258  12.944  0.00  0.00    +0.000 NA
ATOM      6  C   UNL     1      45.132   3.186  11.734  0.00  0.00    +0.000 A 
ENDROOT
BRANCH   1   7
ATOM      7  C   UNL     1      44.166   4.126   9.607  0.00  0.00    +0.000 C 
BRANCH   7  10
ATOM      8  O   UNL     1      46.314   5.150   8.154  0.00  0.00    +0.000 OA
ATOM      9  C   UNL     1      46.019   3.967   8.006  0.00  0.00    +0.000 C 
ATOM     10  N   UNL     1      44.975   3.375   8.678  0.00  0.00    +0.000 N 
ATOM     11  H   UNL     1      44.869   2.370   8.646  0.00  0.00    +0.000 HD
BRANCH   9  12
ATOM     12  C   UNL     1      46.753   3.096   7.127  0.00  0.00    +0.000 A 
ATOM     13  C   UNL     1      47.284   1.832   7.297  0.00  0.00    +0.000 A 
ATOM     14  N   UNL     1      47.900   1.390   6.156  0.00  0.00    +0.000 NA
ATOM     15  C   UNL     1      47.748   2.359   5.285  0.00  0.00    +0.000 A 
ATOM     16  N   UNL     1      47.058   3.407   5.821  0.00  0.00    +0.000 N 
ATOM     17  H   UNL     1      46.808   4.268   5.351  0.00  0.00    +0.000 HD
ENDBRANCH   9  12
ENDBRANCH   7  10
ENDBRANCH   1   7
BRANCH   4  18
ATOM     18  C   UNL     1      46.745   4.568  14.754  0.00  0.00    +0.000 C 
BRANCH  18  19
ATOM     19  N   UNL     1      47.502   5.786  14.926  0.00  0.00    +0.000 N 
ATOM     20  C   UNL     1      48.557   5.891  15.791  0.00  0.00    +0.000 C 
ATOM     21  O   UNL     1      48.922   4.952  16.494  0.00  0.00    +0.000 OA
ATOM     22  H   UNL     1      47.071   6.626  14.550  0.00  0.00    +0.000 HD
BRANCH  20  23
ATOM     23  C   UNL     1      49.283   7.168  15.776  0.00  0.00    +0.000 A 
ATOM     24  C   UNL     1      49.549   7.824  16.971  0.00  0.00    +0.000 A 
ATOM     25  S   UNL     1      50.440   9.266  16.774  0.00  0.00    +0.000 S 
ATOM     26  C   UNL     1      50.459   9.090  15.084  0.00  0.00    +0.000 A 
ATOM     27  N   UNL     1      51.050  10.021  14.288  0.00  0.00    +0.000 NA
ATOM     28  C   UNL     1      50.963   9.774  13.023  0.00  0.00    +0.000 A 
ATOM     29  N   UNL     1      50.349   8.677  12.481  0.00  0.00    +0.000 N 
ATOM     30  C   UNL     1      49.788   7.686  13.247  0.00  0.00    +0.000 A 
ATOM     31  O   UNL     1      49.330   6.670  12.733  0.00  0.00    +0.000 OA
ATOM     32  C   UNL     1      49.823   7.930  14.676  0.00  0.00    +0.000 A 
ATOM     33  H   UNL     1      50.336   8.529  11.483  0.00  0.00    +0.000 HD
ENDBRANCH  20  23
ENDBRANCH  18  19
ENDBRANCH   4  18
TORSDOF 6
ENDMDL
MODEL 3
REMARK VINA RESULT:    -7.432      4.555      9.535
REMARK INTER + INTRA:         -11.141
REMARK INTER:                 -10.471
REMARK INTRA:                  -0.671
REMARK UNBOUND:                -1.103
REMARK  Name = 
REMARK  6 active torsions:
REMARK  status: ('A' for Active; 'I' for Inactive)
REMARK    1  A    between atoms: C_2  and  C_25
REMARK    2  A    between atoms: N_3  and  C_4
REMARK    3  A    between atoms: C_4  and  C_5
REMARK    4  A    between atoms: C_8  and  C_9
REMARK    5  A    between atoms: C_9  and  N_10
REMARK    6  A    between atoms: C_11  and  C_13
REMARK                            x       y       z     vdW  Elec       q    Type
REMARK                         _______ _______ _______ _____ _____    ______ ____
ROOT
ATOM      1  C   UNL     1      51.299   2.937  17.731  0.00  0.00    +0.000 A 
ATOM      2  C   UNL     1      50.580   1.935  17.074  0.00  0.00    +0.000 A 
ATOM      3  C   UNL     1      49.222   2.112  16.812  0.00  0.00    +0.000 A 
ATOM      4  C   UNL     1      48.599   3.277  17.248  0.00  0.00    +0.000 A 
ATOM      5  N   UNL     1      49.274   4.260  17.897  0.00  0.00    +0.000 NA
ATOM      6  C   UNL     1      50.596   4.071  18.118  0.00  0.00    +0.000 A 
ENDROOT
BRANCH   1   7
ATOM      7  C   UNL     1      52.766   2.798  18.015  0.00  0.00    +0.000 C 
BRANCH   7  10
ATOM      8  O   UNL     1      54.461   0.943  16.807  0.00  0.00    +0.000 OA
ATOM      9  C   UNL     1      53.946   0.651  17.884  0.00  0.00    +0.000 C 
ATOM     10  N   UNL     1      53.096   1.500  18.551  0.00  0.00    +0.000 N 
ATOM     11  H   UNL     1      52.823   1.287  19.502  0.00  0.00    +0.000 HD
BRANCH   9  12
ATOM     12  C   UNL     1      54.203  -0.602  18.544  0.00  0.00    +0.000 A 
ATOM     13  C   UNL     1      55.369  -1.215  18.956  0.00  0.00    +0.000 A 
ATOM     14  N   UNL     1      55.115  -2.418  19.562  0.00  0.00    +0.000 NA
ATOM     15  C   UNL     1      53.811  -2.549  19.534  0.00  0.00    +0.000 A 
ATOM     16  N   UNL     1      53.215  -1.476  18.936  0.00  0.00    +0.000 N 
ATOM     17  H   UNL     1      52.222  -1.337  18.798  0.00  0.00    +0.000 HD
ENDBRANCH   9  12
ENDBRANCH   7  10
ENDBRANCH   1   7
BRANCH   4  18
ATOM     18  C   UNL     1      47.124   3.492  16.999  0.00  0.00    +0.000 C 
BRANCH  18  19
ATOM     19  N   UNL     1      46.874   4.461  15.957  0.00  0.00    +0.000 N 
ATOM     20  C   UNL     1      46.965   4.161  14.625  0.00  0.00    +0.000 C 
ATOM     21  O   UNL     1      47.283   3.043  14.226  0.00  0.00    +0.000 OA
ATOM     22  H   UNL     1      46.855   5.431  16.257  0.00  0.00    +0.000 HD
BRANCH  20  23
ATOM     23  C   UNL     1      46.584   5.230  13.692  0.00  0.00    +0.000 A 
ATOM     24  C   UNL     1      47.479   6.254  13.414  0.00  0.00    +0.000 A 
ATOM     25  S   UNL     1      46.892   7.383  12.276  0.00  0.00    +0.000 S 
ATOM     26  C   UNL     1      45.404   6.571  12.153  0.00  0.00    +0.000 A 
ATOM     27  N   UNL     1      44.413   7.041  11.350  0.00  0.00    +0.000 NA
ATOM     28  C   UNL     1      43.328   6.339  11.376  0.00  0.00    +0.000 A 
ATOM     29  N   UNL     1      43.146   5.207  12.124  0.00  0.00    +0.000 N 
ATOM     30  C   UNL     1      44.137   4.668  12.906  0.00  0.00    +0.000 A 
ATOM     31  O   UNL     1      43.974   3.600  13.488  0.00  0.00    +0.000 OA
ATOM     32  C   UNL     1      45.367   5.435  12.944  0.00  0.00    +0.000 A 
ATOM     33  H   UNL     1      42.281   4.691  12.083  0.00  0.00    +0.000 HD
ENDBRANCH  20  23
ENDBRANCH  18  19
ENDBRANCH   4  18
TORSDOF 6
ENDMDL
MODEL 4
REMARK VINA RESULT:    -7.347      2.871      3.482
REMARK INTER + INTRA:         -11.027
REMARK INTER:                 -10.066
REMARK INTRA:                  -0.961
REMARK UNBOUND:                -1.103
REMARK  Name = 
REMARK  6 active torsions:
REMARK  status: ('A' for Active; 'I' for Inactive)
REMARK    1  A    between atoms: C_2  and  C_25
REMARK    2  A    between atoms: N_3  and  C_4
REMARK    3  A    between atoms: C_4  and  C_5
REMARK    4  A    between atoms: C_8  and  C_9
REMARK    5  A    between atoms: C_9  and  N_10
REMARK    6  A    between atoms: C_11  and  C_13
REMARK                            x       y       z     vdW  Elec       q    Type
REMARK                         _______ _______ _______ _____ _____    ______ ____
ROOT
ATOM      1  C   UNL     1      45.222   4.490  11.665  0.00  0.00    +0.000 A 
ATOM      2  C   UNL     1      45.800   5.705  12.040  0.00  0.00    +0.000 A 
ATOM      3  C   UNL     1      46.594   5.774  13.184  0.00  0.00    +0.000 A 
ATOM      4  C   UNL     1      46.764   4.627  13.955  0.00  0.00    +0.000 A 
ATOM      5  N   UNL     1      46.205   3.437  13.615  0.00  0.00    +0.000 NA
ATOM      6  C   UNL     1      45.458   3.396  12.488  0.00  0.00    +0.000 A 
ENDROOT
BRANCH   1   7
ATOM      7  C   UNL     1      44.378   4.365  10.431  0.00  0.00    +0.000 C 
BRANCH   7  10
ATOM      8  O   UNL     1      46.095   5.317   8.452  0.00  0.00    +0.000 OA
ATOM      9  C   UNL     1      45.847   4.114   8.481  0.00  0.00    +0.000 C 
ATOM     10  N   UNL     1      45.010   3.555   9.418  0.00  0.00    +0.000 N 
ATOM     11  H   UNL     1      44.960   2.548   9.504  0.00  0.00    +0.000 HD
BRANCH   9  12
ATOM     12  C   UNL     1      46.425   3.186   7.546  0.00  0.00    +0.000 A 
ATOM     13  C   UNL     1      46.689   1.833   7.618  0.00  0.00    +0.000 A 
ATOM     14  N   UNL     1      47.245   1.368   6.455  0.00  0.00    +0.000 NA
ATOM     15  C   UNL     1      47.317   2.414   5.666  0.00  0.00    +0.000 A 
ATOM     16  N   UNL     1      46.830   3.533   6.277  0.00  0.00    +0.000 N 
ATOM     17  H   UNL     1      46.771   4.461   5.876  0.00  0.00    +0.000 HD
ENDBRANCH   9  12
ENDBRANCH   7  10
ENDBRANCH   1   7
BRANCH   4  18
ATOM     18  C   UNL     1      47.602   4.670  15.211  0.00  0.00    +0.000 C 
BRANCH  18  19
ATOM     19  N   UNL     1      47.694   5.999  15.770  0.00  0.00    +0.000 N 
ATOM     20  C   UNL     1      48.887   6.620  16.019  0.00  0.00    +0.000 C 
ATOM     21  O   UNL     1      49.967   6.077  15.796  0.00  0.00    +0.000 OA
ATOM     22  H   UNL     1      46.840   6.359  16.186  0.00  0.00    +0.000 HD
BRANCH  20  23
ATOM     23  C   UNL     1      48.809   8.008  16.496  0.00  0.00    +0.000 A 
ATOM     24  C   UNL     1      49.320   9.036  15.714  0.00  0.00    +0.000 A 
ATOM     25  S   UNL     1      49.104  10.584  16.397  0.00  0.00    +0.000 S 
ATOM     26  C   UNL     1      48.364   9.932  17.782  0.00  0.00    +0.000 A 
ATOM     27  N   UNL     1      47.954  10.734  18.801  0.00  0.00    +0.000 NA
ATOM     28  C   UNL     1      47.436  10.100  19.802  0.00  0.00    +0.000 A 
ATOM     29  N   UNL     1      47.282   8.742  19.873  0.00  0.00    +0.000 N 
ATOM     30  C   UNL     1      47.632   7.901  18.846  0.00  0.00    +0.000 A 
ATOM     31  O   UNL     1      47.393   6.699  18.902  0.00  0.00    +0.000 OA
ATOM     32  C   UNL     1      48.254   8.554  17.711  0.00  0.00    +0.000 A 
ATOM     33  H   UNL     1      46.848   8.310  20.673  0.00  0.00    +0.000 HD
ENDBRANCH  20  23
ENDBRANCH  18  19
ENDBRANCH   4  18
TORSDOF 6
ENDMDL
MODEL 5
REMARK VINA RESULT:    -6.925      1.467      1.669
REMARK INTER + INTRA:         -10.457
REMARK INTER:                  -9.697
REMARK INTRA:                  -0.761
REMARK UNBOUND:                -1.103
REMARK  Name = 
REMARK  6 active torsions:
REMARK  status: ('A' for Active; 'I' for Inactive)
REMARK    1  A    between atoms: C_2  and  C_25
REMARK    2  A    between atoms: N_3  and  C_4
REMARK    3  A    between atoms: C_4  and  C_5
REMARK    4  A    between atoms: C_8  and  C_9
REMARK    5  A    between atoms: C_9  and  N_10
REMARK    6  A    between atoms: C_11  and  C_13
REMARK                            x       y       z     vdW  Elec       q    Type
REMARK                         _______ _______ _______ _____ _____    ______ ____
ROOT
ATOM      1  C   UNL     1      45.205   5.903  11.313  0.00  0.00    +0.000 A 
ATOM      2  C   UNL     1      46.349   5.527  12.020  0.00  0.00    +0.000 A 
ATOM      3  C   UNL     1      47.026   6.466  12.798  0.00  0.00    +0.000 A 
ATOM      4  C   UNL     1      46.562   7.778  12.823  0.00  0.00    +0.000 A 
ATOM      5  N   UNL     1      45.457   8.169  12.137  0.00  0.00    +0.000 NA
ATOM      6  C   UNL     1      44.809   7.231  11.409  0.00  0.00    +0.000 A 
ENDROOT
BRANCH   1   7
ATOM      7  C   UNL     1      44.434   4.921  10.479  0.00  0.00    +0.000 C 
BRANCH   7  10
ATOM      8  O   UNL     1      44.100   2.279   9.654  0.00  0.00    +0.000 OA
ATOM      9  C   UNL     1      45.032   2.926   9.182  0.00  0.00    +0.000 C 
ATOM     10  N   UNL     1      45.276   4.233   9.532  0.00  0.00    +0.000 N 
ATOM     11  H   UNL     1      45.951   4.773   9.005  0.00  0.00    +0.000 HD
BRANCH   9  12
ATOM     12  C   UNL     1      45.938   2.373   8.211  0.00  0.00    +0.000 A 
ATOM     13  C   UNL     1      46.367   1.084   7.966  0.00  0.00    +0.000 A 
ATOM     14  N   UNL     1      47.239   1.038   6.909  0.00  0.00    +0.000 NA
ATOM     15  C   UNL     1      47.345   2.279   6.497  0.00  0.00    +0.000 A 
ATOM     16  N   UNL     1      46.574   3.120   7.246  0.00  0.00    +0.000 N 
ATOM     17  H   UNL     1      46.479   4.121   7.123  0.00  0.00    +0.000 HD
ENDBRANCH   9  12
ENDBRANCH   7  10
ENDBRANCH   1   7
BRANCH   4  18
ATOM     18  C   UNL     1      47.282   8.825  13.640  0.00  0.00    +0.000 C 
BRANCH  18  19
ATOM     19  N   UNL     1      47.513   8.404  15.002  0.00  0.00    +0.000 N 
ATOM     20  C   UNL     1      48.721   7.935  15.441  0.00  0.00    +0.000 C 
ATOM     21  O   UNL     1      49.692   7.827  14.695  0.00  0.00    +0.000 OA
ATOM     22  H   UNL     1      46.678   8.251  15.561  0.00  0.00    +0.000 HD
BRANCH  20  23
ATOM     23  C   UNL     1      48.820   7.641  16.877  0.00  0.00    +0.000 A 
ATOM     24  C   UNL     1      48.996   8.677  17.784  0.00  0.00    +0.000 A 
ATOM     25  S   UNL     1      49.042   8.162  19.410  0.00  0.00    +0.000 S 
ATOM     26  C   UNL     1      48.877   6.532  18.956  0.00  0.00    +0.000 A 
ATOM     27  N   UNL     1      48.873   5.542  19.889  0.00  0.00    +0.000 NA
ATOM     28  C   UNL     1      48.769   4.350  19.400  0.00  0.00    +0.000 A 
ATOM     29  N   UNL     1      48.660   4.058  18.067  0.00  0.00    +0.000 N 
ATOM     30  C   UNL     1      48.606   5.028  17.097  0.00  0.00    +0.000 A 
ATOM     31  O   UNL     1      48.411   4.738  15.921  0.00  0.00    +0.000 OA
ATOM     32  C   UNL     1      48.755   6.385  17.585  0.00  0.00    +0.000 A 
ATOM     33  H   UNL     1      48.558   3.106  17.750  0.00  0.00    +0.000 HD
ENDBRANCH  20  23
ENDBRANCH  18  19
ENDBRANCH   4  18
TORSDOF 6
ENDMDL
MODEL 6
REMARK VINA RESULT:    -6.901      1.998      2.374
REMARK INTER + INTRA:         -10.425
REMARK INTER:                  -9.506
REMARK INTRA:                  -0.919
REMARK UNBOUND:                -1.103
REMARK  Name = 
REMARK  6 active torsions:
REMARK  status: ('A' for Active; 'I' for Inactive)
REMARK    1  A    between atoms: C_2  and  C_25
REMARK    2  A    between atoms: N_3  and  C_4
REMARK    3  A    between atoms: C_4  and  C_5
REMARK    4  A    between atoms: C_8  and  C_9
REMARK    5  A    between atoms: C_9  and  N_10
REMARK    6  A    between atoms: C_11  and  C_13
REMARK                            x       y       z     vdW  Elec       q    Type
REMARK                         _______ _______ _______ _____ _____    ______ ____
ROOT
ATOM      1  C   UNL     1      45.288   5.395  11.066  0.00  0.00    +0.000 A 
ATOM      2  C   UNL     1      45.648   4.715  12.232  0.00  0.00    +0.000 A 
ATOM      3  C   UNL     1      46.459   5.340  13.179  0.00  0.00    +0.000 A 
ATOM      4  C   UNL     1      46.925   6.626  12.922  0.00  0.00    +0.000 A 
ATOM      5  N   UNL     1      46.596   7.303  11.792  0.00  0.00    +0.000 NA
ATOM      6  C   UNL     1      45.791   6.680  10.901  0.00  0.00    +0.000 A 
ENDROOT
BRANCH   1   7
ATOM      7  C   UNL     1      44.401   4.769  10.030  0.00  0.00    +0.000 C 
BRANCH   7  10
ATOM      8  O   UNL     1      45.253   2.124   9.795  0.00  0.00    +0.000 OA
ATOM      9  C   UNL     1      45.530   2.911   8.892  0.00  0.00    +0.000 C 
ATOM     10  N   UNL     1      45.155   4.233   8.922  0.00  0.00    +0.000 N 
ATOM     11  H   UNL     1      45.264   4.801   8.092  0.00  0.00    +0.000 HD
BRANCH   9  12
ATOM     12  C   UNL     1      46.258   2.507   7.719  0.00  0.00    +0.000 A 
ATOM     13  C   UNL     1      46.966   1.363   7.409  0.00  0.00    +0.000 A 
ATOM     14  N   UNL     1      47.489   1.424   6.144  0.00  0.00    +0.000 NA
ATOM     15  C   UNL     1      47.107   2.586   5.669  0.00  0.00    +0.000 A 
ATOM     16  N   UNL     1      46.357   3.273   6.579  0.00  0.00    +0.000 N 
ATOM     17  H   UNL     1      45.941   4.187   6.450  0.00  0.00    +0.000 HD
ENDBRANCH   9  12
ENDBRANCH   7  10
ENDBRANCH   1   7
BRANCH   4  18
ATOM     18  C   UNL     1      47.821   7.325  13.917  0.00  0.00    +0.000 C 
BRANCH  18  19
ATOM     19  N   UNL     1      47.797   6.700  15.219  0.00  0.00    +0.000 N 
ATOM     20  C   UNL     1      48.933   6.341  15.892  0.00  0.00    +0.000 C 
ATOM     21  O   UNL     1      50.055   6.514  15.422  0.00  0.00    +0.000 OA
ATOM     22  H   UNL     1      46.898   6.328  15.509  0.00  0.00    +0.000 HD
BRANCH  20  23
ATOM     23  C   UNL     1      48.742   5.806  17.248  0.00  0.00    +0.000 A 
ATOM     24  C   UNL     1      48.994   4.465  17.502  0.00  0.00    +0.000 A 
ATOM     25  S   UNL     1      48.766   4.024  19.134  0.00  0.00    +0.000 S 
ATOM     26  C   UNL     1      48.275   5.598  19.549  0.00  0.00    +0.000 A 
ATOM     27  N   UNL     1      47.901   5.904  20.820  0.00  0.00    +0.000 NA
ATOM     28  C   UNL     1      47.525   7.130  20.984  0.00  0.00    +0.000 A 
ATOM     29  N   UNL     1      47.498   8.079  19.998  0.00  0.00    +0.000 N 
ATOM     30  C   UNL     1      47.918   7.828  18.715  0.00  0.00    +0.000 A 
ATOM     31  O   UNL     1      47.971   8.724  17.879  0.00  0.00    +0.000 OA
ATOM     32  C   UNL     1      48.316   6.457  18.463  0.00  0.00    +0.000 A 
ATOM     33  H   UNL     1      47.215   9.026  20.196  0.00  0.00    +0.000 HD
ENDBRANCH  20  23
ENDBRANCH  18  19
ENDBRANCH   4  18
TORSDOF 6
ENDMDL
MODEL 7
REMARK VINA RESULT:    -6.814      3.852      8.397
REMARK INTER + INTRA:         -10.307
REMARK INTER:                  -9.316
REMARK INTRA:                  -0.991
REMARK UNBOUND:                -1.103
REMARK  Name = 
REMARK  6 active torsions:
REMARK  status: ('A' for Active; 'I' for Inactive)
REMARK    1  A    between atoms: C_2  and  C_25
REMARK    2  A    between atoms: N_3  and  C_4
REMARK    3  A    between atoms: C_4  and  C_5
REMARK    4  A    between atoms: C_8  and  C_9
REMARK    5  A    between atoms: C_9  and  N_10
REMARK    6  A    between atoms: C_11  and  C_13
REMARK                            x       y       z     vdW  Elec       q    Type
REMARK                         _______ _______ _______ _____ _____    ______ ____
ROOT
ATOM      1  C   UNL     1      49.613   4.559  17.631  0.00  0.00    +0.000 A 
ATOM      2  C   UNL     1      48.325   4.416  17.109  0.00  0.00    +0.000 A 
ATOM      3  C   UNL     1      47.912   5.218  16.045  0.00  0.00    +0.000 A 
ATOM      4  C   UNL     1      48.789   6.177  15.547  0.00  0.00    +0.000 A 
ATOM      5  N   UNL     1      50.042   6.341  16.044  0.00  0.00    +0.000 NA
ATOM      6  C   UNL     1      50.422   5.534  17.061  0.00  0.00    +0.000 A 
ENDROOT
BRANCH   1   7
ATOM      7  C   UNL     1      50.106   3.704  18.761  0.00  0.00    +0.000 C 
BRANCH   7  10
ATOM      8  O   UNL     1      50.505   1.457  17.160  0.00  0.00    +0.000 OA
ATOM      9  C   UNL     1      51.486   1.996  17.667  0.00  0.00    +0.000 C 
ATOM     10  N   UNL     1      51.386   3.106  18.472  0.00  0.00    +0.000 N 
ATOM     11  H   UNL     1      52.225   3.607  18.736  0.00  0.00    +0.000 HD
BRANCH   9  12
ATOM     12  C   UNL     1      52.825   1.518  17.446  0.00  0.00    +0.000 A 
ATOM     13  C   UNL     1      54.059   2.131  17.533  0.00  0.00    +0.000 A 
ATOM     14  N   UNL     1      55.074   1.258  17.238  0.00  0.00    +0.000 NA
ATOM     15  C   UNL     1      54.482   0.117  16.980  0.00  0.00    +0.000 A 
ATOM     16  N   UNL     1      53.127   0.221  17.098  0.00  0.00    +0.000 N 
ATOM     17  H   UNL     1      52.450  -0.519  16.956  0.00  0.00    +0.000 HD
ENDBRANCH   9  12
ENDBRANCH   7  10
ENDBRANCH   1   7
BRANCH   4  18
ATOM     18  C   UNL     1      48.368   7.076  14.408  0.00  0.00    +0.000 C 
BRANCH  18  19
ATOM     19  N   UNL     1      47.096   6.692  13.841  0.00  0.00    +0.000 N 
ATOM     20  C   UNL     1      46.831   6.758  12.500  0.00  0.00    +0.000 C 
ATOM     21  O   UNL     1      47.658   7.166  11.688  0.00  0.00    +0.000 OA
ATOM     22  H   UNL     1      46.333   6.592  14.503  0.00  0.00    +0.000 HD
BRANCH  20  23
ATOM     23  C   UNL     1      45.524   6.238  12.071  0.00  0.00    +0.000 A 
ATOM     24  C   UNL     1      44.580   7.103  11.534  0.00  0.00    +0.000 A 
ATOM     25  S   UNL     1      43.141   6.325  11.048  0.00  0.00    +0.000 S 
ATOM     26  C   UNL     1      43.710   4.815  11.583  0.00  0.00    +0.000 A 
ATOM     27  N   UNL     1      42.937   3.700  11.485  0.00  0.00    +0.000 NA
ATOM     28  C   UNL     1      43.485   2.629  11.956  0.00  0.00    +0.000 A 
ATOM     29  N   UNL     1      44.737   2.568  12.507  0.00  0.00    +0.000 N 
ATOM     30  C   UNL     1      45.571   3.656  12.577  0.00  0.00    +0.000 A 
ATOM     31  O   UNL     1      46.721   3.548  12.988  0.00  0.00    +0.000 OA
ATOM     32  C   UNL     1      44.993   4.896  12.096  0.00  0.00    +0.000 A 
ATOM     33  H   UNL     1      45.117   1.695  12.837  0.00  0.00    +0.000 HD
ENDBRANCH  20  23
ENDBRANCH  18  19
ENDBRANCH   4  18
TORSDOF 6
ENDMDL
MODEL 8
REMARK VINA RESULT:    -6.773      3.689      8.276
REMARK INTER + INTRA:         -10.252
REMARK INTER:                  -9.447
REMARK INTRA:                  -0.804
REMARK UNBOUND:                -1.103
REMARK  Name = 
REMARK  6 active torsions:
REMARK  status: ('A' for Active; 'I' for Inactive)
REMARK    1  A    between atoms: C_2  and  C_25
REMARK    2  A    between atoms: N_3  and  C_4
REMARK    3  A    between atoms: C_4  and  C_5
REMARK    4  A    between atoms: C_8  and  C_9
REMARK    5  A    between atoms: C_9  and  N_10
REMARK    6  A    between atoms: C_11  and  C_13
REMARK                            x       y       z     vdW  Elec       q    Type
REMARK                         _______ _______ _______ _____ _____    ______ ____
ROOT
ATOM      1  C   UNL     1      50.200   7.135  15.710  0.00  0.00    +0.000 A 
ATOM      2  C   UNL     1      50.918   7.864  14.760  0.00  0.00    +0.000 A 
ATOM      3  C   UNL     1      50.327   8.189  13.539  0.00  0.00    +0.000 A 
ATOM      4  C   UNL     1      49.035   7.742  13.278  0.00  0.00    +0.000 A 
ATOM      5  N   UNL     1      48.321   7.023  14.181  0.00  0.00    +0.000 NA
ATOM      6  C   UNL     1      48.912   6.742  15.366  0.00  0.00    +0.000 A 
ENDROOT
BRANCH   1   7
ATOM      7  C   UNL     1      50.788   6.781  17.045  0.00  0.00    +0.000 C 
BRANCH   7  10
ATOM      8  O   UNL     1      49.516   4.686  18.375  0.00  0.00    +0.000 OA
ATOM      9  C   UNL     1      50.559   4.448  17.770  0.00  0.00    +0.000 C 
ATOM     10  N   UNL     1      51.256   5.417  17.088  0.00  0.00    +0.000 N 
ATOM     11  H   UNL     1      52.016   5.147  16.477  0.00  0.00    +0.000 HD
BRANCH   9  12
ATOM     12  C   UNL     1      51.129   3.128  17.711  0.00  0.00    +0.000 A 
ATOM     13  C   UNL     1      50.685   1.945  17.155  0.00  0.00    +0.000 A 
ATOM     14  N   UNL     1      51.590   0.932  17.342  0.00  0.00    +0.000 NA
ATOM     15  C   UNL     1      52.586   1.478  17.997  0.00  0.00    +0.000 A 
ATOM     16  N   UNL     1      52.359   2.802  18.238  0.00  0.00    +0.000 N 
ATOM     17  H   UNL     1      52.978   3.443  18.719  0.00  0.00    +0.000 HD
ENDBRANCH   9  12
ENDBRANCH   7  10
ENDBRANCH   1   7
BRANCH   4  18
ATOM     18  C   UNL     1      48.373   8.058  11.958  0.00  0.00    +0.000 C 
BRANCH  18  19
ATOM     19  N   UNL     1      47.613   6.944  11.439  0.00  0.00    +0.000 N 
ATOM     20  C   UNL     1      46.247   6.883  11.499  0.00  0.00    +0.000 C 
ATOM     21  O   UNL     1      45.575   7.772  12.018  0.00  0.00    +0.000 OA
ATOM     22  H   UNL     1      48.148   6.105  11.237  0.00  0.00    +0.000 HD
BRANCH  20  23
ATOM     23  C   UNL     1      45.619   5.731  10.839  0.00  0.00    +0.000 A 
ATOM     24  C   UNL     1      45.743   5.571   9.465  0.00  0.00    +0.000 A 
ATOM     25  S   UNL     1      44.994   4.157   8.872  0.00  0.00    +0.000 S 
ATOM     26  C   UNL     1      44.438   3.734  10.422  0.00  0.00    +0.000 A 
ATOM     27  N   UNL     1      43.686   2.618  10.616  0.00  0.00    +0.000 NA
ATOM     28  C   UNL     1      43.308   2.436  11.839  0.00  0.00    +0.000 A 
ATOM     29  N   UNL     1      43.622   3.261  12.885  0.00  0.00    +0.000 N 
ATOM     30  C   UNL     1      44.422   4.367  12.744  0.00  0.00    +0.000 A 
ATOM     31  O   UNL     1      44.763   5.031  13.718  0.00  0.00    +0.000 OA
ATOM     32  C   UNL     1      44.845   4.642  11.384  0.00  0.00    +0.000 A 
ATOM     33  H   UNL     1      43.316   3.051  13.823  0.00  0.00    +0.000 HD
ENDBRANCH  20  23
ENDBRANCH  18  19
ENDBRANCH   4  18
TORSDOF 6
ENDMDL
MODEL 9
REMARK VINA RESULT:    -6.663      2.485      3.334
REMARK INTER + INTRA:         -10.103
REMARK INTER:                  -9.624
REMARK INTRA:                  -0.478
REMARK UNBOUND:                -1.103
REMARK  Name = 
REMARK  6 active torsions:
REMARK  status: ('A' for Active; 'I' for Inactive)
REMARK    1  A    between atoms: C_2  and  C_25
REMARK    2  A    between atoms: N_3  and  C_4
REMARK    3  A    between atoms: C_4  and  C_5
REMARK    4  A    between atoms: C_8  and  C_9
REMARK    5  A    between atoms: C_9  and  N_10
REMARK    6  A    between atoms: C_11  and  C_13
REMARK                            x       y       z     vdW  Elec       q    Type
REMARK                         _______ _______ _______ _____ _____    ______ ____
ROOT
ATOM      1  C   UNL     1      45.019   4.479  10.978  0.00  0.00    +0.000 A 
ATOM      2  C   UNL     1      45.118   3.381  11.835  0.00  0.00    +0.000 A 
ATOM      3  C   UNL     1      45.677   3.537  13.103  0.00  0.00    +0.000 A 
ATOM      4  C   UNL     1      46.162   4.787  13.475  0.00  0.00    +0.000 A 
ATOM      5  N   UNL     1      46.085   5.867  12.656  0.00  0.00    +0.000 NA
ATOM      6  C   UNL     1      45.517   5.691  11.440  0.00  0.00    +0.000 A 
ENDROOT
BRANCH   1   7
ATOM      7  C   UNL     1      44.406   4.363   9.613  0.00  0.00    +0.000 C 
BRANCH   7  10
ATOM      8  O   UNL     1      44.936   1.731   8.858  0.00  0.00    +0.000 OA
ATOM      9  C   UNL     1      45.562   2.635   8.308  0.00  0.00    +0.000 C 
ATOM     10  N   UNL     1      45.370   3.960   8.617  0.00  0.00    +0.000 N 
ATOM     11  H   UNL     1      45.787   4.674   8.033  0.00  0.00    +0.000 HD
BRANCH   9  12
ATOM     12  C   UNL     1      46.538   2.380   7.283  0.00  0.00    +0.000 A 
ATOM     13  C   UNL     1      47.534   1.431   7.160  0.00  0.00    +0.000 A 
ATOM     14  N   UNL     1      48.219   1.574   5.981  0.00  0.00    +0.000 NA
ATOM     15  C   UNL     1      47.653   2.590   5.375  0.00  0.00    +0.000 A 
ATOM     16  N   UNL     1      46.630   3.106   6.117  0.00  0.00    +0.000 N 
ATOM     17  H   UNL     1      46.036   3.886   5.865  0.00  0.00    +0.000 HD
ENDBRANCH   9  12
ENDBRANCH   7  10
ENDBRANCH   1   7
BRANCH   4  18
ATOM     18  C   UNL     1      46.791   4.987  14.834  0.00  0.00    +0.000 C 
BRANCH  18  19
ATOM     19  N   UNL     1      47.872   5.945  14.808  0.00  0.00    +0.000 N 
ATOM     20  C   UNL     1      48.652   6.216  15.900  0.00  0.00    +0.000 C 
ATOM     21  O   UNL     1      48.472   5.667  16.985  0.00  0.00    +0.000 OA
ATOM     22  H   UNL     1      47.877   6.578  14.013  0.00  0.00    +0.000 HD
BRANCH  20  23
ATOM     23  C   UNL     1      49.771   7.143  15.683  0.00  0.00    +0.000 A 
ATOM     24  C   UNL     1      49.542   8.369  15.073  0.00  0.00    +0.000 A 
ATOM     25  S   UNL     1      50.940   9.339  14.943  0.00  0.00    +0.000 S 
ATOM     26  C   UNL     1      51.909   8.135  15.653  0.00  0.00    +0.000 A 
ATOM     27  N   UNL     1      53.247   8.316  15.815  0.00  0.00    +0.000 NA
ATOM     28  C   UNL     1      53.861   7.308  16.340  0.00  0.00    +0.000 A 
ATOM     29  N   UNL     1      53.261   6.141  16.727  0.00  0.00    +0.000 N 
ATOM     30  C   UNL     1      51.907   5.936  16.632  0.00  0.00    +0.000 A 
ATOM     31  O   UNL     1      51.387   4.917  17.076  0.00  0.00    +0.000 OA
ATOM     32  C   UNL     1      51.170   7.021  16.014  0.00  0.00    +0.000 A 
ATOM     33  H   UNL     1      53.794   5.399  17.154  0.00  0.00    +0.000 HD
ENDBRANCH  20  23
ENDBRANCH  18  19
ENDBRANCH   4  18
TORSDOF 6
ENDMDL
