MODEL 1
REMARK VINA RESULT:    -7.580      0.000      0.000
REMARK INTER + INTRA:         -11.309
REMARK INTER:                 -10.239
REMARK INTRA:                  -1.070
REMARK UNBOUND:                -1.070
REMARK  Name = 
REMARK  6 active torsions:
REMARK  status: ('A' for Active; 'I' for Inactive)
REMARK    1  A    between atoms: C_2  and  C_21
REMARK    2  A    between atoms: N_3  and  C_4
REMARK    3  A    between atoms: C_4  and  C_5
REMARK    4  A    between atoms: C_8  and  C_9
REMARK    5  A    between atoms: C_9  and  C_10
REMARK    6  A    between atoms: C_10  and  C_11
REMARK                            x       y       z     vdW  Elec       q    Type
REMARK                         _______ _______ _______ _____ _____    ______ ____
ROOT
ATOM      1  C   UNL     1      48.703   6.990  14.194  0.00  0.00    +0.000 C 
ENDROOT
BRANCH   1   2
ATOM      2  C   UNL     1      47.352   6.535  13.702  0.00  0.00    +0.000 A 
ATOM      3  C   UNL     1      46.510   7.425  13.026  0.00  0.00    +0.000 A 
ATOM      4  C   UNL     1      45.273   6.999  12.527  0.00  0.00    +0.000 A 
ATOM      5  C   UNL     1      44.851   5.675  12.696  0.00  0.00    +0.000 A 
ATOM      6  C   UNL     1      45.684   4.792  13.397  0.00  0.00    +0.000 A 
ATOM      7  C   UNL     1      46.917   5.219  13.903  0.00  0.00    +0.000 A 
BRANCH   5   8
ATOM      8  C   UNL     1      43.507   5.206  12.177  0.00  0.00    +0.000 C 
BRANCH   8   9
ATOM      9  C   UNL     1      43.529   4.843  10.691  0.00  0.00    +0.000 C 
BRANCH   9  10
ATOM     10  C   UNL     1      43.935   3.397  10.450  0.00  0.00    +0.000 C 
ATOM     11  O   UNL     1      43.839   2.549  11.337  0.00  0.00    +0.000 OA
ATOM     12  N   UNL     1      44.381   3.085   9.170  0.00  0.00    +0.000 N 
ATOM     13  C   UNL     1      44.624   1.689   8.805  0.00  0.00    +0.000 C 
ATOM     14  C   UNL     1      46.087   1.470   8.432  0.00  0.00    +0.000 C 
ATOM     15  C   UNL     1      46.538   2.463   7.359  0.00  0.00    +0.000 C 
ATOM     16  C   UNL     1      46.224   3.901   7.772  0.00  0.00    +0.000 C 
ATOM     17  C   UNL     1      44.750   4.060   8.143  0.00  0.00    +0.000 C 
ENDBRANCH   9  10
ENDBRANCH   8   9
ENDBRANCH   5   8
ENDBRANCH   1   2
BRANCH   1  20
ATOM     18  O   UNL     1      50.880   6.350  15.872  0.00  0.00    +0.000 OA
ATOM     19  C   UNL     1      49.863   6.826  16.369  0.00  0.00    +0.000 C 
ATOM     20  N   UNL     1      48.751   7.127  15.627  0.00  0.00    +0.000 N 
ATOM     21  H   UNL     1      47.988   7.643  16.051  0.00  0.00    +0.000 HD
BRANCH  19  22
ATOM     22  C   UNL     1      49.758   7.060  17.814  0.00  0.00    +0.000 A 
ATOM     23  C   UNL     1      50.653   7.911  18.449  0.00  0.00    +0.000 A 
ATOM     24  S   UNL     1      50.348   8.098  20.117  0.00  0.00    +0.000 S 
ATOM     25  C   UNL     1      48.992   7.070  20.040  0.00  0.00    +0.000 A 
ATOM     26  N   UNL     1      48.226   6.837  21.139  0.00  0.00    +0.000 NA
ATOM     27  C   UNL     1      47.204   6.077  20.923  0.00  0.00    +0.000 A 
ATOM     28  N   UNL     1      46.892   5.509  19.713  0.00  0.00    +0.000 N 
ATOM     29  C   UNL     1      47.695   5.634  18.604  0.00  0.00    +0.000 A 
ATOM     30  O   UNL     1      47.491   4.967  17.600  0.00  0.00    +0.000 OA
ATOM     31  C   UNL     1      48.807   6.552  18.771  0.00  0.00    +0.000 A 
ATOM     32  H   UNL     1      46.110   4.879  19.621  0.00  0.00    +0.000 HD
ENDBRANCH  19  22
ENDBRANCH   1  20
TORSDOF 6
ENDMDL
MODEL 2
REMARK VINA RESULT:    -7.469      1.669      2.303
REMARK INTER + INTRA:         -11.159
REMARK INTER:                 -10.448
REMARK INTRA:                  -0.711
REMARK UNBOUND:                -1.070
REMARK  Name = 
REMARK  6 active torsions:
REMARK  status: ('A' for Active; 'I' for Inactive)
REMARK    1  A    between atoms: C_2  and  C_21
REMARK    2  A    between atoms: N_3  and  C_4
REMARK    3  A    between atoms: C_4  and  C_5
REMARK    4  A    between atoms: C_8  and  C_9
REMARK    5  A    between atoms: C_9  and  C_10
REMARK    6  A    between atoms: C_10  and  C_11
REMARK                            x       y       z     vdW  Elec       q    Type
REMARK                         _______ _______ _______ _____ _____    ______ ____
ROOT
ATOM      1  C   UNL     1      47.982   6.687  13.429  0.00  0.00    +0.000 C 
ENDROOT
BRANCH   1   2
ATOM      2  C   UNL     1      46.914   5.830  12.796  0.00  0.00    +0.000 A 
ATOM      3  C   UNL     1      46.704   4.520  13.241  0.00  0.00    +0.000 A 
ATOM      4  C   UNL     1      45.686   3.733  12.689  0.00  0.00    +0.000 A 
ATOM      5  C   UNL     1      44.859   4.238  11.677  0.00  0.00    +0.000 A 
ATOM      6  C   UNL     1      45.090   5.541  11.214  0.00  0.00    +0.000 A 
ATOM      7  C   UNL     1      46.112   6.325  11.760  0.00  0.00    +0.000 A 
BRANCH   5   8
ATOM      8  C   UNL     1      43.767   3.391  11.059  0.00  0.00    +0.000 C 
BRANCH   8   9
ATOM      9  C   UNL     1      44.262   2.519   9.904  0.00  0.00    +0.000 C 
BRANCH   9  10
ATOM     10  C   UNL     1      44.725   3.340   8.710  0.00  0.00    +0.000 C 
ATOM     11  O   UNL     1      44.068   4.296   8.297  0.00  0.00    +0.000 OA
ATOM     12  N   UNL     1      45.940   2.975   8.141  0.00  0.00    +0.000 N 
ATOM     13  C   UNL     1      46.540   3.816   7.106  0.00  0.00    +0.000 C 
ATOM     14  C   UNL     1      46.682   3.049   5.794  0.00  0.00    +0.000 C 
ATOM     15  C   UNL     1      47.424   1.728   6.005  0.00  0.00    +0.000 C 
ATOM     16  C   UNL     1      46.781   0.907   7.123  0.00  0.00    +0.000 C 
ATOM     17  C   UNL     1      46.656   1.726   8.407  0.00  0.00    +0.000 C 
ENDBRANCH   9  10
ENDBRANCH   8   9
ENDBRANCH   5   8
ENDBRANCH   1   2
BRANCH   1  20
ATOM     18  O   UNL     1      50.146   6.714  15.241  0.00  0.00    +0.000 OA
ATOM     19  C   UNL     1      49.000   6.749  15.679  0.00  0.00    +0.000 C 
ATOM     20  N   UNL     1      47.897   6.701  14.867  0.00  0.00    +0.000 N 
ATOM     21  H   UNL     1      46.977   6.870  15.258  0.00  0.00    +0.000 HD
BRANCH  19  22
ATOM     22  C   UNL     1      48.737   6.798  17.122  0.00  0.00    +0.000 A 
ATOM     23  C   UNL     1      48.296   7.976  17.711  0.00  0.00    +0.000 A 
ATOM     24  S   UNL     1      47.999   7.831  19.384  0.00  0.00    +0.000 S 
ATOM     25  C   UNL     1      48.422   6.181  19.372  0.00  0.00    +0.000 A 
ATOM     26  N   UNL     1      48.336   5.426  20.500  0.00  0.00    +0.000 NA
ATOM     27  C   UNL     1      48.642   4.182  20.333  0.00  0.00    +0.000 A 
ATOM     28  N   UNL     1      49.050   3.630  19.145  0.00  0.00    +0.000 N 
ATOM     29  C   UNL     1      49.251   4.376  18.007  0.00  0.00    +0.000 A 
ATOM     30  O   UNL     1      49.791   3.891  17.023  0.00  0.00    +0.000 OA
ATOM     31  C   UNL     1      48.833   5.762  18.120  0.00  0.00    +0.000 A 
ATOM     32  H   UNL     1      49.329   2.661  19.091  0.00  0.00    +0.000 HD
ENDBRANCH  19  22
ENDBRANCH   1  20
TORSDOF 6
ENDMDL
MODEL 3
REMARK VINA RESULT:    -7.459      3.697      4.237
REMARK INTER + INTRA:         -11.146
REMARK INTER:                 -10.100
REMARK INTRA:                  -1.046
REMARK UNBOUND:                -1.070
REMARK  Name = 
REMARK  6 active torsions:
REMARK  status: ('A' for Active; 'I' for Inactive)
REMARK    1  A    between atoms: C_2  and  C_21
REMARK    2  A    between atoms: N_3  and  C_4
REMARK    3  A    between atoms: C_4  and  C_5
REMARK    4  A    between atoms: C_8  and  C_9
REMARK    5  A    between atoms: C_9  and  C_10
REMARK    6  A    between atoms: C_10  and  C_11
REMARK                            x       y       z     vdW  Elec       q    Type
REMARK                         _______ _______ _______ _____ _____    ______ ____
ROOT
ATOM      1  C   UNL     1      49.251   6.144  17.862  0.00  0.00    +0.000 C 
ENDROOT
BRANCH   1   2
ATOM      2  C   UNL     1      48.648   6.010  16.487  0.00  0.00    +0.000 A 
ATOM      3  C   UNL     1      47.877   4.889  16.160  0.00  0.00    +0.000 A 
ATOM      4  C   UNL     1      47.276   4.777  14.901  0.00  0.00    +0.000 A 
ATOM      5  C   UNL     1      47.437   5.783  13.939  0.00  0.00    +0.000 A 
ATOM      6  C   UNL     1      48.232   6.891  14.259  0.00  0.00    +0.000 A 
ATOM      7  C   UNL     1      48.839   7.000  15.515  0.00  0.00    +0.000 A 
BRANCH   5   8
ATOM      8  C   UNL     1      46.808   5.665  12.567  0.00  0.00    +0.000 C 
BRANCH   8   9
ATOM      9  C   UNL     1      45.332   5.263  12.613  0.00  0.00    +0.000 C 
BRANCH   9  10
ATOM     10  C   UNL     1      45.089   3.874  12.041  0.00  0.00    +0.000 C 
ATOM     11  O   UNL     1      45.205   2.866  12.738  0.00  0.00    +0.000 OA
ATOM     12  N   UNL     1      44.696   3.813  10.708  0.00  0.00    +0.000 N 
ATOM     13  C   UNL     1      44.274   2.537  10.132  0.00  0.00    +0.000 C 
ATOM     14  C   UNL     1      45.190   2.129   8.981  0.00  0.00    +0.000 C 
ATOM     15  C   UNL     1      45.308   3.249   7.947  0.00  0.00    +0.000 C 
ATOM     16  C   UNL     1      45.711   4.568   8.606  0.00  0.00    +0.000 C 
ATOM     17  C   UNL     1      44.767   4.922   9.755  0.00  0.00    +0.000 C 
ENDBRANCH   9  10
ENDBRANCH   8   9
ENDBRANCH   5   8
ENDBRANCH   1   2
BRANCH   1  20
ATOM     18  O   UNL     1      51.892   6.234  16.870  0.00  0.00    +0.000 OA
ATOM     19  C   UNL     1      51.564   5.313  17.613  0.00  0.00    +0.000 C 
ATOM     20  N   UNL     1      50.293   5.179  18.105  0.00  0.00    +0.000 N 
ATOM     21  H   UNL     1      50.101   4.487  18.821  0.00  0.00    +0.000 HD
BRANCH  19  22
ATOM     22  C   UNL     1      52.516   4.260  17.987  0.00  0.00    +0.000 A 
ATOM     23  C   UNL     1      53.747   4.596  18.534  0.00  0.00    +0.000 A 
ATOM     24  S   UNL     1      54.699   3.243  18.950  0.00  0.00    +0.000 S 
ATOM     25  C   UNL     1      53.485   2.163  18.439  0.00  0.00    +0.000 A 
ATOM     26  N   UNL     1      53.642   0.819  18.570  0.00  0.00    +0.000 NA
ATOM     27  C   UNL     1      52.622   0.124  18.185  0.00  0.00    +0.000 A 
ATOM     28  N   UNL     1      51.470   0.651  17.659  0.00  0.00    +0.000 N 
ATOM     29  C   UNL     1      51.311   1.995  17.412  0.00  0.00    +0.000 A 
ATOM     30  O   UNL     1      50.355   2.410  16.774  0.00  0.00    +0.000 OA
ATOM     31  C   UNL     1      52.392   2.826  17.912  0.00  0.00    +0.000 A 
ATOM     32  H   UNL     1      50.730   0.052  17.325  0.00  0.00    +0.000 HD
ENDBRANCH  19  22
ENDBRANCH   1  20
TORSDOF 6
ENDMDL
MODEL 4
REMARK VINA RESULT:    -7.275      3.086      8.899
REMARK INTER + INTRA:         -10.898
REMARK INTER:                  -9.512
REMARK INTRA:                  -1.386
REMARK UNBOUND:                -1.070
REMARK  Name = 
REMARK  6 active torsions:
REMARK  status: ('A' for Active; 'I' for Inactive)
REMARK    1  A    between atoms: C_2  and  C_21
REMARK    2  A    between atoms: N_3  and  C_4
REMARK    3  A    between atoms: C_4  and  C_5
REMARK    4  A    between atoms: C_8  and  C_9
REMARK    5  A    between atoms: C_9  and  C_10
REMARK    6  A    between atoms: C_10  and  C_11
REMARK                            x       y       z     vdW  Elec       q    Type
REMARK                         _______ _______ _______ _____ _____    ______ ____
ROOT
ATOM      1  C   UNL     1      47.772   7.910  11.848  0.00  0.00    +0.000 C 
ENDROOT
BRANCH   1   2
ATOM      2  C   UNL     1      48.563   7.971  13.131  0.00  0.00    +0.000 A 
ATOM      3  C   UNL     1      47.918   8.231  14.346  0.00  0.00    +0.000 A 
ATOM      4  C   UNL     1      48.637   8.245  15.547  0.00  0.00    +0.000 A 
ATOM      5  C   UNL     1      50.017   8.004  15.559  0.00  0.00    +0.000 A 
ATOM      6  C   UNL     1      50.664   7.771  14.338  0.00  0.00    +0.000 A 
ATOM      7  C   UNL     1      49.948   7.764  13.136  0.00  0.00    +0.000 A 
BRANCH   5   8
ATOM      8  C   UNL     1      50.810   8.035  16.849  0.00  0.00    +0.000 C 
BRANCH   8   9
ATOM      9  C   UNL     1      50.292   7.048  17.898  0.00  0.00    +0.000 C 
BRANCH   9  10
ATOM     10  C   UNL     1      50.515   5.599  17.495  0.00  0.00    +0.000 C 
ATOM     11  O   UNL     1      51.501   5.260  16.841  0.00  0.00    +0.000 OA
ATOM     12  N   UNL     1      49.567   4.681  17.936  0.00  0.00    +0.000 N 
ATOM     13  C   UNL     1      49.797   3.249  17.742  0.00  0.00    +0.000 C 
ATOM     14  C   UNL     1      48.712   2.638  16.859  0.00  0.00    +0.000 C 
ATOM     15  C   UNL     1      47.317   2.959  17.396  0.00  0.00    +0.000 C 
ATOM     16  C   UNL     1      47.144   4.462  17.617  0.00  0.00    +0.000 C 
ATOM     17  C   UNL     1      48.260   5.021  18.500  0.00  0.00    +0.000 C 
ENDBRANCH   9  10
ENDBRANCH   8   9
ENDBRANCH   5   8
ENDBRANCH   1   2
BRANCH   1  20
ATOM     18  O   UNL     1      44.990   7.556  12.166  0.00  0.00    +0.000 OA
ATOM     19  C   UNL     1      45.681   6.594  11.844  0.00  0.00    +0.000 C 
ATOM     20  N   UNL     1      47.042   6.676  11.707  0.00  0.00    +0.000 N 
ATOM     21  H   UNL     1      47.556   5.898  11.309  0.00  0.00    +0.000 HD
BRANCH  19  22
ATOM     22  C   UNL     1      45.090   5.268  11.630  0.00  0.00    +0.000 A 
ATOM     23  C   UNL     1      44.436   4.620  12.669  0.00  0.00    +0.000 A 
ATOM     24  S   UNL     1      43.772   3.113  12.222  0.00  0.00    +0.000 S 
ATOM     25  C   UNL     1      44.311   3.291  10.616  0.00  0.00    +0.000 A 
ATOM     26  N   UNL     1      44.024   2.355   9.672  0.00  0.00    +0.000 NA
ATOM     27  C   UNL     1      44.454   2.643   8.489  0.00  0.00    +0.000 A 
ATOM     28  N   UNL     1      45.166   3.771   8.168  0.00  0.00    +0.000 N 
ATOM     29  C   UNL     1      45.567   4.691   9.109  0.00  0.00    +0.000 A 
ATOM     30  O   UNL     1      46.355   5.581   8.825  0.00  0.00    +0.000 OA
ATOM     31  C   UNL     1      45.031   4.458  10.438  0.00  0.00    +0.000 A 
ATOM     32  H   UNL     1      45.523   3.913   7.235  0.00  0.00    +0.000 HD
ENDBRANCH  19  22
ENDBRANCH   1  20
TORSDOF 6
ENDMDL
MODEL 5
REMARK VINA RESULT:    -6.992      3.465      9.147
REMARK INTER + INTRA:         -10.515
REMARK INTER:                  -8.927
REMARK INTRA:                  -1.588
REMARK UNBOUND:                -1.070
REMARK  Name = 
REMARK  6 active torsions:
REMARK  status: ('A' for Active; 'I' for Inactive)
REMARK    1  A    between atoms: C_2  and  C_21
REMARK    2  A    between atoms: N_3  and  C_4
REMARK    3  A    between atoms: C_4  and  C_5
REMARK    4  A    between atoms: C_8  and  C_9
REMARK    5  A    between atoms: C_9  and  C_10
REMARK    6  A    between atoms: C_10  and  C_11
REMARK                            x       y       z     vdW  Elec       q    Type
REMARK                         _______ _______ _______ _____ _____    ______ ____
ROOT
ATOM      1  C   UNL     1      47.479   3.577  16.524  0.00  0.00    +0.000 C 
ENDROOT
BRANCH   1   2
ATOM      2  C   UNL     1      48.101   4.251  17.721  0.00  0.00    +0.000 A 
ATOM      3  C   UNL     1      49.449   4.039  18.029  0.00  0.00    +0.000 A 
ATOM      4  C   UNL     1      50.046   4.695  19.112  0.00  0.00    +0.000 A 
ATOM      5  C   UNL     1      49.307   5.575  19.912  0.00  0.00    +0.000 A 
ATOM      6  C   UNL     1      47.950   5.764  19.618  0.00  0.00    +0.000 A 
ATOM      7  C   UNL     1      47.350   5.103  18.540  0.00  0.00    +0.000 A 
BRANCH   5   8
ATOM      8  C   UNL     1      49.936   6.276  21.097  0.00  0.00    +0.000 C 
BRANCH   8   9
ATOM      9  C   UNL     1      50.647   7.578  20.719  0.00  0.00    +0.000 C 
BRANCH   9  10
ATOM     10  C   UNL     1      49.683   8.645  20.222  0.00  0.00    +0.000 C 
ATOM     11  O   UNL     1      48.902   9.209  20.989  0.00  0.00    +0.000 OA
ATOM     12  N   UNL     1      49.761   8.969  18.872  0.00  0.00    +0.000 N 
ATOM     13  C   UNL     1      48.997  10.101  18.351  0.00  0.00    +0.000 C 
ATOM     14  C   UNL     1      47.995   9.643  17.294  0.00  0.00    +0.000 C 
ATOM     15  C   UNL     1      48.681   8.823  16.201  0.00  0.00    +0.000 C 
ATOM     16  C   UNL     1      49.498   7.678  16.802  0.00  0.00    +0.000 C 
ATOM     17  C   UNL     1      50.476   8.193  17.857  0.00  0.00    +0.000 C 
ENDBRANCH   9  10
ENDBRANCH   8   9
ENDBRANCH   5   8
ENDBRANCH   1   2
BRANCH   1  20
ATOM     18  O   UNL     1      47.140   3.217  13.744  0.00  0.00    +0.000 OA
ATOM     19  C   UNL     1      46.735   4.252  14.267  0.00  0.00    +0.000 C 
ATOM     20  N   UNL     1      46.895   4.517  15.601  0.00  0.00    +0.000 N 
ATOM     21  H   UNL     1      46.427   5.315  16.016  0.00  0.00    +0.000 HD
BRANCH  19  22
ATOM     22  C   UNL     1      46.086   5.303  13.473  0.00  0.00    +0.000 A 
ATOM     23  C   UNL     1      46.753   6.493  13.215  0.00  0.00    +0.000 A 
ATOM     24  S   UNL     1      45.865   7.574  12.239  0.00  0.00    +0.000 S 
ATOM     25  C   UNL     1      44.571   6.474  12.104  0.00  0.00    +0.000 A 
ATOM     26  N   UNL     1      43.481   6.762  11.344  0.00  0.00    +0.000 NA
ATOM     27  C   UNL     1      42.601   5.818  11.295  0.00  0.00    +0.000 A 
ATOM     28  N   UNL     1      42.701   4.621  11.957  0.00  0.00    +0.000 N 
ATOM     29  C   UNL     1      43.733   4.330  12.818  0.00  0.00    +0.000 A 
ATOM     30  O   UNL     1      43.698   3.338  13.532  0.00  0.00    +0.000 OA
ATOM     31  C   UNL     1      44.793   5.322  12.836  0.00  0.00    +0.000 A 
ATOM     32  H   UNL     1      41.952   3.944  11.923  0.00  0.00    +0.000 HD
ENDBRANCH  19  22
ENDBRANCH   1  20
TORSDOF 6
ENDMDL
MODEL 6
REMARK VINA RESULT:    -6.917      3.933      9.208
REMARK INTER + INTRA:         -10.414
REMARK INTER:                  -9.358
REMARK INTRA:                  -1.056
REMARK UNBOUND:                -1.070
REMARK  Name = 
REMARK  6 active torsions:
REMARK  status: ('A' for Active; 'I' for Inactive)
REMARK    1  A    between atoms: C_2  and  C_21
REMARK    2  A    between atoms: N_3  and  C_4
REMARK    3  A    between atoms: C_4  and  C_5
REMARK    4  A    between atoms: C_8  and  C_9
REMARK    5  A    between atoms: C_9  and  C_10
REMARK    6  A    between atoms: C_10  and  C_11
REMARK                            x       y       z     vdW  Elec       q    Type
REMARK                         _______ _______ _______ _____ _____    ______ ____
ROOT
ATOM      1  C   UNL     1      47.171   3.359  16.937  0.00  0.00    +0.000 C 
ENDROOT
BRANCH   1   2
ATOM      2  C   UNL     1      48.649   3.331  17.237  0.00  0.00    +0.000 A 
ATOM      3  C   UNL     1      49.400   2.178  16.979  0.00  0.00    +0.000 A 
ATOM      4  C   UNL     1      50.779   2.157  17.213  0.00  0.00    +0.000 A 
ATOM      5  C   UNL     1      51.438   3.287  17.713  0.00  0.00    +0.000 A 
ATOM      6  C   UNL     1      50.680   4.431  17.996  0.00  0.00    +0.000 A 
ATOM      7  C   UNL     1      49.299   4.451  17.770  0.00  0.00    +0.000 A 
BRANCH   5   8
ATOM      8  C   UNL     1      52.927   3.272  17.988  0.00  0.00    +0.000 C 
BRANCH   8   9
ATOM      9  C   UNL     1      53.513   4.667  18.210  0.00  0.00    +0.000 C 
BRANCH   9  10
ATOM     10  C   UNL     1      54.553   5.037  17.162  0.00  0.00    +0.000 C 
ATOM     11  O   UNL     1      55.690   4.567  17.196  0.00  0.00    +0.000 OA
ATOM     12  N   UNL     1      54.135   5.899  16.153  0.00  0.00    +0.000 N 
ATOM     13  C   UNL     1      55.015   6.165  15.016  0.00  0.00    +0.000 C 
ATOM     14  C   UNL     1      55.377   7.646  14.942  0.00  0.00    +0.000 C 
ATOM     15  C   UNL     1      54.124   8.523  14.956  0.00  0.00    +0.000 C 
ATOM     16  C   UNL     1      53.222   8.176  16.140  0.00  0.00    +0.000 C 
ATOM     17  C   UNL     1      52.899   6.682  16.170  0.00  0.00    +0.000 C 
ENDBRANCH   9  10
ENDBRANCH   8   9
ENDBRANCH   5   8
ENDBRANCH   1   2
BRANCH   1  20
ATOM     18  O   UNL     1      47.295   3.079  14.130  0.00  0.00    +0.000 OA
ATOM     19  C   UNL     1      46.880   4.132  14.608  0.00  0.00    +0.000 C 
ATOM     20  N   UNL     1      46.826   4.359  15.958  0.00  0.00    +0.000 N 
ATOM     21  H   UNL     1      46.351   5.182  16.311  0.00  0.00    +0.000 HD
BRANCH  19  22
ATOM     22  C   UNL     1      46.456   5.244  13.749  0.00  0.00    +0.000 A 
ATOM     23  C   UNL     1      47.301   6.326  13.542  0.00  0.00    +0.000 A 
ATOM     24  S   UNL     1      46.661   7.496  12.478  0.00  0.00    +0.000 S 
ATOM     25  C   UNL     1      45.246   6.581  12.236  0.00  0.00    +0.000 A 
ATOM     26  N   UNL     1      44.278   6.999  11.377  0.00  0.00    +0.000 NA
ATOM     27  C   UNL     1      43.283   6.183  11.257  0.00  0.00    +0.000 A 
ATOM     28  N   UNL     1      43.158   4.997  11.936  0.00  0.00    +0.000 N 
ATOM     29  C   UNL     1      44.059   4.587  12.890  0.00  0.00    +0.000 A 
ATOM     30  O   UNL     1      43.824   3.625  13.608  0.00  0.00    +0.000 OA
ATOM     31  C   UNL     1      45.240   5.425  12.996  0.00  0.00    +0.000 A 
ATOM     32  H   UNL     1      42.329   4.429  11.840  0.00  0.00    +0.000 HD
ENDBRANCH  19  22
ENDBRANCH   1  20
TORSDOF 6
ENDMDL
MODEL 7
REMARK VINA RESULT:    -6.656      4.214      9.412
REMARK INTER + INTRA:         -10.061
REMARK INTER:                  -8.459
REMARK INTRA:                  -1.602
REMARK UNBOUND:                -1.070
REMARK  Name = 
REMARK  6 active torsions:
REMARK  status: ('A' for Active; 'I' for Inactive)
REMARK    1  A    between atoms: C_2  and  C_21
REMARK    2  A    between atoms: N_3  and  C_4
REMARK    3  A    between atoms: C_4  and  C_5
REMARK    4  A    between atoms: C_8  and  C_9
REMARK    5  A    between atoms: C_9  and  C_10
REMARK    6  A    between atoms: C_10  and  C_11
REMARK                            x       y       z     vdW  Elec       q    Type
REMARK                         _______ _______ _______ _____ _____    ______ ____
ROOT
ATOM      1  C   UNL     1      46.151   8.214  12.911  0.00  0.00    +0.000 C 
ENDROOT
BRANCH   1   2
ATOM      2  C   UNL     1      47.532   8.534  12.395  0.00  0.00    +0.000 A 
ATOM      3  C   UNL     1      48.474   7.514  12.219  0.00  0.00    +0.000 A 
ATOM      4  C   UNL     1      49.742   7.795  11.698  0.00  0.00    +0.000 A 
ATOM      5  C   UNL     1      50.097   9.103  11.345  0.00  0.00    +0.000 A 
ATOM      6  C   UNL     1      49.162  10.127  11.548  0.00  0.00    +0.000 A 
ATOM      7  C   UNL     1      47.896   9.848  12.075  0.00  0.00    +0.000 A 
BRANCH   5   8
ATOM      8  C   UNL     1      51.473   9.423  10.798  0.00  0.00    +0.000 C 
BRANCH   8   9
ATOM      9  C   UNL     1      52.444   9.928  11.868  0.00  0.00    +0.000 C 
BRANCH   9  10
ATOM     10  C   UNL     1      52.879   8.829  12.825  0.00  0.00    +0.000 C 
ATOM     11  O   UNL     1      53.603   7.906  12.453  0.00  0.00    +0.000 OA
ATOM     12  N   UNL     1      52.445   8.948  14.142  0.00  0.00    +0.000 N 
ATOM     13  C   UNL     1      52.960   8.034  15.161  0.00  0.00    +0.000 C 
ATOM     14  C   UNL     1      51.830   7.210  15.775  0.00  0.00    +0.000 C 
ATOM     15  C   UNL     1      50.703   8.111  16.283  0.00  0.00    +0.000 C 
ATOM     16  C   UNL     1      50.232   9.072  15.192  0.00  0.00    +0.000 C 
ATOM     17  C   UNL     1      51.402   9.863  14.608  0.00  0.00    +0.000 C 
ENDBRANCH   9  10
ENDBRANCH   8   9
ENDBRANCH   5   8
ENDBRANCH   1   2
BRANCH   1  20
ATOM     18  O   UNL     1      44.059   7.494  11.159  0.00  0.00    +0.000 OA
ATOM     19  C   UNL     1      44.726   6.609  11.687  0.00  0.00    +0.000 C 
ATOM     20  N   UNL     1      45.733   6.877  12.578  0.00  0.00    +0.000 N 
ATOM     21  H   UNL     1      46.346   6.129  12.884  0.00  0.00    +0.000 HD
BRANCH  19  22
ATOM     22  C   UNL     1      44.452   5.191  11.430  0.00  0.00    +0.000 A 
ATOM     23  C   UNL     1      43.722   4.445  12.346  0.00  0.00    +0.000 A 
ATOM     24  S   UNL     1      43.461   2.832  11.857  0.00  0.00    +0.000 S 
ATOM     25  C   UNL     1      44.289   3.085  10.391  0.00  0.00    +0.000 A 
ATOM     26  N   UNL     1      44.391   2.096   9.462  0.00  0.00    +0.000 NA
ATOM     27  C   UNL     1      45.005   2.443   8.380  0.00  0.00    +0.000 A 
ATOM     28  N   UNL     1      45.546   3.683   8.151  0.00  0.00    +0.000 N 
ATOM     29  C   UNL     1      45.558   4.677   9.101  0.00  0.00    +0.000 A 
ATOM     30  O   UNL     1      46.209   5.699   8.936  0.00  0.00    +0.000 OA
ATOM     31  C   UNL     1      44.801   4.367  10.300  0.00  0.00    +0.000 A 
ATOM     32  H   UNL     1      46.063   3.876   7.306  0.00  0.00    +0.000 HD
ENDBRANCH  19  22
ENDBRANCH   1  20
TORSDOF 6
ENDMDL
MODEL 8
REMARK VINA RESULT:    -6.463      2.247      2.788
REMARK INTER + INTRA:          -9.801
REMARK INTER:                  -9.201
REMARK INTRA:                  -0.599
REMARK UNBOUND:                -1.070
REMARK  Name = 
REMARK  6 active torsions:
REMARK  status: ('A' for Active; 'I' for Inactive)
REMARK    1  A    between atoms: C_2  and  C_21
REMARK    2  A    between atoms: N_3  and  C_4
REMARK    3  A    between atoms: C_4  and  C_5
REMARK    4  A    between atoms: C_8  and  C_9
REMARK    5  A    between atoms: C_9  and  C_10
REMARK    6  A    between atoms: C_10  and  C_11
REMARK                            x       y       z     vdW  Elec       q    Type
REMARK                         _______ _______ _______ _____ _____    ______ ____
ROOT
ATOM      1  C   UNL     1      48.273   8.884  15.418  0.00  0.00    +0.000 C 
ENDROOT
BRANCH   1   2
ATOM      2  C   UNL     1      47.714   8.170  14.213  0.00  0.00    +0.000 A 
ATOM      3  C   UNL     1      48.149   6.878  13.893  0.00  0.00    +0.000 A 
ATOM      4  C   UNL     1      47.604   6.191  12.803  0.00  0.00    +0.000 A 
ATOM      5  C   UNL     1      46.614   6.781  12.007  0.00  0.00    +0.000 A 
ATOM      6  C   UNL     1      46.200   8.084  12.313  0.00  0.00    +0.000 A 
ATOM      7  C   UNL     1      46.750   8.775  13.398  0.00  0.00    +0.000 A 
BRANCH   5   8
ATOM      8  C   UNL     1      46.029   6.055  10.813  0.00  0.00    +0.000 C 
BRANCH   8   9
ATOM      9  C   UNL     1      44.740   5.299  11.141  0.00  0.00    +0.000 C 
BRANCH   9  10
ATOM     10  C   UNL     1      44.849   3.809  10.857  0.00  0.00    +0.000 C 
ATOM     11  O   UNL     1      44.891   2.985  11.771  0.00  0.00    +0.000 OA
ATOM     12  N   UNL     1      44.862   3.433   9.518  0.00  0.00    +0.000 N 
ATOM     13  C   UNL     1      44.789   2.017   9.160  0.00  0.00    +0.000 C 
ATOM     14  C   UNL     1      46.038   1.582   8.398  0.00  0.00    +0.000 C 
ATOM     15  C   UNL     1      46.300   2.495   7.200  0.00  0.00    +0.000 C 
ATOM     16  C   UNL     1      46.326   3.964   7.623  0.00  0.00    +0.000 C 
ATOM     17  C   UNL     1      45.058   4.342   8.387  0.00  0.00    +0.000 C 
ENDBRANCH   9  10
ENDBRANCH   8   9
ENDBRANCH   5   8
ENDBRANCH   1   2
BRANCH   1  20
ATOM     18  O   UNL     1      48.370   7.491  17.871  0.00  0.00    +0.000 OA
ATOM     19  C   UNL     1      49.373   7.524  17.163  0.00  0.00    +0.000 C 
ATOM     20  N   UNL     1      49.417   8.211  15.978  0.00  0.00    +0.000 N 
ATOM     21  H   UNL     1      50.215   8.100  15.362  0.00  0.00    +0.000 HD
BRANCH  19  22
ATOM     22  C   UNL     1      50.617   6.861  17.572  0.00  0.00    +0.000 A 
ATOM     23  C   UNL     1      51.686   7.613  18.041  0.00  0.00    +0.000 A 
ATOM     24  S   UNL     1      53.026   6.670  18.514  0.00  0.00    +0.000 S 
ATOM     25  C   UNL     1      52.211   5.223  18.136  0.00  0.00    +0.000 A 
ATOM     26  N   UNL     1      52.789   4.013  18.358  0.00  0.00    +0.000 NA
ATOM     27  C   UNL     1      52.038   3.002  18.070  0.00  0.00    +0.000 A 
ATOM     28  N   UNL     1      50.769   3.092  17.556  0.00  0.00    +0.000 N 
ATOM     29  C   UNL     1      50.186   4.292  17.218  0.00  0.00    +0.000 A 
ATOM     30  O   UNL     1      49.137   4.328  16.592  0.00  0.00    +0.000 OA
ATOM     31  C   UNL     1      50.955   5.460  17.608  0.00  0.00    +0.000 A 
ATOM     32  H   UNL     1      50.253   2.265  17.299  0.00  0.00    +0.000 HD
ENDBRANCH  19  22
ENDBRANCH   1  20
TORSDOF 6
ENDMDL
