MODEL 1
REMARK VINA RESULT:    -8.675      0.000      0.000
REMARK INTER + INTRA:         -13.006
REMARK INTER:                 -11.971
REMARK INTRA:                  -1.035
REMARK UNBOUND:                -1.035
REMARK  Name = 
REMARK  8 active torsions:
REMARK  status: ('A' for Active; 'I' for Inactive)
REMARK    1  A    between atoms: C_1  and  C_2
REMARK    2  A    between atoms: C_2  and  N_3
REMARK    3  A    between atoms: C_2  and  C_19
REMARK    4  A    between atoms: N_3  and  C_4
REMARK    5  A    between atoms: C_7  and  C_8
REMARK    6  A    between atoms: C_8  and  O_9
REMARK    7  A    between atoms: C_8  and  C_10
REMARK    8  A    between atoms: C_10  and  C_11
REMARK                            x       y       z     vdW  Elec       q    Type
REMARK                         _______ _______ _______ _____ _____    ______ ____
ROOT
ATOM      1  C   UNL     1      46.778   4.930  14.081  0.00  0.00    +0.000 A 
ATOM      2  C   UNL     1      46.021   5.811  13.300  0.00  0.00    +0.000 A 
ATOM      3  C   UNL     1      45.183   5.340  12.273  0.00  0.00    +0.000 A 
ATOM      4  C   UNL     1      45.097   3.971  11.993  0.00  0.00    +0.000 A 
ATOM      5  C   UNL     1      45.974   3.118  12.669  0.00  0.00    +0.000 A 
ATOM      6  C   UNL     1      46.814   3.599  13.674  0.00  0.00    +0.000 A 
ENDROOT
BRANCH   1   7
ATOM      7  N   UNL     1      47.511   5.404  15.179  0.00  0.00    +0.000 N 
ATOM      8  H   UNL     1      47.007   6.163  15.637  0.00  0.00    +0.000 HD
BRANCH   7  10
ATOM      9  C   UNL     1      46.777   3.948  17.052  0.00  0.00    +0.000 C 
ATOM     10  C   UNL     1      47.968   4.444  16.220  0.00  0.00    +0.000 C 
BRANCH  10  11
ATOM     11  C   UNL     1      49.181   4.852  17.052  0.00  0.00    +0.000 A 
ATOM     12  C   UNL     1      49.451   6.128  17.524  0.00  0.00    +0.000 A 
ATOM     13  S   UNL     1      50.978   6.262  18.277  0.00  0.00    +0.000 S 
ATOM     14  C   UNL     1      51.305   4.610  18.044  0.00  0.00    +0.000 A 
ATOM     15  N   UNL     1      52.475   4.056  18.453  0.00  0.00    +0.000 NA
ATOM     16  C   UNL     1      52.579   2.793  18.207  0.00  0.00    +0.000 A 
ATOM     17  N   UNL     1      51.612   2.030  17.603  0.00  0.00    +0.000 N 
ATOM     18  C   UNL     1      50.407   2.541  17.171  0.00  0.00    +0.000 A 
ATOM     19  O   UNL     1      49.552   1.834  16.645  0.00  0.00    +0.000 OA
ATOM     20  C   UNL     1      50.261   3.967  17.406  0.00  0.00    +0.000 A 
ATOM     21  H   UNL     1      51.746   1.037  17.463  0.00  0.00    +0.000 HD
ENDBRANCH  10  11
ENDBRANCH   7  10
ENDBRANCH   1   7
BRANCH   4  22
ATOM     22  C   UNL     1      44.109   3.442  10.964  0.00  0.00    +0.000 C 
BRANCH  22  23
ATOM     23  O   UNL     1      42.789   3.748  11.416  0.00  0.00    +0.000 OA
ATOM     24  H   UNL     1      42.171   3.459  10.726  0.00  0.00    +0.000 HD
ENDBRANCH  22  23
BRANCH  22  25
ATOM     25  C   UNL     1      44.345   4.039   9.555  0.00  0.00    +0.000 C 
BRANCH  25  26
ATOM     26  C   UNL     1      45.291   3.255   8.680  0.00  0.00    +0.000 A 
ATOM     27  C   UNL     1      46.069   3.919   7.720  0.00  0.00    +0.000 A 
ATOM     28  C   UNL     1      46.977   3.219   6.932  0.00  0.00    +0.000 A 
ATOM     29  C   UNL     1      47.110   1.843   7.087  0.00  0.00    +0.000 A 
ATOM     30  C   UNL     1      46.337   1.168   8.033  0.00  0.00    +0.000 A 
ATOM     31  C   UNL     1      45.429   1.870   8.828  0.00  0.00    +0.000 A 
ENDBRANCH  25  26
ENDBRANCH  22  25
ENDBRANCH   4  22
TORSDOF 7
ENDMDL
MODEL 2
REMARK VINA RESULT:    -8.230      2.514      3.073
REMARK INTER + INTRA:         -12.393
REMARK INTER:                 -11.147
REMARK INTRA:                  -1.246
REMARK UNBOUND:                -1.035
REMARK  Name = 
REMARK  8 active torsions:
REMARK  status: ('A' for Active; 'I' for Inactive)
REMARK    1  A    between atoms: C_1  and  C_2
REMARK    2  A    between atoms: C_2  and  N_3
REMARK    3  A    between atoms: C_2  and  C_19
REMARK    4  A    between atoms: N_3  and  C_4
REMARK    5  A    between atoms: C_7  and  C_8
REMARK    6  A    between atoms: C_8  and  O_9
REMARK    7  A    between atoms: C_8  and  C_10
REMARK    8  A    between atoms: C_10  and  C_11
REMARK                            x       y       z     vdW  Elec       q    Type
REMARK                         _______ _______ _______ _____ _____    ______ ____
ROOT
ATOM      1  C   UNL     1      46.009   4.658  13.916  0.00  0.00    +0.000 A 
ATOM      2  C   UNL     1      45.638   5.788  13.177  0.00  0.00    +0.000 A 
ATOM      3  C   UNL     1      45.149   5.672  11.862  0.00  0.00    +0.000 A 
ATOM      4  C   UNL     1      45.036   4.417  11.251  0.00  0.00    +0.000 A 
ATOM      5  C   UNL     1      45.558   3.316  11.936  0.00  0.00    +0.000 A 
ATOM      6  C   UNL     1      46.057   3.446  13.233  0.00  0.00    +0.000 A 
ENDROOT
BRANCH   1   7
ATOM      7  N   UNL     1      46.377   4.781  15.264  0.00  0.00    +0.000 N 
ATOM      8  H   UNL     1      45.785   4.188  15.845  0.00  0.00    +0.000 HD
BRANCH   7  10
ATOM      9  C   UNL     1      47.957   3.204  16.352  0.00  0.00    +0.000 C 
ATOM     10  C   UNL     1      47.796   4.563  15.655  0.00  0.00    +0.000 C 
BRANCH  10  11
ATOM     11  C   UNL     1      48.501   5.715  16.367  0.00  0.00    +0.000 A 
ATOM     12  C   UNL     1      48.604   5.880  17.740  0.00  0.00    +0.000 A 
ATOM     13  S   UNL     1      49.315   7.367  18.191  0.00  0.00    +0.000 S 
ATOM     14  C   UNL     1      49.554   7.813  16.568  0.00  0.00    +0.000 A 
ATOM     15  N   UNL     1      50.120   9.002  16.237  0.00  0.00    +0.000 NA
ATOM     16  C   UNL     1      50.236   9.201  14.967  0.00  0.00    +0.000 A 
ATOM     17  N   UNL     1      49.852   8.309  13.997  0.00  0.00    +0.000 N 
ATOM     18  C   UNL     1      49.276   7.090  14.278  0.00  0.00    +0.000 A 
ATOM     19  O   UNL     1      48.953   6.304  13.391  0.00  0.00    +0.000 OA
ATOM     20  C   UNL     1      49.104   6.839  15.698  0.00  0.00    +0.000 A 
ATOM     21  H   UNL     1      49.995   8.516  13.016  0.00  0.00    +0.000 HD
ENDBRANCH  10  11
ENDBRANCH   7  10
ENDBRANCH   1   7
BRANCH   4  22
ATOM     22  C   UNL     1      44.402   4.270   9.876  0.00  0.00    +0.000 C 
BRANCH  22  23
ATOM     23  O   UNL     1      43.287   5.160   9.804  0.00  0.00    +0.000 OA
ATOM     24  H   UNL     1      43.322   5.601   8.940  0.00  0.00    +0.000 HD
ENDBRANCH  22  23
BRANCH  22  25
ATOM     25  C   UNL     1      45.399   4.564   8.730  0.00  0.00    +0.000 C 
BRANCH  25  26
ATOM     26  C   UNL     1      46.008   3.344   8.084  0.00  0.00    +0.000 A 
ATOM     27  C   UNL     1      46.889   3.492   7.002  0.00  0.00    +0.000 A 
ATOM     28  C   UNL     1      47.493   2.381   6.421  0.00  0.00    +0.000 A 
ATOM     29  C   UNL     1      47.213   1.108   6.908  0.00  0.00    +0.000 A 
ATOM     30  C   UNL     1      46.333   0.946   7.979  0.00  0.00    +0.000 A 
ATOM     31  C   UNL     1      45.731   2.060   8.566  0.00  0.00    +0.000 A 
ENDBRANCH  25  26
ENDBRANCH  22  25
ENDBRANCH   4  22
TORSDOF 7
ENDMDL
MODEL 3
REMARK VINA RESULT:    -8.110      1.816      2.487
REMARK INTER + INTRA:         -12.227
REMARK INTER:                 -10.948
REMARK INTRA:                  -1.279
REMARK UNBOUND:                -1.035
REMARK  Name = 
REMARK  8 active torsions:
REMARK  status: ('A' for Active; 'I' for Inactive)
REMARK    1  A    between atoms: C_1  and  C_2
REMARK    2  A    between atoms: C_2  and  N_3
REMARK    3  A    between atoms: C_2  and  C_19
REMARK    4  A    between atoms: N_3  and  C_4
REMARK    5  A    between atoms: C_7  and  C_8
REMARK    6  A    between atoms: C_8  and  O_9
REMARK    7  A    between atoms: C_8  and  C_10
REMARK    8  A    between atoms: C_10  and  C_11
REMARK                            x       y       z     vdW  Elec       q    Type
REMARK                         _______ _______ _______ _____ _____    ______ ____
ROOT
ATOM      1  C   UNL     1      47.324   6.174  12.706  0.00  0.00    +0.000 A 
ATOM      2  C   UNL     1      46.813   5.049  13.365  0.00  0.00    +0.000 A 
ATOM      3  C   UNL     1      45.780   4.278  12.800  0.00  0.00    +0.000 A 
ATOM      4  C   UNL     1      45.223   4.629  11.564  0.00  0.00    +0.000 A 
ATOM      5  C   UNL     1      45.628   5.839  10.993  0.00  0.00    +0.000 A 
ATOM      6  C   UNL     1      46.641   6.604  11.572  0.00  0.00    +0.000 A 
ENDROOT
BRANCH   1   7
ATOM      7  N   UNL     1      48.435   6.857  13.224  0.00  0.00    +0.000 N 
ATOM      8  H   UNL     1      48.650   7.668  12.645  0.00  0.00    +0.000 HD
BRANCH   7  10
ATOM      9  C   UNL     1      47.908   8.720  14.779  0.00  0.00    +0.000 C 
ATOM     10  C   UNL     1      48.428   7.281  14.651  0.00  0.00    +0.000 C 
BRANCH  10  11
ATOM     11  C   UNL     1      49.692   7.002  15.460  0.00  0.00    +0.000 A 
ATOM     12  C   UNL     1      50.912   7.644  15.309  0.00  0.00    +0.000 A 
ATOM     13  S   UNL     1      52.156   6.967  16.265  0.00  0.00    +0.000 S 
ATOM     14  C   UNL     1      51.094   5.829  16.948  0.00  0.00    +0.000 A 
ATOM     15  N   UNL     1      51.523   4.916  17.856  0.00  0.00    +0.000 NA
ATOM     16  C   UNL     1      50.603   4.118  18.284  0.00  0.00    +0.000 A 
ATOM     17  N   UNL     1      49.286   4.163  17.900  0.00  0.00    +0.000 N 
ATOM     18  C   UNL     1      48.798   5.071  16.985  0.00  0.00    +0.000 A 
ATOM     19  O   UNL     1      47.612   5.098  16.667  0.00  0.00    +0.000 OA
ATOM     20  C   UNL     1      49.809   5.970  16.458  0.00  0.00    +0.000 A 
ATOM     21  H   UNL     1      48.608   3.524  18.295  0.00  0.00    +0.000 HD
ENDBRANCH  10  11
ENDBRANCH   7  10
ENDBRANCH   1   7
BRANCH   4  22
ATOM     22  C   UNL     1      44.189   3.739  10.891  0.00  0.00    +0.000 C 
BRANCH  22  23
ATOM     23  O   UNL     1      42.914   4.025  11.468  0.00  0.00    +0.000 OA
ATOM     24  H   UNL     1      42.482   4.689  10.907  0.00  0.00    +0.000 HD
ENDBRANCH  22  23
BRANCH  22  25
ATOM     25  C   UNL     1      44.141   3.942   9.357  0.00  0.00    +0.000 C 
BRANCH  25  26
ATOM     26  C   UNL     1      45.213   3.216   8.583  0.00  0.00    +0.000 A 
ATOM     27  C   UNL     1      45.410   1.842   8.781  0.00  0.00    +0.000 A 
ATOM     28  C   UNL     1      46.366   1.148   8.046  0.00  0.00    +0.000 A 
ATOM     29  C   UNL     1      47.144   1.823   7.111  0.00  0.00    +0.000 A 
ATOM     30  C   UNL     1      46.964   3.191   6.909  0.00  0.00    +0.000 A 
ATOM     31  C   UNL     1      46.002   3.889   7.642  0.00  0.00    +0.000 A 
ENDBRANCH  25  26
ENDBRANCH  22  25
ENDBRANCH   4  22
TORSDOF 7
ENDMDL
MODEL 4
REMARK VINA RESULT:    -8.026      2.591      3.281
REMARK INTER + INTRA:         -12.111
REMARK INTER:                 -11.008
REMARK INTRA:                  -1.103
REMARK UNBOUND:                -1.035
REMARK  Name = 
REMARK  8 active torsions:
REMARK  status: ('A' for Active; 'I' for Inactive)
REMARK    1  A    between atoms: C_1  and  C_2
REMARK    2  A    between atoms: C_2  and  N_3
REMARK    3  A    between atoms: C_2  and  C_19
REMARK    4  A    between atoms: N_3  and  C_4
REMARK    5  A    between atoms: C_7  and  C_8
REMARK    6  A    between atoms: C_8  and  O_9
REMARK    7  A    between atoms: C_8  and  C_10
REMARK    8  A    between atoms: C_10  and  C_11
REMARK                            x       y       z     vdW  Elec       q    Type
REMARK                         _______ _______ _______ _____ _____    ______ ____
ROOT
ATOM      1  C   UNL     1      46.377   5.946  13.073  0.00  0.00    +0.000 A 
ATOM      2  C   UNL     1      45.919   6.248  11.785  0.00  0.00    +0.000 A 
ATOM      3  C   UNL     1      45.274   5.279  10.994  0.00  0.00    +0.000 A 
ATOM      4  C   UNL     1      45.086   3.977  11.473  0.00  0.00    +0.000 A 
ATOM      5  C   UNL     1      45.687   3.644  12.691  0.00  0.00    +0.000 A 
ATOM      6  C   UNL     1      46.340   4.609  13.458  0.00  0.00    +0.000 A 
ENDROOT
BRANCH   1   7
ATOM      7  N   UNL     1      46.907   6.955  13.893  0.00  0.00    +0.000 N 
ATOM      8  H   UNL     1      47.114   6.582  14.819  0.00  0.00    +0.000 HD
BRANCH   7  10
ATOM      9  C   UNL     1      49.025   6.839  12.603  0.00  0.00    +0.000 C 
ATOM     10  C   UNL     1      48.084   7.734  13.422  0.00  0.00    +0.000 C 
BRANCH  10  11
ATOM     11  C   UNL     1      48.794   8.605  14.454  0.00  0.00    +0.000 A 
ATOM     12  C   UNL     1      49.022   9.969  14.348  0.00  0.00    +0.000 A 
ATOM     13  S   UNL     1      49.991  10.593  15.608  0.00  0.00    +0.000 S 
ATOM     14  C   UNL     1      50.094   9.074  16.363  0.00  0.00    +0.000 A 
ATOM     15  N   UNL     1      50.802   8.899  17.508  0.00  0.00    +0.000 NA
ATOM     16  C   UNL     1      50.789   7.690  17.962  0.00  0.00    +0.000 A 
ATOM     17  N   UNL     1      50.116   6.643  17.383  0.00  0.00    +0.000 N 
ATOM     18  C   UNL     1      49.381   6.767  16.224  0.00  0.00    +0.000 A 
ATOM     19  O   UNL     1      48.778   5.817  15.733  0.00  0.00    +0.000 OA
ATOM     20  C   UNL     1      49.393   8.108  15.666  0.00  0.00    +0.000 A 
ATOM     21  H   UNL     1      50.125   5.724  17.805  0.00  0.00    +0.000 HD
ENDBRANCH  10  11
ENDBRANCH   7  10
ENDBRANCH   1   7
BRANCH   4  22
ATOM     22  C   UNL     1      44.289   2.957  10.675  0.00  0.00    +0.000 C 
BRANCH  22  23
ATOM     23  O   UNL     1      42.960   2.923  11.199  0.00  0.00    +0.000 OA
ATOM     24  H   UNL     1      42.475   2.233  10.717  0.00  0.00    +0.000 HD
ENDBRANCH  22  23
BRANCH  22  25
ATOM     25  C   UNL     1      44.261   3.279   9.162  0.00  0.00    +0.000 C 
BRANCH  25  26
ATOM     26  C   UNL     1      45.427   2.736   8.372  0.00  0.00    +0.000 A 
ATOM     27  C   UNL     1      46.217   3.605   7.605  0.00  0.00    +0.000 A 
ATOM     28  C   UNL     1      47.320   3.130   6.903  0.00  0.00    +0.000 A 
ATOM     29  C   UNL     1      47.640   1.777   6.951  0.00  0.00    +0.000 A 
ATOM     30  C   UNL     1      46.859   0.900   7.704  0.00  0.00    +0.000 A 
ATOM     31  C   UNL     1      45.754   1.376   8.413  0.00  0.00    +0.000 A 
ENDBRANCH  25  26
ENDBRANCH  22  25
ENDBRANCH   4  22
TORSDOF 7
ENDMDL
MODEL 5
REMARK VINA RESULT:    -7.878      2.816      3.596
REMARK INTER + INTRA:         -11.907
REMARK INTER:                 -10.903
REMARK INTRA:                  -1.004
REMARK UNBOUND:                -1.035
REMARK  Name = 
REMARK  8 active torsions:
REMARK  status: ('A' for Active; 'I' for Inactive)
REMARK    1  A    between atoms: C_1  and  C_2
REMARK    2  A    between atoms: C_2  and  N_3
REMARK    3  A    between atoms: C_2  and  C_19
REMARK    4  A    between atoms: N_3  and  C_4
REMARK    5  A    between atoms: C_7  and  C_8
REMARK    6  A    between atoms: C_8  and  O_9
REMARK    7  A    between atoms: C_8  and  C_10
REMARK    8  A    between atoms: C_10  and  C_11
REMARK                            x       y       z     vdW  Elec       q    Type
REMARK                         _______ _______ _______ _____ _____    ______ ____
ROOT
ATOM      1  C   UNL     1      46.107   6.462  12.880  0.00  0.00    +0.000 A 
ATOM      2  C   UNL     1      45.760   5.244  13.478  0.00  0.00    +0.000 A 
ATOM      3  C   UNL     1      45.261   4.172  12.715  0.00  0.00    +0.000 A 
ATOM      4  C   UNL     1      45.083   4.303  11.332  0.00  0.00    +0.000 A 
ATOM      5  C   UNL     1      45.280   5.569  10.772  0.00  0.00    +0.000 A 
ATOM      6  C   UNL     1      45.758   6.629  11.543  0.00  0.00    +0.000 A 
ENDROOT
BRANCH   1   7
ATOM      7  N   UNL     1      46.718   7.475  13.634  0.00  0.00    +0.000 N 
ATOM      8  H   UNL     1      46.210   7.618  14.507  0.00  0.00    +0.000 HD
BRANCH   7  10
ATOM      9  C   UNL     1      48.923   6.722  12.776  0.00  0.00    +0.000 C 
ATOM     10  C   UNL     1      48.171   7.379  13.942  0.00  0.00    +0.000 C 
BRANCH  10  11
ATOM     11  C   UNL     1      48.551   6.834  15.315  0.00  0.00    +0.000 A 
ATOM     12  C   UNL     1      48.375   5.528  15.749  0.00  0.00    +0.000 A 
ATOM     13  S   UNL     1      48.759   5.305  17.398  0.00  0.00    +0.000 S 
ATOM     14  C   UNL     1      49.223   6.931  17.572  0.00  0.00    +0.000 A 
ATOM     15  N   UNL     1      49.654   7.421  18.763  0.00  0.00    +0.000 NA
ATOM     16  C   UNL     1      49.970   8.672  18.740  0.00  0.00    +0.000 A 
ATOM     17  N   UNL     1      49.910   9.476  17.629  0.00  0.00    +0.000 N 
ATOM     18  C   UNL     1      49.482   9.029  16.398  0.00  0.00    +0.000 A 
ATOM     19  O   UNL     1      49.450   9.765  15.415  0.00  0.00    +0.000 OA
ATOM     20  C   UNL     1      49.092   7.630  16.387  0.00  0.00    +0.000 A 
ATOM     21  H   UNL     1      50.198  10.445  17.673  0.00  0.00    +0.000 HD
ENDBRANCH  10  11
ENDBRANCH   7  10
ENDBRANCH   1   7
BRANCH   4  22
ATOM     22  C   UNL     1      44.655   3.116  10.482  0.00  0.00    +0.000 C 
BRANCH  22  23
ATOM     23  O   UNL     1      43.398   2.648  10.974  0.00  0.00    +0.000 OA
ATOM     24  H   UNL     1      43.479   1.691  11.115  0.00  0.00    +0.000 HD
ENDBRANCH  22  23
BRANCH  22  25
ATOM     25  C   UNL     1      44.545   3.472   8.980  0.00  0.00    +0.000 C 
BRANCH  25  26
ATOM     26  C   UNL     1      45.594   2.845   8.096  0.00  0.00    +0.000 A 
ATOM     27  C   UNL     1      46.175   3.592   7.061  0.00  0.00    +0.000 A 
ATOM     28  C   UNL     1      47.174   3.044   6.262  0.00  0.00    +0.000 A 
ATOM     29  C   UNL     1      47.595   1.736   6.482  0.00  0.00    +0.000 A 
ATOM     30  C   UNL     1      47.021   0.979   7.503  0.00  0.00    +0.000 A 
ATOM     31  C   UNL     1      46.022   1.529   8.309  0.00  0.00    +0.000 A 
ENDBRANCH  25  26
ENDBRANCH  22  25
ENDBRANCH   4  22
TORSDOF 7
ENDMDL
MODEL 6
REMARK VINA RESULT:    -7.812      4.306      5.623
REMARK INTER + INTRA:         -11.816
REMARK INTER:                 -10.757
REMARK INTRA:                  -1.059
REMARK UNBOUND:                -1.035
REMARK  Name = 
REMARK  8 active torsions:
REMARK  status: ('A' for Active; 'I' for Inactive)
REMARK    1  A    between atoms: C_1  and  C_2
REMARK    2  A    between atoms: C_2  and  N_3
REMARK    3  A    between atoms: C_2  and  C_19
REMARK    4  A    between atoms: N_3  and  C_4
REMARK    5  A    between atoms: C_7  and  C_8
REMARK    6  A    between atoms: C_8  and  O_9
REMARK    7  A    between atoms: C_8  and  C_10
REMARK    8  A    between atoms: C_10  and  C_11
REMARK                            x       y       z     vdW  Elec       q    Type
REMARK                         _______ _______ _______ _____ _____    ______ ____
ROOT
ATOM      1  C   UNL     1      46.151   6.510  12.857  0.00  0.00    +0.000 A 
ATOM      2  C   UNL     1      45.749   6.681  11.526  0.00  0.00    +0.000 A 
ATOM      3  C   UNL     1      45.229   5.609  10.778  0.00  0.00    +0.000 A 
ATOM      4  C   UNL     1      45.114   4.333  11.344  0.00  0.00    +0.000 A 
ATOM      5  C   UNL     1      45.665   4.138  12.614  0.00  0.00    +0.000 A 
ATOM      6  C   UNL     1      46.195   5.205  13.339  0.00  0.00    +0.000 A 
ENDROOT
BRANCH   1   7
ATOM      7  N   UNL     1      46.551   7.614  13.625  0.00  0.00    +0.000 N 
ATOM      8  H   UNL     1      46.364   7.441  14.613  0.00  0.00    +0.000 HD
BRANCH   7  10
ATOM      9  C   UNL     1      48.610   8.236  14.866  0.00  0.00    +0.000 C 
ATOM     10  C   UNL     1      47.939   8.132  13.489  0.00  0.00    +0.000 C 
BRANCH  10  11
ATOM     11  C   UNL     1      48.134   9.363  12.607  0.00  0.00    +0.000 A 
ATOM     12  C   UNL     1      47.163  10.306  12.302  0.00  0.00    +0.000 A 
ATOM     13  S   UNL     1      47.679  11.460  11.153  0.00  0.00    +0.000 S 
ATOM     14  C   UNL     1      49.230  10.769  11.066  0.00  0.00    +0.000 A 
ATOM     15  N   UNL     1      50.184  11.274  10.244  0.00  0.00    +0.000 NA
ATOM     16  C   UNL     1      51.310  10.644  10.285  0.00  0.00    +0.000 A 
ATOM     17  N   UNL     1      51.574   9.563  11.089  0.00  0.00    +0.000 N 
ATOM     18  C   UNL     1      50.642   9.013  11.943  0.00  0.00    +0.000 A 
ATOM     19  O   UNL     1      50.907   8.053  12.661  0.00  0.00    +0.000 OA
ATOM     20  C   UNL     1      49.352   9.678  11.906  0.00  0.00    +0.000 A 
ATOM     21  H   UNL     1      52.488   9.130  11.093  0.00  0.00    +0.000 HD
ENDBRANCH  10  11
ENDBRANCH   7  10
ENDBRANCH   1   7
BRANCH   4  22
ATOM     22  C   UNL     1      44.448   3.196  10.583  0.00  0.00    +0.000 C 
BRANCH  22  23
ATOM     23  O   UNL     1      43.120   3.044  11.086  0.00  0.00    +0.000 OA
ATOM     24  H   UNL     1      43.160   2.421  11.830  0.00  0.00    +0.000 HD
ENDBRANCH  22  23
BRANCH  22  25
ATOM     25  C   UNL     1      44.418   3.442   9.055  0.00  0.00    +0.000 C 
BRANCH  25  26
ATOM     26  C   UNL     1      45.540   2.795   8.282  0.00  0.00    +0.000 A 
ATOM     27  C   UNL     1      46.393   3.583   7.494  0.00  0.00    +0.000 A 
ATOM     28  C   UNL     1      47.458   3.008   6.807  0.00  0.00    +0.000 A 
ATOM     29  C   UNL     1      47.677   1.637   6.892  0.00  0.00    +0.000 A 
ATOM     30  C   UNL     1      46.833   0.841   7.666  0.00  0.00    +0.000 A 
ATOM     31  C   UNL     1      45.766   1.416   8.360  0.00  0.00    +0.000 A 
ENDBRANCH  25  26
ENDBRANCH  22  25
ENDBRANCH   4  22
TORSDOF 7
ENDMDL
MODEL 7
REMARK VINA RESULT:    -7.733      1.527      2.146
REMARK INTER + INTRA:         -11.707
REMARK INTER:                 -10.546
REMARK INTRA:                  -1.160
REMARK UNBOUND:                -1.035
REMARK  Name = 
REMARK  8 active torsions:
REMARK  status: ('A' for Active; 'I' for Inactive)
REMARK    1  A    between atoms: C_1  and  C_2
REMARK    2  A    between atoms: C_2  and  N_3
REMARK    3  A    between atoms: C_2  and  C_19
REMARK    4  A    between atoms: N_3  and  C_4
REMARK    5  A    between atoms: C_7  and  C_8
REMARK    6  A    between atoms: C_8  and  O_9
REMARK    7  A    between atoms: C_8  and  C_10
REMARK    8  A    between atoms: C_10  and  C_11
REMARK                            x       y       z     vdW  Elec       q    Type
REMARK                         _______ _______ _______ _____ _____    ______ ____
ROOT
ATOM      1  C   UNL     1      46.784   4.885  13.998  0.00  0.00    +0.000 A 
ATOM      2  C   UNL     1      46.347   3.611  13.615  0.00  0.00    +0.000 A 
ATOM      3  C   UNL     1      45.586   3.421  12.447  0.00  0.00    +0.000 A 
ATOM      4  C   UNL     1      45.232   4.510  11.641  0.00  0.00    +0.000 A 
ATOM      5  C   UNL     1      45.535   5.790  12.115  0.00  0.00    +0.000 A 
ATOM      6  C   UNL     1      46.275   5.967  13.285  0.00  0.00    +0.000 A 
ENDROOT
BRANCH   1   7
ATOM      7  N   UNL     1      47.644   5.040  15.096  0.00  0.00    +0.000 N 
ATOM      8  H   UNL     1      47.519   5.963  15.512  0.00  0.00    +0.000 HD
BRANCH   7  10
ATOM      9  C   UNL     1      46.734   4.491  17.340  0.00  0.00    +0.000 C 
ATOM     10  C   UNL     1      47.629   4.024  16.183  0.00  0.00    +0.000 C 
BRANCH  10  11
ATOM     11  C   UNL     1      48.978   3.466  16.625  0.00  0.00    +0.000 A 
ATOM     12  C   UNL     1      49.358   2.132  16.590  0.00  0.00    +0.000 A 
ATOM     13  S   UNL     1      50.876   1.841  17.317  0.00  0.00    +0.000 S 
ATOM     14  C   UNL     1      51.099   3.492  17.654  0.00  0.00    +0.000 A 
ATOM     15  N   UNL     1      52.211   3.941  18.289  0.00  0.00    +0.000 NA
ATOM     16  C   UNL     1      52.238   5.218  18.476  0.00  0.00    +0.000 A 
ATOM     17  N   UNL     1      51.260   6.091  18.068  0.00  0.00    +0.000 N 
ATOM     18  C   UNL     1      50.114   5.689  17.418  0.00  0.00    +0.000 A 
ATOM     19  O   UNL     1      49.259   6.491  17.052  0.00  0.00    +0.000 OA
ATOM     20  C   UNL     1      50.033   4.253  17.212  0.00  0.00    +0.000 A 
ATOM     21  H   UNL     1      51.355   7.086  18.223  0.00  0.00    +0.000 HD
ENDBRANCH  10  11
ENDBRANCH   7  10
ENDBRANCH   1   7
BRANCH   4  22
ATOM     22  C   UNL     1      44.511   4.303  10.318  0.00  0.00    +0.000 C 
BRANCH  22  23
ATOM     23  O   UNL     1      43.332   5.109  10.324  0.00  0.00    +0.000 OA
ATOM     24  H   UNL     1      43.289   5.557  11.184  0.00  0.00    +0.000 HD
ENDBRANCH  22  23
BRANCH  22  25
ATOM     25  C   UNL     1      45.396   4.656   9.098  0.00  0.00    +0.000 C 
BRANCH  25  26
ATOM     26  C   UNL     1      45.968   3.471   8.359  0.00  0.00    +0.000 A 
ATOM     27  C   UNL     1      46.824   3.675   7.267  0.00  0.00    +0.000 A 
ATOM     28  C   UNL     1      47.394   2.595   6.600  0.00  0.00    +0.000 A 
ATOM     29  C   UNL     1      47.104   1.298   7.010  0.00  0.00    +0.000 A 
ATOM     30  C   UNL     1      46.248   1.081   8.090  0.00  0.00    +0.000 A 
ATOM     31  C   UNL     1      45.680   2.163   8.764  0.00  0.00    +0.000 A 
ENDBRANCH  25  26
ENDBRANCH  22  25
ENDBRANCH   4  22
TORSDOF 7
ENDMDL
MODEL 8
REMARK VINA RESULT:    -7.714      3.525      4.524
REMARK INTER + INTRA:         -11.680
REMARK INTER:                 -10.472
REMARK INTRA:                  -1.209
REMARK UNBOUND:                -1.035
REMARK  Name = 
REMARK  8 active torsions:
REMARK  status: ('A' for Active; 'I' for Inactive)
REMARK    1  A    between atoms: C_1  and  C_2
REMARK    2  A    between atoms: C_2  and  N_3
REMARK    3  A    between atoms: C_2  and  C_19
REMARK    4  A    between atoms: N_3  and  C_4
REMARK    5  A    between atoms: C_7  and  C_8
REMARK    6  A    between atoms: C_8  and  O_9
REMARK    7  A    between atoms: C_8  and  C_10
REMARK    8  A    between atoms: C_10  and  C_11
REMARK                            x       y       z     vdW  Elec       q    Type
REMARK                         _______ _______ _______ _____ _____    ______ ____
ROOT
ATOM      1  C   UNL     1      46.644   6.295  13.129  0.00  0.00    +0.000 A 
ATOM      2  C   UNL     1      46.194   6.667  11.856  0.00  0.00    +0.000 A 
ATOM      3  C   UNL     1      45.438   5.785  11.062  0.00  0.00    +0.000 A 
ATOM      4  C   UNL     1      45.129   4.499  11.521  0.00  0.00    +0.000 A 
ATOM      5  C   UNL     1      45.717   4.082  12.719  0.00  0.00    +0.000 A 
ATOM      6  C   UNL     1      46.479   4.960  13.490  0.00  0.00    +0.000 A 
ENDROOT
BRANCH   1   7
ATOM      7  N   UNL     1      47.288   7.227  13.955  0.00  0.00    +0.000 N 
ATOM      8  H   UNL     1      46.679   7.490  14.730  0.00  0.00    +0.000 HD
BRANCH   7  10
ATOM      9  C   UNL     1      48.514   6.114  15.805  0.00  0.00    +0.000 C 
ATOM     10  C   UNL     1      48.637   6.910  14.498  0.00  0.00    +0.000 C 
BRANCH  10  11
ATOM     11  C   UNL     1      49.644   8.055  14.559  0.00  0.00    +0.000 A 
ATOM     12  C   UNL     1      50.049   8.722  15.706  0.00  0.00    +0.000 A 
ATOM     13  S   UNL     1      51.062  10.060  15.389  0.00  0.00    +0.000 S 
ATOM     14  C   UNL     1      51.033   9.762  13.716  0.00  0.00    +0.000 A 
ATOM     15  N   UNL     1      51.700  10.560  12.843  0.00  0.00    +0.000 NA
ATOM     16  C   UNL     1      51.585  10.209  11.606  0.00  0.00    +0.000 A 
ATOM     17  N   UNL     1      50.877   9.120  11.164  0.00  0.00    +0.000 N 
ATOM     18  C   UNL     1      50.185   8.276  12.006  0.00  0.00    +0.000 A 
ATOM     19  O   UNL     1      49.569   7.300  11.587  0.00  0.00    +0.000 OA
ATOM     20  C   UNL     1      50.268   8.654  13.406  0.00  0.00    +0.000 A 
ATOM     21  H   UNL     1      50.848   8.883  10.181  0.00  0.00    +0.000 HD
ENDBRANCH  10  11
ENDBRANCH   7  10
ENDBRANCH   1   7
BRANCH   4  22
ATOM     22  C   UNL     1      44.217   3.580  10.721  0.00  0.00    +0.000 C 
BRANCH  22  23
ATOM     23  O   UNL     1      42.883   3.754  11.198  0.00  0.00    +0.000 OA
ATOM     24  H   UNL     1      42.512   4.532  10.751  0.00  0.00    +0.000 HD
ENDBRANCH  22  23
BRANCH  22  25
ATOM     25  C   UNL     1      44.284   3.857   9.200  0.00  0.00    +0.000 C 
BRANCH  25  26
ATOM     26  C   UNL     1      45.376   3.121   8.463  0.00  0.00    +0.000 A 
ATOM     27  C   UNL     1      45.535   1.740   8.647  0.00  0.00    +0.000 A 
ATOM     28  C   UNL     1      46.510   1.037   7.945  0.00  0.00    +0.000 A 
ATOM     29  C   UNL     1      47.345   1.711   7.059  0.00  0.00    +0.000 A 
ATOM     30  C   UNL     1      47.202   3.086   6.873  0.00  0.00    +0.000 A 
ATOM     31  C   UNL     1      46.222   3.792   7.572  0.00  0.00    +0.000 A 
ENDBRANCH  25  26
ENDBRANCH  22  25
ENDBRANCH   4  22
TORSDOF 7
ENDMDL
MODEL 9
REMARK VINA RESULT:    -7.398      3.700      5.339
REMARK INTER + INTRA:         -11.245
REMARK INTER:                 -10.184
REMARK INTRA:                  -1.061
REMARK UNBOUND:                -1.035
REMARK  Name = 
REMARK  8 active torsions:
REMARK  status: ('A' for Active; 'I' for Inactive)
REMARK    1  A    between atoms: C_1  and  C_2
REMARK    2  A    between atoms: C_2  and  N_3
REMARK    3  A    between atoms: C_2  and  C_19
REMARK    4  A    between atoms: N_3  and  C_4
REMARK    5  A    between atoms: C_7  and  C_8
REMARK    6  A    between atoms: C_8  and  O_9
REMARK    7  A    between atoms: C_8  and  C_10
REMARK    8  A    between atoms: C_10  and  C_11
REMARK                            x       y       z     vdW  Elec       q    Type
REMARK                         _______ _______ _______ _____ _____    ______ ____
ROOT
ATOM      1  C   UNL     1      46.593   5.834  13.103  0.00  0.00    +0.000 A 
ATOM      2  C   UNL     1      46.606   6.272  11.773  0.00  0.00    +0.000 A 
ATOM      3  C   UNL     1      45.900   5.581  10.770  0.00  0.00    +0.000 A 
ATOM      4  C   UNL     1      45.177   4.422  11.076  0.00  0.00    +0.000 A 
ATOM      5  C   UNL     1      45.302   3.905  12.369  0.00  0.00    +0.000 A 
ATOM      6  C   UNL     1      46.019   4.590  13.351  0.00  0.00    +0.000 A 
ENDROOT
BRANCH   1   7
ATOM      7  N   UNL     1      47.198   6.601  14.109  0.00  0.00    +0.000 N 
ATOM      8  H   UNL     1      46.937   6.244  15.028  0.00  0.00    +0.000 HD
BRANCH   7  10
ATOM      9  C   UNL     1      49.184   7.195  15.476  0.00  0.00    +0.000 C 
ATOM     10  C   UNL     1      48.671   6.808  14.081  0.00  0.00    +0.000 C 
BRANCH  10  11
ATOM     11  C   UNL     1      49.226   7.672  12.952  0.00  0.00    +0.000 A 
ATOM     12  C   UNL     1      50.308   7.356  12.143  0.00  0.00    +0.000 A 
ATOM     13  S   UNL     1      50.760   8.624  11.092  0.00  0.00    +0.000 S 
ATOM     14  C   UNL     1      49.494   9.615  11.645  0.00  0.00    +0.000 A 
ATOM     15  N   UNL     1      49.311  10.868  11.157  0.00  0.00    +0.000 NA
ATOM     16  C   UNL     1      48.310  11.499  11.673  0.00  0.00    +0.000 A 
ATOM     17  N   UNL     1      47.464  10.983  12.622  0.00  0.00    +0.000 N 
ATOM     18  C   UNL     1      47.603   9.717  13.149  0.00  0.00    +0.000 A 
ATOM     19  O   UNL     1      46.825   9.274  13.989  0.00  0.00    +0.000 OA
ATOM     20  C   UNL     1      48.736   8.983  12.612  0.00  0.00    +0.000 A 
ATOM     21  H   UNL     1      46.680  11.522  12.967  0.00  0.00    +0.000 HD
ENDBRANCH  10  11
ENDBRANCH   7  10
ENDBRANCH   1   7
BRANCH   4  22
ATOM     22  C   UNL     1      44.319   3.734  10.025  0.00  0.00    +0.000 C 
BRANCH  22  23
ATOM     23  O   UNL     1      42.958   4.105  10.250  0.00  0.00    +0.000 OA
ATOM     24  H   UNL     1      42.670   4.633   9.488  0.00  0.00    +0.000 HD
ENDBRANCH  22  23
BRANCH  22  25
ATOM     25  C   UNL     1      44.743   4.100   8.581  0.00  0.00    +0.000 C 
BRANCH  25  26
ATOM     26  C   UNL     1      45.661   3.106   7.914  0.00  0.00    +0.000 A 
ATOM     27  C   UNL     1      46.405   3.487   6.787  0.00  0.00    +0.000 A 
ATOM     28  C   UNL     1      47.287   2.597   6.184  0.00  0.00    +0.000 A 
ATOM     29  C   UNL     1      47.428   1.310   6.693  0.00  0.00    +0.000 A 
ATOM     30  C   UNL     1      46.689   0.915   7.809  0.00  0.00    +0.000 A 
ATOM     31  C   UNL     1      45.806   1.808   8.419  0.00  0.00    +0.000 A 
ENDBRANCH  25  26
ENDBRANCH  22  25
ENDBRANCH   4  22
TORSDOF 7
ENDMDL
