MODEL 1
REMARK VINA RESULT:    -7.977      0.000      0.000
REMARK INTER + INTRA:         -10.779
REMARK INTER:                 -10.775
REMARK INTRA:                  -0.004
REMARK UNBOUND:                -0.004
REMARK  Name = 
REMARK  8 active torsions:
REMARK  status: ('A' for Active; 'I' for Inactive)
REMARK    1  A    between atoms: C_1  and  O_2
REMARK    2  A    between atoms: O_2  and  C_3
REMARK    3  A    between atoms: C_5  and  C_6
REMARK    4  A    between atoms: C_11  and  O_12
REMARK    5  A    between atoms: O_12  and  C_13
REMARK    6  A    between atoms: C_13  and  C_14
REMARK    7  A    between atoms: C_18  and  C_19
REMARK    8  A    between atoms: C_24  and  C_25
REMARK                            x       y       z     vdW  Elec       q    Type
REMARK                         _______ _______ _______ _____ _____    ______ ____
ROOT
ATOM      1  O   UNL     1      43.909   5.446  10.316  0.00  0.00    +0.000 OA
ENDROOT
BRANCH   1   7
ATOM      2  C   UNL     1      44.299   2.984  10.068  0.00  0.00    +0.000 A 
ATOM      3  C   UNL     1      45.038   2.007   9.384  0.00  0.00    +0.000 A 
ATOM      4  C   UNL     1      45.988   2.350   8.409  0.00  0.00    +0.000 A 
ATOM      5  C   UNL     1      46.194   3.697   8.111  0.00  0.00    +0.000 A 
ATOM      6  C   UNL     1      45.462   4.678   8.789  0.00  0.00    +0.000 A 
ATOM      7  C   UNL     1      44.514   4.341   9.767  0.00  0.00    +0.000 A 
BRANCH   4   8
ATOM      8  C   UNL     1      46.717   1.232   7.739  0.00  0.00    +0.000 C 
ATOM      9  N   UNL     1      47.739   1.526   6.885  0.00  0.00    +0.000 N 
ATOM     10  O   UNL     1      46.414   0.060   7.946  0.00  0.00    +0.000 OA
ATOM     11  H   UNL     1      48.065   2.452   6.657  0.00  0.00    +0.000 HD
ATOM     12  H   UNL     1      48.207   0.740   6.456  0.00  0.00    +0.000 HD
ENDBRANCH   4   8
BRANCH   2  14
ATOM     13  C   UNL     1      43.726   2.545  12.349  0.00  0.00    +0.000 C 
ATOM     14  O   UNL     1      43.337   2.657  10.985  0.00  0.00    +0.000 OA
ENDBRANCH   2  14
ENDBRANCH   1   7
BRANCH   1  15
ATOM     15  C   UNL     1      44.092   5.691  11.712  0.00  0.00    +0.000 C 
BRANCH  15  16
ATOM     16  C   UNL     1      45.531   6.016  12.060  0.00  0.00    +0.000 A 
ATOM     17  C   UNL     1      46.314   6.843  11.266  0.00  0.00    +0.000 A 
ATOM     18  C   UNL     1      47.603   7.144  11.690  0.00  0.00    +0.000 A 
ATOM     19  C   UNL     1      48.074   6.617  12.892  0.00  0.00    +0.000 A 
ATOM     20  C   UNL     1      47.241   5.805  13.658  0.00  0.00    +0.000 A 
ATOM     21  N   UNL     1      45.981   5.525  13.245  0.00  0.00    +0.000 NA
BRANCH  20  22
ATOM     22  C   UNL     1      47.633   5.247  14.980  0.00  0.00    +0.000 A 
ATOM     23  C   UNL     1      47.230   3.940  15.338  0.00  0.00    +0.000 A 
ATOM     24  C   UNL     1      47.605   3.348  16.547  0.00  0.00    +0.000 A 
ATOM     25  C   UNL     1      48.422   4.038  17.429  0.00  0.00    +0.000 A 
ATOM     26  C   UNL     1      48.834   5.330  17.118  0.00  0.00    +0.000 A 
ATOM     27  C   UNL     1      48.432   5.954  15.919  0.00  0.00    +0.000 A 
ATOM     28  C   UNL     1      48.853   7.388  15.709  0.00  0.00    +0.000 C 
ENDBRANCH  20  22
ENDBRANCH  15  16
ENDBRANCH   1  15
TORSDOF 6
ENDMDL
MODEL 2
REMARK VINA RESULT:    -7.748      3.792      5.687
REMARK INTER + INTRA:         -10.470
REMARK INTER:                  -9.204
REMARK INTRA:                  -1.266
REMARK UNBOUND:                -0.004
REMARK  Name = 
REMARK  8 active torsions:
REMARK  status: ('A' for Active; 'I' for Inactive)
REMARK    1  A    between atoms: C_1  and  O_2
REMARK    2  A    between atoms: O_2  and  C_3
REMARK    3  A    between atoms: C_5  and  C_6
REMARK    4  A    between atoms: C_11  and  O_12
REMARK    5  A    between atoms: O_12  and  C_13
REMARK    6  A    between atoms: C_13  and  C_14
REMARK    7  A    between atoms: C_18  and  C_19
REMARK    8  A    between atoms: C_24  and  C_25
REMARK                            x       y       z     vdW  Elec       q    Type
REMARK                         _______ _______ _______ _____ _____    ______ ____
ROOT
ATOM      1  O   UNL     1      48.865   6.256  13.724  0.00  0.00    +0.000 OA
ENDROOT
BRANCH   1   7
ATOM      2  C   UNL     1      46.794   4.864  13.941  0.00  0.00    +0.000 A 
ATOM      3  C   UNL     1      45.431   4.783  13.615  0.00  0.00    +0.000 A 
ATOM      4  C   UNL     1      44.790   5.788  12.875  0.00  0.00    +0.000 A 
ATOM      5  C   UNL     1      45.528   6.898  12.462  0.00  0.00    +0.000 A 
ATOM      6  C   UNL     1      46.887   6.987  12.782  0.00  0.00    +0.000 A 
ATOM      7  C   UNL     1      47.534   5.983  13.519  0.00  0.00    +0.000 A 
BRANCH   4   8
ATOM      8  C   UNL     1      43.337   5.604  12.584  0.00  0.00    +0.000 C 
ATOM      9  N   UNL     1      42.765   6.331  11.580  0.00  0.00    +0.000 N 
ATOM     10  O   UNL     1      42.654   4.813  13.228  0.00  0.00    +0.000 OA
ATOM     11  H   UNL     1      43.242   6.997  10.994  0.00  0.00    +0.000 HD
ATOM     12  H   UNL     1      41.781   6.173  11.416  0.00  0.00    +0.000 HD
ENDBRANCH   4   8
BRANCH   2  14
ATOM     13  C   UNL     1      47.127   3.883  16.097  0.00  0.00    +0.000 C 
ATOM     14  O   UNL     1      47.415   3.913  14.705  0.00  0.00    +0.000 OA
ENDBRANCH   2  14
ENDBRANCH   1   7
BRANCH   1  15
ATOM     15  C   UNL     1      49.205   7.323  14.613  0.00  0.00    +0.000 C 
BRANCH  15  16
ATOM     16  C   UNL     1      49.333   6.860  16.051  0.00  0.00    +0.000 A 
ATOM     17  C   UNL     1      48.655   7.481  17.090  0.00  0.00    +0.000 A 
ATOM     18  C   UNL     1      48.774   6.954  18.370  0.00  0.00    +0.000 A 
ATOM     19  C   UNL     1      49.560   5.822  18.579  0.00  0.00    +0.000 A 
ATOM     20  C   UNL     1      50.207   5.228  17.497  0.00  0.00    +0.000 A 
ATOM     21  N   UNL     1      50.077   5.740  16.250  0.00  0.00    +0.000 NA
BRANCH  20  22
ATOM     22  C   UNL     1      51.017   3.984  17.611  0.00  0.00    +0.000 A 
ATOM     23  C   UNL     1      50.421   2.731  17.337  0.00  0.00    +0.000 A 
ATOM     24  C   UNL     1      51.144   1.536  17.386  0.00  0.00    +0.000 A 
ATOM     25  C   UNL     1      52.497   1.558  17.685  0.00  0.00    +0.000 A 
ATOM     26  C   UNL     1      53.119   2.770  17.968  0.00  0.00    +0.000 A 
ATOM     27  C   UNL     1      52.394   3.980  17.961  0.00  0.00    +0.000 A 
ATOM     28  C   UNL     1      53.132   5.232  18.370  0.00  0.00    +0.000 C 
ENDBRANCH  20  22
ENDBRANCH  15  16
ENDBRANCH   1  15
TORSDOF 6
ENDMDL
MODEL 3
REMARK VINA RESULT:    -7.668      3.546      8.133
REMARK INTER + INTRA:         -10.361
REMARK INTER:                  -9.338
REMARK INTRA:                  -1.023
REMARK UNBOUND:                -0.004
REMARK  Name = 
REMARK  8 active torsions:
REMARK  status: ('A' for Active; 'I' for Inactive)
REMARK    1  A    between atoms: C_1  and  O_2
REMARK    2  A    between atoms: O_2  and  C_3
REMARK    3  A    between atoms: C_5  and  C_6
REMARK    4  A    between atoms: C_11  and  O_12
REMARK    5  A    between atoms: O_12  and  C_13
REMARK    6  A    between atoms: C_13  and  C_14
REMARK    7  A    between atoms: C_18  and  C_19
REMARK    8  A    between atoms: C_24  and  C_25
REMARK                            x       y       z     vdW  Elec       q    Type
REMARK                         _______ _______ _______ _____ _____    ______ ____
ROOT
ATOM      1  O   UNL     1      48.422   5.587  14.615  0.00  0.00    +0.000 OA
ENDROOT
BRANCH   1   7
ATOM      2  C   UNL     1      47.656   4.763  16.853  0.00  0.00    +0.000 A 
ATOM      3  C   UNL     1      47.536   5.091  18.212  0.00  0.00    +0.000 A 
ATOM      4  C   UNL     1      47.962   6.332  18.711  0.00  0.00    +0.000 A 
ATOM      5  C   UNL     1      48.524   7.257  17.831  0.00  0.00    +0.000 A 
ATOM      6  C   UNL     1      48.646   6.939  16.473  0.00  0.00    +0.000 A 
ATOM      7  C   UNL     1      48.219   5.701  15.969  0.00  0.00    +0.000 A 
BRANCH   4   8
ATOM      8  C   UNL     1      47.791   6.578  20.174  0.00  0.00    +0.000 C 
ATOM      9  N   UNL     1      47.056   5.696  20.912  0.00  0.00    +0.000 N 
ATOM     10  O   UNL     1      48.299   7.553  20.720  0.00  0.00    +0.000 OA
ATOM     11  H   UNL     1      46.607   4.866  20.557  0.00  0.00    +0.000 HD
ATOM     12  H   UNL     1      46.969   5.899  21.898  0.00  0.00    +0.000 HD
ENDBRANCH   4   8
BRANCH   2  14
ATOM     13  C   UNL     1      48.224   2.470  16.476  0.00  0.00    +0.000 C 
ATOM     14  O   UNL     1      47.289   3.537  16.367  0.00  0.00    +0.000 OA
ENDBRANCH   2  14
ENDBRANCH   1   7
BRANCH   1  15
ATOM     15  C   UNL     1      48.461   6.785  13.836  0.00  0.00    +0.000 C 
BRANCH  15  16
ATOM     16  C   UNL     1      47.159   7.041  13.104  0.00  0.00    +0.000 A 
ATOM     17  C   UNL     1      46.481   8.249  13.204  0.00  0.00    +0.000 A 
ATOM     18  C   UNL     1      45.329   8.428  12.448  0.00  0.00    +0.000 A 
ATOM     19  C   UNL     1      44.887   7.403  11.612  0.00  0.00    +0.000 A 
ATOM     20  C   UNL     1      45.614   6.217  11.538  0.00  0.00    +0.000 A 
ATOM     21  N   UNL     1      46.743   6.053  12.268  0.00  0.00    +0.000 NA
BRANCH  20  22
ATOM     22  C   UNL     1      45.254   5.093  10.631  0.00  0.00    +0.000 A 
ATOM     23  C   UNL     1      45.683   5.115   9.284  0.00  0.00    +0.000 A 
ATOM     24  C   UNL     1      45.413   4.067   8.399  0.00  0.00    +0.000 A 
ATOM     25  C   UNL     1      44.725   2.948   8.842  0.00  0.00    +0.000 A 
ATOM     26  C   UNL     1      44.279   2.892  10.159  0.00  0.00    +0.000 A 
ATOM     27  C   UNL     1      44.510   3.958  11.053  0.00  0.00    +0.000 A 
ATOM     28  C   UNL     1      43.911   3.847  12.434  0.00  0.00    +0.000 C 
ENDBRANCH  20  22
ENDBRANCH  15  16
ENDBRANCH   1  15
TORSDOF 6
ENDMDL
MODEL 4
REMARK VINA RESULT:    -7.605      1.992      3.695
REMARK INTER + INTRA:         -10.276
REMARK INTER:                 -10.337
REMARK INTRA:                   0.060
REMARK UNBOUND:                -0.004
REMARK  Name = 
REMARK  8 active torsions:
REMARK  status: ('A' for Active; 'I' for Inactive)
REMARK    1  A    between atoms: C_1  and  O_2
REMARK    2  A    between atoms: O_2  and  C_3
REMARK    3  A    between atoms: C_5  and  C_6
REMARK    4  A    between atoms: C_11  and  O_12
REMARK    5  A    between atoms: O_12  and  C_13
REMARK    6  A    between atoms: C_13  and  C_14
REMARK    7  A    between atoms: C_18  and  C_19
REMARK    8  A    between atoms: C_24  and  C_25
REMARK                            x       y       z     vdW  Elec       q    Type
REMARK                         _______ _______ _______ _____ _____    ______ ____
ROOT
ATOM      1  O   UNL     1      44.183   4.982  10.714  0.00  0.00    +0.000 OA
ENDROOT
BRANCH   1   7
ATOM      2  C   UNL     1      44.687   2.793   9.604  0.00  0.00    +0.000 A 
ATOM      3  C   UNL     1      45.424   2.172   8.584  0.00  0.00    +0.000 A 
ATOM      4  C   UNL     1      46.277   2.902   7.742  0.00  0.00    +0.000 A 
ATOM      5  C   UNL     1      46.387   4.281   7.923  0.00  0.00    +0.000 A 
ATOM      6  C   UNL     1      45.656   4.909   8.937  0.00  0.00    +0.000 A 
ATOM      7  C   UNL     1      44.804   4.183   9.784  0.00  0.00    +0.000 A 
BRANCH   4   8
ATOM      8  C   UNL     1      47.014   2.142   6.688  0.00  0.00    +0.000 C 
ATOM      9  N   UNL     1      47.379   2.787   5.542  0.00  0.00    +0.000 N 
ATOM     10  O   UNL     1      47.295   0.956   6.836  0.00  0.00    +0.000 OA
ATOM     11  H   UNL     1      47.200   3.756   5.331  0.00  0.00    +0.000 HD
ATOM     12  H   UNL     1      47.878   2.236   4.857  0.00  0.00    +0.000 HD
ENDBRANCH   4   8
BRANCH   2  14
ATOM     13  C   UNL     1      43.507   2.634  11.678  0.00  0.00    +0.000 C 
ATOM     14  O   UNL     1      43.815   2.098  10.397  0.00  0.00    +0.000 OA
ENDBRANCH   2  14
ENDBRANCH   1   7
BRANCH   1  15
ATOM     15  C   UNL     1      44.698   6.299  10.923  0.00  0.00    +0.000 C 
BRANCH  15  16
ATOM     16  C   UNL     1      45.856   6.320  11.900  0.00  0.00    +0.000 A 
ATOM     17  C   UNL     1      45.914   5.468  12.994  0.00  0.00    +0.000 A 
ATOM     18  C   UNL     1      47.042   5.505  13.806  0.00  0.00    +0.000 A 
ATOM     19  C   UNL     1      48.080   6.385  13.502  0.00  0.00    +0.000 A 
ATOM     20  C   UNL     1      47.977   7.207  12.383  0.00  0.00    +0.000 A 
ATOM     21  N   UNL     1      46.880   7.158  11.589  0.00  0.00    +0.000 NA
BRANCH  20  22
ATOM     22  C   UNL     1      49.058   8.133  11.946  0.00  0.00    +0.000 A 
ATOM     23  C   UNL     1      50.284   7.607  11.476  0.00  0.00    +0.000 A 
ATOM     24  C   UNL     1      51.317   8.427  11.012  0.00  0.00    +0.000 A 
ATOM     25  C   UNL     1      51.146   9.802  10.978  0.00  0.00    +0.000 A 
ATOM     26  C   UNL     1      49.956  10.358  11.439  0.00  0.00    +0.000 A 
ATOM     27  C   UNL     1      48.920   9.547  11.946  0.00  0.00    +0.000 A 
ATOM     28  C   UNL     1      47.705  10.245  12.507  0.00  0.00    +0.000 C 
ENDBRANCH  20  22
ENDBRANCH  15  16
ENDBRANCH   1  15
TORSDOF 6
ENDMDL
MODEL 5
REMARK VINA RESULT:    -7.559      3.289      5.826
REMARK INTER + INTRA:         -10.214
REMARK INTER:                  -9.291
REMARK INTRA:                  -0.922
REMARK UNBOUND:                -0.004
REMARK  Name = 
REMARK  8 active torsions:
REMARK  status: ('A' for Active; 'I' for Inactive)
REMARK    1  A    between atoms: C_1  and  O_2
REMARK    2  A    between atoms: O_2  and  C_3
REMARK    3  A    between atoms: C_5  and  C_6
REMARK    4  A    between atoms: C_11  and  O_12
REMARK    5  A    between atoms: O_12  and  C_13
REMARK    6  A    between atoms: C_13  and  C_14
REMARK    7  A    between atoms: C_18  and  C_19
REMARK    8  A    between atoms: C_24  and  C_25
REMARK                            x       y       z     vdW  Elec       q    Type
REMARK                         _______ _______ _______ _____ _____    ______ ____
ROOT
ATOM      1  O   UNL     1      48.726   6.143  13.972  0.00  0.00    +0.000 OA
ENDROOT
BRANCH   1   7
ATOM      2  C   UNL     1      47.348   6.770  11.976  0.00  0.00    +0.000 A 
ATOM      3  C   UNL     1      46.101   6.613  11.353  0.00  0.00    +0.000 A 
ATOM      4  C   UNL     1      45.087   5.826  11.922  0.00  0.00    +0.000 A 
ATOM      5  C   UNL     1      45.333   5.180  13.133  0.00  0.00    +0.000 A 
ATOM      6  C   UNL     1      46.574   5.331  13.762  0.00  0.00    +0.000 A 
ATOM      7  C   UNL     1      47.590   6.120  13.200  0.00  0.00    +0.000 A 
BRANCH   4   8
ATOM      8  C   UNL     1      43.798   5.723  11.175  0.00  0.00    +0.000 C 
ATOM      9  N   UNL     1      42.943   6.787  11.181  0.00  0.00    +0.000 N 
ATOM     10  O   UNL     1      43.499   4.705  10.557  0.00  0.00    +0.000 OA
ATOM     11  H   UNL     1      43.102   7.664  11.651  0.00  0.00    +0.000 HD
ATOM     12  H   UNL     1      42.085   6.676  10.660  0.00  0.00    +0.000 HD
ENDBRANCH   4   8
BRANCH   2  14
ATOM     13  C   UNL     1      48.497   8.859  11.786  0.00  0.00    +0.000 C 
ATOM     14  O   UNL     1      48.359   7.495  11.405  0.00  0.00    +0.000 OA
ENDBRANCH   2  14
ENDBRANCH   1   7
BRANCH   1  15
ATOM     15  C   UNL     1      48.833   7.147  14.984  0.00  0.00    +0.000 C 
BRANCH  15  16
ATOM     16  C   UNL     1      49.025   6.558  16.367  0.00  0.00    +0.000 A 
ATOM     17  C   UNL     1      48.333   7.031  17.474  0.00  0.00    +0.000 A 
ATOM     18  C   UNL     1      48.517   6.393  18.694  0.00  0.00    +0.000 A 
ATOM     19  C   UNL     1      49.379   5.300  18.777  0.00  0.00    +0.000 A 
ATOM     20  C   UNL     1      50.037   4.857  17.632  0.00  0.00    +0.000 A 
ATOM     21  N   UNL     1      49.844   5.477  16.443  0.00  0.00    +0.000 NA
BRANCH  20  22
ATOM     22  C   UNL     1      50.928   3.665  17.611  0.00  0.00    +0.000 A 
ATOM     23  C   UNL     1      52.283   3.797  17.992  0.00  0.00    +0.000 A 
ATOM     24  C   UNL     1      53.155   2.704  18.033  0.00  0.00    +0.000 A 
ATOM     25  C   UNL     1      52.690   1.437  17.719  0.00  0.00    +0.000 A 
ATOM     26  C   UNL     1      51.365   1.268  17.331  0.00  0.00    +0.000 A 
ATOM     27  C   UNL     1      50.483   2.365  17.248  0.00  0.00    +0.000 A 
ATOM     28  C   UNL     1      49.090   2.098  16.732  0.00  0.00    +0.000 C 
ENDBRANCH  20  22
ENDBRANCH  15  16
ENDBRANCH   1  15
TORSDOF 6
ENDMDL
MODEL 6
REMARK VINA RESULT:    -7.163      3.391      5.687
REMARK INTER + INTRA:          -9.680
REMARK INTER:                  -9.107
REMARK INTRA:                  -0.573
REMARK UNBOUND:                -0.004
REMARK  Name = 
REMARK  8 active torsions:
REMARK  status: ('A' for Active; 'I' for Inactive)
REMARK    1  A    between atoms: C_1  and  O_2
REMARK    2  A    between atoms: O_2  and  C_3
REMARK    3  A    between atoms: C_5  and  C_6
REMARK    4  A    between atoms: C_11  and  O_12
REMARK    5  A    between atoms: O_12  and  C_13
REMARK    6  A    between atoms: C_13  and  C_14
REMARK    7  A    between atoms: C_18  and  C_19
REMARK    8  A    between atoms: C_24  and  C_25
REMARK                            x       y       z     vdW  Elec       q    Type
REMARK                         _______ _______ _______ _____ _____    ______ ____
ROOT
ATOM      1  O   UNL     1      47.791   5.070  14.672  0.00  0.00    +0.000 OA
ENDROOT
BRANCH   1   7
ATOM      2  C   UNL     1      46.890   6.189  12.620  0.00  0.00    +0.000 A 
ATOM      3  C   UNL     1      46.002   6.056  11.542  0.00  0.00    +0.000 A 
ATOM      4  C   UNL     1      45.215   4.906  11.374  0.00  0.00    +0.000 A 
ATOM      5  C   UNL     1      45.327   3.869  12.300  0.00  0.00    +0.000 A 
ATOM      6  C   UNL     1      46.210   3.994  13.379  0.00  0.00    +0.000 A 
ATOM      7  C   UNL     1      46.996   5.142  13.554  0.00  0.00    +0.000 A 
BRANCH   4   8
ATOM      8  C   UNL     1      44.305   4.866  10.191  0.00  0.00    +0.000 C 
ATOM      9  N   UNL     1      44.832   4.610   8.958  0.00  0.00    +0.000 N 
ATOM     10  O   UNL     1      43.097   5.056  10.309  0.00  0.00    +0.000 OA
ATOM     11  H   UNL     1      45.805   4.436   8.761  0.00  0.00    +0.000 HD
ATOM     12  H   UNL     1      44.180   4.590   8.186  0.00  0.00    +0.000 HD
ENDBRANCH   4   8
BRANCH   2  14
ATOM     13  C   UNL     1      48.519   7.657  11.664  0.00  0.00    +0.000 C 
ATOM     14  O   UNL     1      47.698   7.284  12.765  0.00  0.00    +0.000 OA
ENDBRANCH   2  14
ENDBRANCH   1   7
BRANCH   1  15
ATOM     15  C   UNL     1      47.338   4.274  15.770  0.00  0.00    +0.000 C 
BRANCH  15  16
ATOM     16  C   UNL     1      48.229   4.407  16.988  0.00  0.00    +0.000 A 
ATOM     17  C   UNL     1      47.822   5.079  18.132  0.00  0.00    +0.000 A 
ATOM     18  C   UNL     1      48.673   5.099  19.230  0.00  0.00    +0.000 A 
ATOM     19  C   UNL     1      49.903   4.445  19.160  0.00  0.00    +0.000 A 
ATOM     20  C   UNL     1      50.256   3.772  17.993  0.00  0.00    +0.000 A 
ATOM     21  N   UNL     1      49.416   3.747  16.930  0.00  0.00    +0.000 NA
BRANCH  20  22
ATOM     22  C   UNL     1      51.519   2.997  17.846  0.00  0.00    +0.000 A 
ATOM     23  C   UNL     1      51.463   1.600  17.635  0.00  0.00    +0.000 A 
ATOM     24  C   UNL     1      52.614   0.829  17.446  0.00  0.00    +0.000 A 
ATOM     25  C   UNL     1      53.859   1.437  17.436  0.00  0.00    +0.000 A 
ATOM     26  C   UNL     1      53.956   2.809  17.648  0.00  0.00    +0.000 A 
ATOM     27  C   UNL     1      52.808   3.594  17.878  0.00  0.00    +0.000 A 
ATOM     28  C   UNL     1      53.018   5.056  18.188  0.00  0.00    +0.000 C 
ENDBRANCH  20  22
ENDBRANCH  15  16
ENDBRANCH   1  15
TORSDOF 6
ENDMDL
MODEL 7
REMARK VINA RESULT:    -7.097      2.332      3.813
REMARK INTER + INTRA:          -9.590
REMARK INTER:                  -8.512
REMARK INTRA:                  -1.078
REMARK UNBOUND:                -0.004
REMARK  Name = 
REMARK  8 active torsions:
REMARK  status: ('A' for Active; 'I' for Inactive)
REMARK    1  A    between atoms: C_1  and  O_2
REMARK    2  A    between atoms: O_2  and  C_3
REMARK    3  A    between atoms: C_5  and  C_6
REMARK    4  A    between atoms: C_11  and  O_12
REMARK    5  A    between atoms: O_12  and  C_13
REMARK    6  A    between atoms: C_13  and  C_14
REMARK    7  A    between atoms: C_18  and  C_19
REMARK    8  A    between atoms: C_24  and  C_25
REMARK                            x       y       z     vdW  Elec       q    Type
REMARK                         _______ _______ _______ _____ _____    ______ ____
ROOT
ATOM      1  O   UNL     1      47.008   6.979  13.406  0.00  0.00    +0.000 OA
ENDROOT
BRANCH   1   7
ATOM      2  C   UNL     1      45.875   4.783  12.996  0.00  0.00    +0.000 A 
ATOM      3  C   UNL     1      45.231   3.991  12.033  0.00  0.00    +0.000 A 
ATOM      4  C   UNL     1      45.053   4.435  10.713  0.00  0.00    +0.000 A 
ATOM      5  C   UNL     1      45.525   5.699  10.356  0.00  0.00    +0.000 A 
ATOM      6  C   UNL     1      46.169   6.495  11.310  0.00  0.00    +0.000 A 
ATOM      7  C   UNL     1      46.352   6.054  12.630  0.00  0.00    +0.000 A 
BRANCH   4   8
ATOM      8  C   UNL     1      44.352   3.515   9.769  0.00  0.00    +0.000 C 
ATOM      9  N   UNL     1      44.271   3.856   8.450  0.00  0.00    +0.000 N 
ATOM     10  O   UNL     1      43.853   2.462  10.158  0.00  0.00    +0.000 OA
ATOM     11  H   UNL     1      44.653   4.691   8.036  0.00  0.00    +0.000 HD
ATOM     12  H   UNL     1      43.791   3.203   7.846  0.00  0.00    +0.000 HD
ENDBRANCH   4   8
BRANCH   2  14
ATOM     13  C   UNL     1      47.179   3.653  14.652  0.00  0.00    +0.000 C 
ATOM     14  O   UNL     1      46.008   4.379  14.297  0.00  0.00    +0.000 OA
ENDBRANCH   2  14
ENDBRANCH   1   7
BRANCH   1  15
ATOM     15  C   UNL     1      48.291   7.435  12.970  0.00  0.00    +0.000 C 
BRANCH  15  16
ATOM     16  C   UNL     1      49.347   7.313  14.050  0.00  0.00    +0.000 A 
ATOM     17  C   UNL     1      50.576   7.951  13.957  0.00  0.00    +0.000 A 
ATOM     18  C   UNL     1      51.464   7.841  15.021  0.00  0.00    +0.000 A 
ATOM     19  C   UNL     1      51.101   7.104  16.148  0.00  0.00    +0.000 A 
ATOM     20  C   UNL     1      49.848   6.497  16.196  0.00  0.00    +0.000 A 
ATOM     21  N   UNL     1      48.983   6.617  15.160  0.00  0.00    +0.000 NA
BRANCH  20  22
ATOM     22  C   UNL     1      49.350   5.742  17.378  0.00  0.00    +0.000 A 
ATOM     23  C   UNL     1      49.552   4.344  17.452  0.00  0.00    +0.000 A 
ATOM     24  C   UNL     1      49.145   3.590  18.557  0.00  0.00    +0.000 A 
ATOM     25  C   UNL     1      48.546   4.217  19.639  0.00  0.00    +0.000 A 
ATOM     26  C   UNL     1      48.323   5.590  19.600  0.00  0.00    +0.000 A 
ATOM     27  C   UNL     1      48.693   6.358  18.476  0.00  0.00    +0.000 A 
ATOM     28  C   UNL     1      48.330   7.823  18.487  0.00  0.00    +0.000 C 
ENDBRANCH  20  22
ENDBRANCH  15  16
ENDBRANCH   1  15
TORSDOF 6
ENDMDL
MODEL 8
REMARK VINA RESULT:    -7.077      2.991      5.465
REMARK INTER + INTRA:          -9.563
REMARK INTER:                  -8.519
REMARK INTRA:                  -1.044
REMARK UNBOUND:                -0.004
REMARK  Name = 
REMARK  8 active torsions:
REMARK  status: ('A' for Active; 'I' for Inactive)
REMARK    1  A    between atoms: C_1  and  O_2
REMARK    2  A    between atoms: O_2  and  C_3
REMARK    3  A    between atoms: C_5  and  C_6
REMARK    4  A    between atoms: C_11  and  O_12
REMARK    5  A    between atoms: O_12  and  C_13
REMARK    6  A    between atoms: C_13  and  C_14
REMARK    7  A    between atoms: C_18  and  C_19
REMARK    8  A    between atoms: C_24  and  C_25
REMARK                            x       y       z     vdW  Elec       q    Type
REMARK                         _______ _______ _______ _____ _____    ______ ____
ROOT
ATOM      1  O   UNL     1      47.637   3.880  14.563  0.00  0.00    +0.000 OA
ENDROOT
BRANCH   1   7
ATOM      2  C   UNL     1      46.536   5.556  13.062  0.00  0.00    +0.000 A 
ATOM      3  C   UNL     1      45.586   5.728  12.044  0.00  0.00    +0.000 A 
ATOM      4  C   UNL     1      44.856   4.646  11.527  0.00  0.00    +0.000 A 
ATOM      5  C   UNL     1      45.091   3.369  12.035  0.00  0.00    +0.000 A 
ATOM      6  C   UNL     1      46.036   3.188  13.050  0.00  0.00    +0.000 A 
ATOM      7  C   UNL     1      46.766   4.267  13.574  0.00  0.00    +0.000 A 
BRANCH   4   8
ATOM      8  C   UNL     1      43.871   4.940  10.443  0.00  0.00    +0.000 C 
ATOM      9  N   UNL     1      44.172   4.581   9.161  0.00  0.00    +0.000 N 
ATOM     10  O   UNL     1      42.802   5.493  10.686  0.00  0.00    +0.000 OA
ATOM     11  H   UNL     1      45.016   4.120   8.864  0.00  0.00    +0.000 HD
ATOM     12  H   UNL     1      43.476   4.796   8.460  0.00  0.00    +0.000 HD
ENDBRANCH   4   8
BRANCH   2  14
ATOM     13  C   UNL     1      48.578   6.799  12.975  0.00  0.00    +0.000 C 
ATOM     14  O   UNL     1      47.287   6.597  13.538  0.00  0.00    +0.000 OA
ENDBRANCH   2  14
ENDBRANCH   1   7
BRANCH   1  15
ATOM     15  C   UNL     1      47.155   3.839  15.908  0.00  0.00    +0.000 C 
BRANCH  15  16
ATOM     16  C   UNL     1      47.923   4.766  16.828  0.00  0.00    +0.000 A 
ATOM     17  C   UNL     1      47.438   5.139  18.074  0.00  0.00    +0.000 A 
ATOM     18  C   UNL     1      48.234   5.939  18.885  0.00  0.00    +0.000 A 
ATOM     19  C   UNL     1      49.491   6.342  18.434  0.00  0.00    +0.000 A 
ATOM     20  C   UNL     1      49.935   5.927  17.181  0.00  0.00    +0.000 A 
ATOM     21  N   UNL     1      49.159   5.137  16.401  0.00  0.00    +0.000 NA
BRANCH  20  22
ATOM     22  C   UNL     1      51.283   6.256  16.641  0.00  0.00    +0.000 A 
ATOM     23  C   UNL     1      51.431   7.332  15.735  0.00  0.00    +0.000 A 
ATOM     24  C   UNL     1      52.677   7.713  15.230  0.00  0.00    +0.000 A 
ATOM     25  C   UNL     1      53.822   7.046  15.637  0.00  0.00    +0.000 A 
ATOM     26  C   UNL     1      53.717   5.977  16.522  0.00  0.00    +0.000 A 
ATOM     27  C   UNL     1      52.463   5.555  17.010  0.00  0.00    +0.000 A 
ATOM     28  C   UNL     1      52.438   4.331  17.892  0.00  0.00    +0.000 C 
ENDBRANCH  20  22
ENDBRANCH  15  16
ENDBRANCH   1  15
TORSDOF 6
ENDMDL
MODEL 9
REMARK VINA RESULT:    -7.023      3.940      7.912
REMARK INTER + INTRA:          -9.490
REMARK INTER:                  -8.627
REMARK INTRA:                  -0.864
REMARK UNBOUND:                -0.004
REMARK  Name = 
REMARK  8 active torsions:
REMARK  status: ('A' for Active; 'I' for Inactive)
REMARK    1  A    between atoms: C_1  and  O_2
REMARK    2  A    between atoms: O_2  and  C_3
REMARK    3  A    between atoms: C_5  and  C_6
REMARK    4  A    between atoms: C_11  and  O_12
REMARK    5  A    between atoms: O_12  and  C_13
REMARK    6  A    between atoms: C_13  and  C_14
REMARK    7  A    between atoms: C_18  and  C_19
REMARK    8  A    between atoms: C_24  and  C_25
REMARK                            x       y       z     vdW  Elec       q    Type
REMARK                         _______ _______ _______ _____ _____    ______ ____
ROOT
ATOM      1  O   UNL     1      48.439   6.944  15.430  0.00  0.00    +0.000 OA
ENDROOT
BRANCH   1   7
ATOM      2  C   UNL     1      48.978   5.005  16.921  0.00  0.00    +0.000 A 
ATOM      3  C   UNL     1      49.999   4.365  17.640  0.00  0.00    +0.000 A 
ATOM      4  C   UNL     1      51.313   4.858  17.650  0.00  0.00    +0.000 A 
ATOM      5  C   UNL     1      51.608   6.010  16.921  0.00  0.00    +0.000 A 
ATOM      6  C   UNL     1      50.595   6.655  16.201  0.00  0.00    +0.000 A 
ATOM      7  C   UNL     1      49.279   6.168  16.190  0.00  0.00    +0.000 A 
BRANCH   4   8
ATOM      8  C   UNL     1      52.323   4.099  18.446  0.00  0.00    +0.000 C 
ATOM      9  N   UNL     1      52.128   3.945  19.788  0.00  0.00    +0.000 N 
ATOM     10  O   UNL     1      53.318   3.613  17.915  0.00  0.00    +0.000 OA
ATOM     11  H   UNL     1      51.344   4.299  20.311  0.00  0.00    +0.000 HD
ATOM     12  H   UNL     1      52.835   3.422  20.287  0.00  0.00    +0.000 HD
ENDBRANCH   4   8
BRANCH   2  14
ATOM     13  C   UNL     1      47.415   3.534  15.865  0.00  0.00    +0.000 C 
ATOM     14  O   UNL     1      47.705   4.503  16.864  0.00  0.00    +0.000 OA
ENDBRANCH   2  14
ENDBRANCH   1   7
BRANCH   1  15
ATOM     15  C   UNL     1      48.593   6.914  14.009  0.00  0.00    +0.000 C 
BRANCH  15  16
ATOM     16  C   UNL     1      47.297   7.207  13.280  0.00  0.00    +0.000 A 
ATOM     17  C   UNL     1      46.670   8.443  13.356  0.00  0.00    +0.000 A 
ATOM     18  C   UNL     1      45.521   8.653  12.604  0.00  0.00    +0.000 A 
ATOM     19  C   UNL     1      45.031   7.629  11.794  0.00  0.00    +0.000 A 
ATOM     20  C   UNL     1      45.708   6.412  11.742  0.00  0.00    +0.000 A 
ATOM     21  N   UNL     1      46.835   6.219  12.469  0.00  0.00    +0.000 NA
BRANCH  20  22
ATOM     22  C   UNL     1      45.297   5.284  10.863  0.00  0.00    +0.000 A 
ATOM     23  C   UNL     1      45.676   5.283   9.501  0.00  0.00    +0.000 A 
ATOM     24  C   UNL     1      45.355   4.229   8.639  0.00  0.00    +0.000 A 
ATOM     25  C   UNL     1      44.666   3.128   9.122  0.00  0.00    +0.000 A 
ATOM     26  C   UNL     1      44.268   3.095  10.455  0.00  0.00    +0.000 A 
ATOM     27  C   UNL     1      44.550   4.167  11.326  0.00  0.00    +0.000 A 
ATOM     28  C   UNL     1      44.001   4.083  12.730  0.00  0.00    +0.000 C 
ENDBRANCH  20  22
ENDBRANCH  15  16
ENDBRANCH   1  15
TORSDOF 6
ENDMDL
