MODEL 1
REMARK VINA RESULT:    -7.495      0.000      0.000
REMARK INTER + INTRA:         -11.168
REMARK INTER:                 -10.343
REMARK INTRA:                  -0.825
REMARK UNBOUND:                -0.825
REMARK  Name = 
REMARK  7 active torsions:
REMARK  status: ('A' for Active; 'I' for Inactive)
REMARK    1  A    between atoms: N_1  and  C_2
REMARK    2  A    between atoms: C_2  and  C_3
REMARK    3  A    between atoms: C_7  and  O_8
REMARK    4  A    between atoms: O_8  and  C_9
REMARK    5  A    between atoms: C_9  and  C_10
REMARK    6  A    between atoms: C_10  and  C_11
REMARK    7  A    between atoms: C_15  and  C_16
REMARK                            x       y       z     vdW  Elec       q    Type
REMARK                         _______ _______ _______ _____ _____    ______ ____
ROOT
ATOM      1  C   UNL     1      43.445   3.449  11.242  0.00  0.00    +0.000 C 
ENDROOT
BRANCH   1   2
ATOM      2  O   UNL     1      43.765   2.437  10.277  0.00  0.00    +0.000 OA
BRANCH   2   7
ATOM      3  C   UNL     1      46.425   2.021   7.796  0.00  0.00    +0.000 A 
ATOM      4  C   UNL     1      46.638   3.344   7.383  0.00  0.00    +0.000 A 
ATOM      5  C   UNL     1      45.912   4.385   7.950  0.00  0.00    +0.000 A 
ATOM      6  C   UNL     1      44.953   4.115   8.926  0.00  0.00    +0.000 A 
ATOM      7  C   UNL     1      44.712   2.801   9.346  0.00  0.00    +0.000 A 
ATOM      8  C   UNL     1      45.462   1.762   8.788  0.00  0.00    +0.000 A 
BRANCH   3   9
ATOM      9  C   UNL     1      47.192   0.898   7.145  0.00  0.00    +0.000 C 
BRANCH   9  10
ATOM     10  N   UNL     1      46.847  -0.397   7.722  0.00  0.00    +0.000 NA
ATOM     11  H   UNL     1      45.930  -0.678   7.384  0.00  0.00    +0.000 HD
ATOM     12  H   UNL     1      46.762  -0.291   8.732  0.00  0.00    +0.000 HD
ENDBRANCH   9  10
ENDBRANCH   3   9
ENDBRANCH   2   7
ENDBRANCH   1   2
BRANCH   1  13
ATOM     13  C   UNL     1      44.299   3.302  12.500  0.00  0.00    +0.000 C 
BRANCH  13  14
ATOM     14  C   UNL     1      45.154   4.526  12.740  0.00  0.00    +0.000 A 
ATOM     15  C   UNL     1      46.368   4.434  13.428  0.00  0.00    +0.000 A 
ATOM     16  C   UNL     1      47.119   5.586  13.637  0.00  0.00    +0.000 A 
ATOM     17  N   UNL     1      46.748   6.816  13.221  0.00  0.00    +0.000 NA
ATOM     18  C   UNL     1      45.558   6.889  12.562  0.00  0.00    +0.000 A 
ATOM     19  C   UNL     1      44.740   5.791  12.307  0.00  0.00    +0.000 A 
BRANCH  18  20
ATOM     20  C   UNL     1      45.133   8.250  12.087  0.00  0.00    +0.000 C 
ATOM     21  N   UNL     1      44.076   8.275  11.218  0.00  0.00    +0.000 N 
ATOM     22  O   UNL     1      45.695   9.276  12.448  0.00  0.00    +0.000 OA
ATOM     23  H   UNL     1      43.620   7.409  10.956  0.00  0.00    +0.000 HD
ATOM     24  H   UNL     1      43.732   9.162  10.879  0.00  0.00    +0.000 HD
ENDBRANCH  18  20
ENDBRANCH  13  14
ENDBRANCH   1  13
TORSDOF 7
ENDMDL
MODEL 2
REMARK VINA RESULT:    -7.485      2.259      3.215
REMARK INTER + INTRA:         -11.155
REMARK INTER:                 -10.533
REMARK INTRA:                  -0.622
REMARK UNBOUND:                -0.825
REMARK  Name = 
REMARK  7 active torsions:
REMARK  status: ('A' for Active; 'I' for Inactive)
REMARK    1  A    between atoms: N_1  and  C_2
REMARK    2  A    between atoms: C_2  and  C_3
REMARK    3  A    between atoms: C_7  and  O_8
REMARK    4  A    between atoms: O_8  and  C_9
REMARK    5  A    between atoms: C_9  and  C_10
REMARK    6  A    between atoms: C_10  and  C_11
REMARK    7  A    between atoms: C_15  and  C_16
REMARK                            x       y       z     vdW  Elec       q    Type
REMARK                         _______ _______ _______ _____ _____    ______ ____
ROOT
ATOM      1  C   UNL     1      43.886   4.413  10.433  0.00  0.00    +0.000 C 
ENDROOT
BRANCH   1   2
ATOM      2  O   UNL     1      44.218   4.483   9.040  0.00  0.00    +0.000 OA
BRANCH   2   7
ATOM      3  C   UNL     1      46.627   2.689   6.946  0.00  0.00    +0.000 A 
ATOM      4  C   UNL     1      46.594   1.405   7.510  0.00  0.00    +0.000 A 
ATOM      5  C   UNL     1      45.748   1.126   8.577  0.00  0.00    +0.000 A 
ATOM      6  C   UNL     1      44.935   2.130   9.103  0.00  0.00    +0.000 A 
ATOM      7  C   UNL     1      44.959   3.424   8.566  0.00  0.00    +0.000 A 
ATOM      8  C   UNL     1      45.795   3.691   7.479  0.00  0.00    +0.000 A 
BRANCH   3   9
ATOM      9  C   UNL     1      47.577   2.989   5.814  0.00  0.00    +0.000 C 
BRANCH   9  10
ATOM     10  N   UNL     1      48.513   1.892   5.590  0.00  0.00    +0.000 NA
ATOM     11  H   UNL     1      49.404   2.121   6.025  0.00  0.00    +0.000 HD
ATOM     12  H   UNL     1      48.692   1.815   4.590  0.00  0.00    +0.000 HD
ENDBRANCH   9  10
ENDBRANCH   3   9
ENDBRANCH   2   7
ENDBRANCH   1   2
BRANCH   1  13
ATOM     13  C   UNL     1      44.114   5.757  11.123  0.00  0.00    +0.000 C 
BRANCH  13  14
ATOM     14  C   UNL     1      45.440   5.793  11.848  0.00  0.00    +0.000 A 
ATOM     15  C   UNL     1      46.474   6.631  11.417  0.00  0.00    +0.000 A 
ATOM     16  C   UNL     1      47.683   6.627  12.105  0.00  0.00    +0.000 A 
ATOM     17  N   UNL     1      47.939   5.849  13.178  0.00  0.00    +0.000 NA
ATOM     18  C   UNL     1      46.925   5.031  13.578  0.00  0.00    +0.000 A 
ATOM     19  C   UNL     1      45.683   4.968  12.952  0.00  0.00    +0.000 A 
BRANCH  18  20
ATOM     20  C   UNL     1      47.192   4.162  14.774  0.00  0.00    +0.000 C 
ATOM     21  N   UNL     1      47.015   4.758  15.995  0.00  0.00    +0.000 N 
ATOM     22  O   UNL     1      47.548   2.996  14.673  0.00  0.00    +0.000 OA
ATOM     23  H   UNL     1      46.700   5.720  16.043  0.00  0.00    +0.000 HD
ATOM     24  H   UNL     1      47.160   4.219  16.836  0.00  0.00    +0.000 HD
ENDBRANCH  18  20
ENDBRANCH  13  14
ENDBRANCH   1  13
TORSDOF 7
ENDMDL
MODEL 3
REMARK VINA RESULT:    -7.338      1.459      2.320
REMARK INTER + INTRA:         -10.952
REMARK INTER:                 -10.178
REMARK INTRA:                  -0.773
REMARK UNBOUND:                -0.825
REMARK  Name = 
REMARK  7 active torsions:
REMARK  status: ('A' for Active; 'I' for Inactive)
REMARK    1  A    between atoms: N_1  and  C_2
REMARK    2  A    between atoms: C_2  and  C_3
REMARK    3  A    between atoms: C_7  and  O_8
REMARK    4  A    between atoms: O_8  and  C_9
REMARK    5  A    between atoms: C_9  and  C_10
REMARK    6  A    between atoms: C_10  and  C_11
REMARK    7  A    between atoms: C_15  and  C_16
REMARK                            x       y       z     vdW  Elec       q    Type
REMARK                         _______ _______ _______ _____ _____    ______ ____
ROOT
ATOM      1  C   UNL     1      43.368   3.411  11.069  0.00  0.00    +0.000 C 
ENDROOT
BRANCH   1   2
ATOM      2  O   UNL     1      43.998   2.383  10.292  0.00  0.00    +0.000 OA
BRANCH   2   7
ATOM      3  C   UNL     1      46.550   2.209   7.673  0.00  0.00    +0.000 A 
ATOM      4  C   UNL     1      46.720   3.563   7.350  0.00  0.00    +0.000 A 
ATOM      5  C   UNL     1      46.001   4.544   8.025  0.00  0.00    +0.000 A 
ATOM      6  C   UNL     1      45.092   4.182   9.018  0.00  0.00    +0.000 A 
ATOM      7  C   UNL     1      44.894   2.835   9.350  0.00  0.00    +0.000 A 
ATOM      8  C   UNL     1      45.637   1.857   8.684  0.00  0.00    +0.000 A 
BRANCH   3   9
ATOM      9  C   UNL     1      47.308   1.153   6.907  0.00  0.00    +0.000 C 
BRANCH   9  10
ATOM     10  N   UNL     1      48.324   1.740   6.040  0.00  0.00    +0.000 NA
ATOM     11  H   UNL     1      49.245   1.512   6.405  0.00  0.00    +0.000 HD
ATOM     12  H   UNL     1      48.240   2.755   6.081  0.00  0.00    +0.000 HD
ENDBRANCH   9  10
ENDBRANCH   3   9
ENDBRANCH   2   7
ENDBRANCH   1   2
BRANCH   1  13
ATOM     13  C   UNL     1      44.022   3.543  12.443  0.00  0.00    +0.000 C 
BRANCH  13  14
ATOM     14  C   UNL     1      44.745   4.863  12.592  0.00  0.00    +0.000 A 
ATOM     15  C   UNL     1      44.177   6.051  12.121  0.00  0.00    +0.000 A 
ATOM     16  C   UNL     1      44.879   7.243  12.267  0.00  0.00    +0.000 A 
ATOM     17  N   UNL     1      46.100   7.337  12.836  0.00  0.00    +0.000 NA
ATOM     18  C   UNL     1      46.643   6.168  13.279  0.00  0.00    +0.000 A 
ATOM     19  C   UNL     1      46.014   4.929  13.176  0.00  0.00    +0.000 A 
BRANCH  18  20
ATOM     20  C   UNL     1      47.999   6.255  13.920  0.00  0.00    +0.000 C 
ATOM     21  N   UNL     1      48.015   6.214  15.289  0.00  0.00    +0.000 N 
ATOM     22  O   UNL     1      49.029   6.358  13.267  0.00  0.00    +0.000 OA
ATOM     23  H   UNL     1      47.146   6.108  15.798  0.00  0.00    +0.000 HD
ATOM     24  H   UNL     1      48.898   6.249  15.777  0.00  0.00    +0.000 HD
ENDBRANCH  18  20
ENDBRANCH  13  14
ENDBRANCH   1  13
TORSDOF 7
ENDMDL
MODEL 4
REMARK VINA RESULT:    -7.275      1.846      6.623
REMARK INTER + INTRA:         -10.864
REMARK INTER:                  -9.953
REMARK INTRA:                  -0.911
REMARK UNBOUND:                -0.825
REMARK  Name = 
REMARK  7 active torsions:
REMARK  status: ('A' for Active; 'I' for Inactive)
REMARK    1  A    between atoms: N_1  and  C_2
REMARK    2  A    between atoms: C_2  and  C_3
REMARK    3  A    between atoms: C_7  and  O_8
REMARK    4  A    between atoms: O_8  and  C_9
REMARK    5  A    between atoms: C_9  and  C_10
REMARK    6  A    between atoms: C_10  and  C_11
REMARK    7  A    between atoms: C_15  and  C_16
REMARK                            x       y       z     vdW  Elec       q    Type
REMARK                         _______ _______ _______ _____ _____    ______ ____
ROOT
ATOM      1  C   UNL     1      43.256   4.171  11.214  0.00  0.00    +0.000 C 
ENDROOT
BRANCH   1   2
ATOM      2  O   UNL     1      43.629   4.410  12.578  0.00  0.00    +0.000 OA
BRANCH   2   7
ATOM      3  C   UNL     1      46.011   7.190  12.523  0.00  0.00    +0.000 A 
ATOM      4  C   UNL     1      47.154   6.596  13.077  0.00  0.00    +0.000 A 
ATOM      5  C   UNL     1      47.143   5.256  13.447  0.00  0.00    +0.000 A 
ATOM      6  C   UNL     1      45.984   4.498  13.284  0.00  0.00    +0.000 A 
ATOM      7  C   UNL     1      44.825   5.071  12.746  0.00  0.00    +0.000 A 
ATOM      8  C   UNL     1      44.851   6.412  12.354  0.00  0.00    +0.000 A 
BRANCH   3   9
ATOM      9  C   UNL     1      46.024   8.654  12.161  0.00  0.00    +0.000 C 
BRANCH   9  10
ATOM     10  N   UNL     1      44.968   9.390  12.848  0.00  0.00    +0.000 NA
ATOM     11  H   UNL     1      45.388  10.013  13.533  0.00  0.00    +0.000 HD
ATOM     12  H   UNL     1      44.398   8.727  13.372  0.00  0.00    +0.000 HD
ENDBRANCH   9  10
ENDBRANCH   3   9
ENDBRANCH   2   7
ENDBRANCH   1   2
BRANCH   1  13
ATOM     13  C   UNL     1      43.828   2.848  10.709  0.00  0.00    +0.000 C 
BRANCH  13  14
ATOM     14  C   UNL     1      44.818   3.061   9.586  0.00  0.00    +0.000 A 
ATOM     15  C   UNL     1      45.091   4.344   9.101  0.00  0.00    +0.000 A 
ATOM     16  C   UNL     1      46.000   4.498   8.060  0.00  0.00    +0.000 A 
ATOM     17  N   UNL     1      46.647   3.473   7.464  0.00  0.00    +0.000 NA
ATOM     18  C   UNL     1      46.360   2.229   7.941  0.00  0.00    +0.000 A 
ATOM     19  C   UNL     1      45.465   1.979   8.979  0.00  0.00    +0.000 A 
BRANCH  18  20
ATOM     20  C   UNL     1      47.075   1.077   7.293  0.00  0.00    +0.000 C 
ATOM     21  N   UNL     1      46.727  -0.169   7.740  0.00  0.00    +0.000 N 
ATOM     22  O   UNL     1      47.920   1.236   6.421  0.00  0.00    +0.000 OA
ATOM     23  H   UNL     1      46.010  -0.266   8.449  0.00  0.00    +0.000 HD
ATOM     24  H   UNL     1      47.160  -0.984   7.329  0.00  0.00    +0.000 HD
ENDBRANCH  18  20
ENDBRANCH  13  14
ENDBRANCH   1  13
TORSDOF 7
ENDMDL
MODEL 5
REMARK VINA RESULT:    -6.705      2.278      2.903
REMARK INTER + INTRA:         -10.078
REMARK INTER:                  -9.344
REMARK INTRA:                  -0.733
REMARK UNBOUND:                -0.825
REMARK  Name = 
REMARK  7 active torsions:
REMARK  status: ('A' for Active; 'I' for Inactive)
REMARK    1  A    between atoms: N_1  and  C_2
REMARK    2  A    between atoms: C_2  and  C_3
REMARK    3  A    between atoms: C_7  and  O_8
REMARK    4  A    between atoms: O_8  and  C_9
REMARK    5  A    between atoms: C_9  and  C_10
REMARK    6  A    between atoms: C_10  and  C_11
REMARK    7  A    between atoms: C_15  and  C_16
REMARK                            x       y       z     vdW  Elec       q    Type
REMARK                         _______ _______ _______ _____ _____    ______ ____
ROOT
ATOM      1  C   UNL     1      43.894   4.712  10.480  0.00  0.00    +0.000 C 
ENDROOT
BRANCH   1   2
ATOM      2  O   UNL     1      44.280   4.737   9.099  0.00  0.00    +0.000 OA
BRANCH   2   7
ATOM      3  C   UNL     1      46.526   2.700   7.047  0.00  0.00    +0.000 A 
ATOM      4  C   UNL     1      46.422   1.447   7.670  0.00  0.00    +0.000 A 
ATOM      5  C   UNL     1      45.581   1.271   8.763  0.00  0.00    +0.000 A 
ATOM      6  C   UNL     1      44.846   2.348   9.256  0.00  0.00    +0.000 A 
ATOM      7  C   UNL     1      44.941   3.612   8.661  0.00  0.00    +0.000 A 
ATOM      8  C   UNL     1      45.771   3.776   7.549  0.00  0.00    +0.000 A 
BRANCH   3   9
ATOM      9  C   UNL     1      47.471   2.887   5.886  0.00  0.00    +0.000 C 
BRANCH   9  10
ATOM     10  N   UNL     1      48.402   1.770   5.763  0.00  0.00    +0.000 NA
ATOM     11  H   UNL     1      47.900   0.900   5.918  0.00  0.00    +0.000 HD
ATOM     12  H   UNL     1      49.094   1.840   6.507  0.00  0.00    +0.000 HD
ENDBRANCH   9  10
ENDBRANCH   3   9
ENDBRANCH   2   7
ENDBRANCH   1   2
BRANCH   1  13
ATOM     13  C   UNL     1      44.619   5.796  11.275  0.00  0.00    +0.000 C 
BRANCH  13  14
ATOM     14  C   UNL     1      45.602   5.202  12.260  0.00  0.00    +0.000 A 
ATOM     15  C   UNL     1      45.636   3.824  12.499  0.00  0.00    +0.000 A 
ATOM     16  C   UNL     1      46.547   3.318  13.420  0.00  0.00    +0.000 A 
ATOM     17  N   UNL     1      47.415   4.079  14.121  0.00  0.00    +0.000 NA
ATOM     18  C   UNL     1      47.360   5.419  13.884  0.00  0.00    +0.000 A 
ATOM     19  C   UNL     1      46.483   6.015  12.981  0.00  0.00    +0.000 A 
BRANCH  18  20
ATOM     20  C   UNL     1      48.323   6.280  14.652  0.00  0.00    +0.000 C 
ATOM     21  N   UNL     1      48.671   7.463  14.057  0.00  0.00    +0.000 N 
ATOM     22  O   UNL     1      48.775   5.950  15.740  0.00  0.00    +0.000 OA
ATOM     23  H   UNL     1      48.263   7.715  13.164  0.00  0.00    +0.000 HD
ATOM     24  H   UNL     1      49.300   8.093  14.533  0.00  0.00    +0.000 HD
ENDBRANCH  18  20
ENDBRANCH  13  14
ENDBRANCH   1  13
TORSDOF 7
ENDMDL
MODEL 6
REMARK VINA RESULT:    -6.487      1.842      2.658
REMARK INTER + INTRA:          -9.777
REMARK INTER:                  -9.127
REMARK INTRA:                  -0.650
REMARK UNBOUND:                -0.825
REMARK  Name = 
REMARK  7 active torsions:
REMARK  status: ('A' for Active; 'I' for Inactive)
REMARK    1  A    between atoms: N_1  and  C_2
REMARK    2  A    between atoms: C_2  and  C_3
REMARK    3  A    between atoms: C_7  and  O_8
REMARK    4  A    between atoms: O_8  and  C_9
REMARK    5  A    between atoms: C_9  and  C_10
REMARK    6  A    between atoms: C_10  and  C_11
REMARK    7  A    between atoms: C_15  and  C_16
REMARK                            x       y       z     vdW  Elec       q    Type
REMARK                         _______ _______ _______ _____ _____    ______ ____
ROOT
ATOM      1  C   UNL     1      44.020   2.620  10.372  0.00  0.00    +0.000 C 
ENDROOT
BRANCH   1   2
ATOM      2  O   UNL     1      44.109   3.489   9.235  0.00  0.00    +0.000 OA
BRANCH   2   7
ATOM      3  C   UNL     1      46.869   1.801   7.521  0.00  0.00    +0.000 A 
ATOM      4  C   UNL     1      47.549   2.883   6.943  0.00  0.00    +0.000 A 
ATOM      5  C   UNL     1      47.103   4.184   7.144  0.00  0.00    +0.000 A 
ATOM      6  C   UNL     1      45.964   4.419   7.912  0.00  0.00    +0.000 A 
ATOM      7  C   UNL     1      45.259   3.355   8.490  0.00  0.00    +0.000 A 
ATOM      8  C   UNL     1      45.726   2.052   8.302  0.00  0.00    +0.000 A 
BRANCH   3   9
ATOM      9  C   UNL     1      47.341   0.392   7.263  0.00  0.00    +0.000 C 
BRANCH   9  10
ATOM     10  N   UNL     1      46.492  -0.591   7.928  0.00  0.00    +0.000 NA
ATOM     11  H   UNL     1      46.672  -1.509   7.529  0.00  0.00    +0.000 HD
ATOM     12  H   UNL     1      45.518  -0.373   7.722  0.00  0.00    +0.000 HD
ENDBRANCH   9  10
ENDBRANCH   3   9
ENDBRANCH   2   7
ENDBRANCH   1   2
BRANCH   1  13
ATOM     13  C   UNL     1      43.340   3.317  11.548  0.00  0.00    +0.000 C 
BRANCH  13  14
ATOM     14  C   UNL     1      44.230   4.378  12.157  0.00  0.00    +0.000 A 
ATOM     15  C   UNL     1      44.086   5.725  11.809  0.00  0.00    +0.000 A 
ATOM     16  C   UNL     1      44.932   6.668  12.384  0.00  0.00    +0.000 A 
ATOM     17  N   UNL     1      45.908   6.369  13.267  0.00  0.00    +0.000 NA
ATOM     18  C   UNL     1      46.042   5.051  13.586  0.00  0.00    +0.000 A 
ATOM     19  C   UNL     1      45.242   4.038  13.062  0.00  0.00    +0.000 A 
BRANCH  18  20
ATOM     20  C   UNL     1      47.120   4.702  14.572  0.00  0.00    +0.000 C 
ATOM     21  N   UNL     1      47.818   5.759  15.092  0.00  0.00    +0.000 N 
ATOM     22  O   UNL     1      47.368   3.547  14.893  0.00  0.00    +0.000 OA
ATOM     23  H   UNL     1      47.574   6.705  14.820  0.00  0.00    +0.000 HD
ATOM     24  H   UNL     1      48.542   5.590  15.775  0.00  0.00    +0.000 HD
ENDBRANCH  18  20
ENDBRANCH  13  14
ENDBRANCH   1  13
TORSDOF 7
ENDMDL
MODEL 7
REMARK VINA RESULT:    -6.275      5.584      7.281
REMARK INTER + INTRA:          -9.485
REMARK INTER:                  -9.101
REMARK INTRA:                  -0.383
REMARK UNBOUND:                -0.825
REMARK  Name = 
REMARK  7 active torsions:
REMARK  status: ('A' for Active; 'I' for Inactive)
REMARK    1  A    between atoms: N_1  and  C_2
REMARK    2  A    between atoms: C_2  and  C_3
REMARK    3  A    between atoms: C_7  and  O_8
REMARK    4  A    between atoms: O_8  and  C_9
REMARK    5  A    between atoms: C_9  and  C_10
REMARK    6  A    between atoms: C_10  and  C_11
REMARK    7  A    between atoms: C_15  and  C_16
REMARK                            x       y       z     vdW  Elec       q    Type
REMARK                         _______ _______ _______ _____ _____    ______ ____
ROOT
ATOM      1  C   UNL     1      47.437   3.940  15.647  0.00  0.00    +0.000 C 
ENDROOT
BRANCH   1   2
ATOM      2  O   UNL     1      47.272   3.224  14.415  0.00  0.00    +0.000 OA
BRANCH   2   7
ATOM      3  C   UNL     1      44.987   3.871  11.629  0.00  0.00    +0.000 A 
ATOM      4  C   UNL     1      45.232   5.227  11.369  0.00  0.00    +0.000 A 
ATOM      5  C   UNL     1      46.181   5.926  12.106  0.00  0.00    +0.000 A 
ATOM      6  C   UNL     1      46.885   5.282  13.123  0.00  0.00    +0.000 A 
ATOM      7  C   UNL     1      46.650   3.932  13.412  0.00  0.00    +0.000 A 
ATOM      8  C   UNL     1      45.711   3.230  12.651  0.00  0.00    +0.000 A 
BRANCH   3   9
ATOM      9  C   UNL     1      43.928   3.135  10.847  0.00  0.00    +0.000 C 
BRANCH   9  10
ATOM     10  N   UNL     1      43.126   2.271  11.706  0.00  0.00    +0.000 NA
ATOM     11  H   UNL     1      43.329   1.300  11.484  0.00  0.00    +0.000 HD
ATOM     12  H   UNL     1      42.141   2.417  11.486  0.00  0.00    +0.000 HD
ENDBRANCH   9  10
ENDBRANCH   3   9
ENDBRANCH   2   7
ENDBRANCH   1   2
BRANCH   1  13
ATOM     13  C   UNL     1      47.837   3.000  16.783  0.00  0.00    +0.000 C 
BRANCH  13  14
ATOM     14  C   UNL     1      49.290   3.174  17.164  0.00  0.00    +0.000 A 
ATOM     15  C   UNL     1      49.814   4.440  17.446  0.00  0.00    +0.000 A 
ATOM     16  C   UNL     1      51.158   4.558  17.782  0.00  0.00    +0.000 A 
ATOM     17  N   UNL     1      52.016   3.517  17.849  0.00  0.00    +0.000 NA
ATOM     18  C   UNL     1      51.491   2.293  17.560  0.00  0.00    +0.000 A 
ATOM     19  C   UNL     1      50.159   2.078  17.215  0.00  0.00    +0.000 A 
BRANCH  18  20
ATOM     20  C   UNL     1      52.431   1.123  17.636  0.00  0.00    +0.000 C 
ATOM     21  N   UNL     1      51.961   0.023  18.303  0.00  0.00    +0.000 N 
ATOM     22  O   UNL     1      53.548   1.145  17.138  0.00  0.00    +0.000 OA
ATOM     23  H   UNL     1      51.023   0.031  18.686  0.00  0.00    +0.000 HD
ATOM     24  H   UNL     1      52.539  -0.802  18.370  0.00  0.00    +0.000 HD
ENDBRANCH  18  20
ENDBRANCH  13  14
ENDBRANCH   1  13
TORSDOF 7
ENDMDL
MODEL 8
REMARK VINA RESULT:    -6.084      2.466      4.006
REMARK INTER + INTRA:          -9.221
REMARK INTER:                  -8.489
REMARK INTRA:                  -0.733
REMARK UNBOUND:                -0.825
REMARK  Name = 
REMARK  7 active torsions:
REMARK  status: ('A' for Active; 'I' for Inactive)
REMARK    1  A    between atoms: N_1  and  C_2
REMARK    2  A    between atoms: C_2  and  C_3
REMARK    3  A    between atoms: C_7  and  O_8
REMARK    4  A    between atoms: O_8  and  C_9
REMARK    5  A    between atoms: C_9  and  C_10
REMARK    6  A    between atoms: C_10  and  C_11
REMARK    7  A    between atoms: C_15  and  C_16
REMARK                            x       y       z     vdW  Elec       q    Type
REMARK                         _______ _______ _______ _____ _____    ______ ____
ROOT
ATOM      1  C   UNL     1      44.799   7.283  11.039  0.00  0.00    +0.000 C 
ENDROOT
BRANCH   1   2
ATOM      2  O   UNL     1      43.664   6.479  11.386  0.00  0.00    +0.000 OA
BRANCH   2   7
ATOM      3  C   UNL     1      44.764   3.523   9.527  0.00  0.00    +0.000 A 
ATOM      4  C   UNL     1      44.158   2.488  10.253  0.00  0.00    +0.000 A 
ATOM      5  C   UNL     1      43.356   2.774  11.352  0.00  0.00    +0.000 A 
ATOM      6  C   UNL     1      43.164   4.097  11.749  0.00  0.00    +0.000 A 
ATOM      7  C   UNL     1      43.770   5.149  11.049  0.00  0.00    +0.000 A 
ATOM      8  C   UNL     1      44.556   4.855   9.932  0.00  0.00    +0.000 A 
BRANCH   3   9
ATOM      9  C   UNL     1      45.662   3.197   8.360  0.00  0.00    +0.000 C 
BRANCH   9  10
ATOM     10  N   UNL     1      46.044   4.396   7.621  0.00  0.00    +0.000 NA
ATOM     11  H   UNL     1      46.907   4.213   7.114  0.00  0.00    +0.000 HD
ATOM     12  H   UNL     1      46.253   5.136   8.289  0.00  0.00    +0.000 HD
ENDBRANCH   9  10
ENDBRANCH   3   9
ENDBRANCH   2   7
ENDBRANCH   1   2
BRANCH   1  13
ATOM     13  C   UNL     1      45.291   8.092  12.238  0.00  0.00    +0.000 C 
BRANCH  13  14
ATOM     14  C   UNL     1      46.330   7.333  13.033  0.00  0.00    +0.000 A 
ATOM     15  C   UNL     1      47.457   7.981  13.549  0.00  0.00    +0.000 A 
ATOM     16  C   UNL     1      48.395   7.245  14.265  0.00  0.00    +0.000 A 
ATOM     17  N   UNL     1      48.298   5.919  14.497  0.00  0.00    +0.000 NA
ATOM     18  C   UNL     1      47.200   5.301  13.978  0.00  0.00    +0.000 A 
ATOM     19  C   UNL     1      46.210   5.956  13.249  0.00  0.00    +0.000 A 
BRANCH  18  20
ATOM     20  C   UNL     1      47.074   3.826  14.232  0.00  0.00    +0.000 C 
ATOM     21  N   UNL     1      46.337   3.124  13.316  0.00  0.00    +0.000 N 
ATOM     22  O   UNL     1      47.592   3.279  15.196  0.00  0.00    +0.000 OA
ATOM     23  H   UNL     1      45.938   3.604  12.518  0.00  0.00    +0.000 HD
ATOM     24  H   UNL     1      46.232   2.125  13.422  0.00  0.00    +0.000 HD
ENDBRANCH  18  20
ENDBRANCH  13  14
ENDBRANCH   1  13
TORSDOF 7
ENDMDL
MODEL 9
REMARK VINA RESULT:    -6.068      2.817      6.910
REMARK INTER + INTRA:          -9.199
REMARK INTER:                  -8.776
REMARK INTRA:                  -0.423
REMARK UNBOUND:                -0.825
REMARK  Name = 
REMARK  7 active torsions:
REMARK  status: ('A' for Active; 'I' for Inactive)
REMARK    1  A    between atoms: N_1  and  C_2
REMARK    2  A    between atoms: C_2  and  C_3
REMARK    3  A    between atoms: C_7  and  O_8
REMARK    4  A    between atoms: O_8  and  C_9
REMARK    5  A    between atoms: C_9  and  C_10
REMARK    6  A    between atoms: C_10  and  C_11
REMARK    7  A    between atoms: C_15  and  C_16
REMARK                            x       y       z     vdW  Elec       q    Type
REMARK                         _______ _______ _______ _____ _____    ______ ____
ROOT
ATOM      1  C   UNL     1      45.980   5.808  10.893  0.00  0.00    +0.000 C 
ENDROOT
BRANCH   1   2
ATOM      2  O   UNL     1      45.762   5.020  12.071  0.00  0.00    +0.000 OA
BRANCH   2   7
ATOM      3  C   UNL     1      47.448   4.604  15.295  0.00  0.00    +0.000 A 
ATOM      4  C   UNL     1      48.235   5.763  15.356  0.00  0.00    +0.000 A 
ATOM      5  C   UNL     1      48.187   6.703  14.333  0.00  0.00    +0.000 A 
ATOM      6  C   UNL     1      47.364   6.487  13.228  0.00  0.00    +0.000 A 
ATOM      7  C   UNL     1      46.578   5.332  13.136  0.00  0.00    +0.000 A 
ATOM      8  C   UNL     1      46.614   4.403  14.179  0.00  0.00    +0.000 A 
BRANCH   3   9
ATOM      9  C   UNL     1      47.538   3.575  16.394  0.00  0.00    +0.000 C 
BRANCH   9  10
ATOM     10  N   UNL     1      46.774   3.973  17.571  0.00  0.00    +0.000 NA
ATOM     11  H   UNL     1      46.262   3.168  17.923  0.00  0.00    +0.000 HD
ATOM     12  H   UNL     1      46.075   4.658  17.288  0.00  0.00    +0.000 HD
ENDBRANCH   9  10
ENDBRANCH   3   9
ENDBRANCH   2   7
ENDBRANCH   1   2
BRANCH   1  13
ATOM     13  C   UNL     1      44.971   5.458   9.801  0.00  0.00    +0.000 C 
BRANCH  13  14
ATOM     14  C   UNL     1      45.242   4.093   9.209  0.00  0.00    +0.000 A 
ATOM     15  C   UNL     1      44.575   2.958   9.681  0.00  0.00    +0.000 A 
ATOM     16  C   UNL     1      44.861   1.719   9.116  0.00  0.00    +0.000 A 
ATOM     17  N   UNL     1      45.762   1.528   8.129  0.00  0.00    +0.000 NA
ATOM     18  C   UNL     1      46.410   2.643   7.689  0.00  0.00    +0.000 A 
ATOM     19  C   UNL     1      46.190   3.922   8.193  0.00  0.00    +0.000 A 
BRANCH  18  20
ATOM     20  C   UNL     1      47.412   2.448   6.586  0.00  0.00    +0.000 C 
ATOM     21  N   UNL     1      47.281   3.281   5.508  0.00  0.00    +0.000 N 
ATOM     22  O   UNL     1      48.292   1.599   6.640  0.00  0.00    +0.000 OA
ATOM     23  H   UNL     1      46.554   3.987   5.504  0.00  0.00    +0.000 HD
ATOM     24  H   UNL     1      47.937   3.212   4.743  0.00  0.00    +0.000 HD
ENDBRANCH  18  20
ENDBRANCH  13  14
ENDBRANCH   1  13
TORSDOF 7
ENDMDL
