MODEL 1
REMARK VINA RESULT:    -8.791      0.000      0.000
REMARK INTER + INTRA:         -13.441
REMARK INTER:                 -12.388
REMARK INTRA:                  -1.053
REMARK UNBOUND:                -1.053
REMARK  Name = 
REMARK  7 active torsions:
REMARK  status: ('A' for Active; 'I' for Inactive)
REMARK    1  A    between atoms: C_2  and  C_4
REMARK    2  A    between atoms: C_7  and  N_8
REMARK    3  A    between atoms: N_8  and  C_9
REMARK    4  A    between atoms: C_9  and  C_10
REMARK    5  A    between atoms: C_10  and  C_13
REMARK    6  A    between atoms: C_17  and  O_18
REMARK    7  A    between atoms: O_18  and  C_19
REMARK                            x       y       z     vdW  Elec       q    Type
REMARK                         _______ _______ _______ _____ _____    ______ ____
ROOT
ATOM      1  C   UNL     1      43.398   4.508  11.020  0.00  0.00    +0.000 C 
ENDROOT
BRANCH   1   2
ATOM      2  C   UNL     1      43.770   4.686  12.515  0.00  0.00    +0.000 C 
ATOM      3  F   UNL     1      42.870   5.527  13.105  0.00  0.00    +0.000 F 
ATOM      4  F   UNL     1      43.603   3.481  13.142  0.00  0.00    +0.000 F 
BRANCH   2   5
ATOM      5  C   UNL     1      45.191   5.200  12.629  0.00  0.00    +0.000 A 
ATOM      6  C   UNL     1      45.710   6.092  11.682  0.00  0.00    +0.000 A 
ATOM      7  C   UNL     1      46.989   6.627  11.844  0.00  0.00    +0.000 A 
ATOM      8  C   UNL     1      47.770   6.275  12.951  0.00  0.00    +0.000 A 
ATOM      9  C   UNL     1      47.272   5.371  13.886  0.00  0.00    +0.000 A 
ATOM     10  C   UNL     1      45.988   4.841  13.727  0.00  0.00    +0.000 A 
BRANCH   9  11
ATOM     11  O   UNL     1      47.923   4.969  15.024  0.00  0.00    +0.000 OA
BRANCH  11  12
ATOM     12  C   UNL     1      47.245   4.094  15.953  0.00  0.00    +0.000 C 
ATOM     13  C   UNL     1      47.205   4.493  17.433  0.00  0.00    +0.000 C 
ATOM     14  O   UNL     1      47.862   3.270  17.839  0.00  0.00    +0.000 OA
ATOM     15  C   UNL     1      48.090   2.913  16.458  0.00  0.00    +0.000 C 
ENDBRANCH  11  12
ENDBRANCH   9  11
ENDBRANCH   2   5
ENDBRANCH   1   2
BRANCH   1  16
ATOM     16  N   UNL     1      43.764   3.189  10.479  0.00  0.00    +0.000 N 
ATOM     17  H   UNL     1      43.761   2.436  11.166  0.00  0.00    +0.000 HD
BRANCH  16  21
ATOM     18  C   UNL     1      46.577   2.623   7.389  0.00  0.00    +0.000 A 
ATOM     19  C   UNL     1      46.102   3.908   7.657  0.00  0.00    +0.000 A 
ATOM     20  C   UNL     1      45.181   4.113   8.691  0.00  0.00    +0.000 A 
ATOM     21  C   UNL     1      44.739   3.055   9.496  0.00  0.00    +0.000 A 
ATOM     22  C   UNL     1      45.212   1.769   9.198  0.00  0.00    +0.000 A 
ATOM     23  C   UNL     1      46.115   1.549   8.152  0.00  0.00    +0.000 A 
BRANCH  18  25
ATOM     24  N   UNL     1      47.523   3.229   5.231  0.00  0.00    +0.000 N 
ATOM     25  C   UNL     1      47.537   2.356   6.286  0.00  0.00    +0.000 C 
ATOM     26  O   UNL     1      48.330   1.430   6.329  0.00  0.00    +0.000 OA
ATOM     27  H   UNL     1      48.256   3.106   4.545  0.00  0.00    +0.000 HD
ATOM     28  H   UNL     1      47.078   4.135   5.284  0.00  0.00    +0.000 HD
ENDBRANCH  18  25
ENDBRANCH  16  21
ENDBRANCH   1  16
TORSDOF 7
ENDMDL
MODEL 2
REMARK VINA RESULT:    -7.805      2.131      3.481
REMARK INTER + INTRA:         -12.053
REMARK INTER:                 -11.079
REMARK INTRA:                  -0.974
REMARK UNBOUND:                -1.053
REMARK  Name = 
REMARK  7 active torsions:
REMARK  status: ('A' for Active; 'I' for Inactive)
REMARK    1  A    between atoms: C_2  and  C_4
REMARK    2  A    between atoms: C_7  and  N_8
REMARK    3  A    between atoms: N_8  and  C_9
REMARK    4  A    between atoms: C_9  and  C_10
REMARK    5  A    between atoms: C_10  and  C_13
REMARK    6  A    between atoms: C_17  and  O_18
REMARK    7  A    between atoms: O_18  and  C_19
REMARK                            x       y       z     vdW  Elec       q    Type
REMARK                         _______ _______ _______ _____ _____    ______ ____
ROOT
ATOM      1  C   UNL     1      43.272   4.585  11.159  0.00  0.00    +0.000 C 
ENDROOT
BRANCH   1   2
ATOM      2  C   UNL     1      43.552   4.700  12.681  0.00  0.00    +0.000 C 
ATOM      3  F   UNL     1      42.622   5.523  13.249  0.00  0.00    +0.000 F 
ATOM      4  F   UNL     1      43.340   3.471  13.246  0.00  0.00    +0.000 F 
BRANCH   2   5
ATOM      5  C   UNL     1      44.966   5.197  12.904  0.00  0.00    +0.000 A 
ATOM      6  C   UNL     1      45.890   4.433  13.628  0.00  0.00    +0.000 A 
ATOM      7  C   UNL     1      47.213   4.859  13.753  0.00  0.00    +0.000 A 
ATOM      8  C   UNL     1      47.631   6.056  13.161  0.00  0.00    +0.000 A 
ATOM      9  C   UNL     1      46.715   6.835  12.460  0.00  0.00    +0.000 A 
ATOM     10  C   UNL     1      45.391   6.404  12.328  0.00  0.00    +0.000 A 
BRANCH   9  11
ATOM     11  O   UNL     1      47.005   8.009  11.811  0.00  0.00    +0.000 OA
BRANCH  11  12
ATOM     12  C   UNL     1      47.324   9.184  12.589  0.00  0.00    +0.000 C 
ATOM     13  C   UNL     1      46.976  10.560  12.007  0.00  0.00    +0.000 C 
ATOM     14  O   UNL     1      48.353  10.997  12.069  0.00  0.00    +0.000 OA
ATOM     15  C   UNL     1      48.776   9.669  12.454  0.00  0.00    +0.000 C 
ENDBRANCH  11  12
ENDBRANCH   9  11
ENDBRANCH   2   5
ENDBRANCH   1   2
BRANCH   1  16
ATOM     16  N   UNL     1      43.619   3.269  10.598  0.00  0.00    +0.000 N 
ATOM     17  H   UNL     1      43.575   2.501  11.266  0.00  0.00    +0.000 HD
BRANCH  16  21
ATOM     18  C   UNL     1      46.506   2.706   7.576  0.00  0.00    +0.000 A 
ATOM     19  C   UNL     1      46.098   4.001   7.902  0.00  0.00    +0.000 A 
ATOM     20  C   UNL     1      45.153   4.204   8.915  0.00  0.00    +0.000 A 
ATOM     21  C   UNL     1      44.621   3.132   9.642  0.00  0.00    +0.000 A 
ATOM     22  C   UNL     1      45.028   1.838   9.286  0.00  0.00    +0.000 A 
ATOM     23  C   UNL     1      45.955   1.622   8.261  0.00  0.00    +0.000 A 
BRANCH  18  25
ATOM     24  N   UNL     1      47.437   3.266   5.399  0.00  0.00    +0.000 N 
ATOM     25  C   UNL     1      47.489   2.444   6.493  0.00  0.00    +0.000 C 
ATOM     26  O   UNL     1      48.331   1.566   6.583  0.00  0.00    +0.000 OA
ATOM     27  H   UNL     1      48.181   3.154   4.724  0.00  0.00    +0.000 HD
ATOM     28  H   UNL     1      46.942   4.148   5.409  0.00  0.00    +0.000 HD
ENDBRANCH  18  25
ENDBRANCH  16  21
ENDBRANCH   1  16
TORSDOF 7
ENDMDL
MODEL 3
REMARK VINA RESULT:    -7.777      1.649      2.086
REMARK INTER + INTRA:         -12.013
REMARK INTER:                 -11.021
REMARK INTRA:                  -0.993
REMARK UNBOUND:                -1.053
REMARK  Name = 
REMARK  7 active torsions:
REMARK  status: ('A' for Active; 'I' for Inactive)
REMARK    1  A    between atoms: C_2  and  C_4
REMARK    2  A    between atoms: C_7  and  N_8
REMARK    3  A    between atoms: N_8  and  C_9
REMARK    4  A    between atoms: C_9  and  C_10
REMARK    5  A    between atoms: C_10  and  C_13
REMARK    6  A    between atoms: C_17  and  O_18
REMARK    7  A    between atoms: O_18  and  C_19
REMARK                            x       y       z     vdW  Elec       q    Type
REMARK                         _______ _______ _______ _____ _____    ______ ____
ROOT
ATOM      1  C   UNL     1      44.403   3.786  11.884  0.00  0.00    +0.000 C 
ENDROOT
BRANCH   1   2
ATOM      2  C   UNL     1      44.391   5.305  12.196  0.00  0.00    +0.000 C 
ATOM      3  F   UNL     1      43.781   5.971  11.172  0.00  0.00    +0.000 F 
ATOM      4  F   UNL     1      43.591   5.509  13.288  0.00  0.00    +0.000 F 
BRANCH   2   5
ATOM      5  C   UNL     1      45.809   5.789  12.426  0.00  0.00    +0.000 A 
ATOM      6  C   UNL     1      46.456   6.592  11.478  0.00  0.00    +0.000 A 
ATOM      7  C   UNL     1      47.727   7.105  11.738  0.00  0.00    +0.000 A 
ATOM      8  C   UNL     1      48.374   6.819  12.946  0.00  0.00    +0.000 A 
ATOM      9  C   UNL     1      47.749   6.002  13.885  0.00  0.00    +0.000 A 
ATOM     10  C   UNL     1      46.472   5.495  13.627  0.00  0.00    +0.000 A 
BRANCH   9  11
ATOM     11  O   UNL     1      48.261   5.673  15.114  0.00  0.00    +0.000 OA
BRANCH  11  12
ATOM     12  C   UNL     1      49.229   6.550  15.733  0.00  0.00    +0.000 C 
ATOM     13  C   UNL     1      50.113   5.985  16.852  0.00  0.00    +0.000 C 
ATOM     14  O   UNL     1      49.647   6.975  17.797  0.00  0.00    +0.000 OA
ATOM     15  C   UNL     1      48.665   7.446  16.847  0.00  0.00    +0.000 C 
ENDBRANCH  11  12
ENDBRANCH   9  11
ENDBRANCH   2   5
ENDBRANCH   1   2
BRANCH   1  16
ATOM     16  N   UNL     1      43.833   3.455  10.567  0.00  0.00    +0.000 N 
ATOM     17  H   UNL     1      42.987   2.888  10.605  0.00  0.00    +0.000 HD
BRANCH  16  21
ATOM     18  C   UNL     1      46.474   2.778   7.349  0.00  0.00    +0.000 A 
ATOM     19  C   UNL     1      46.001   1.692   8.089  0.00  0.00    +0.000 A 
ATOM     20  C   UNL     1      45.110   1.900   9.149  0.00  0.00    +0.000 A 
ATOM     21  C   UNL     1      44.649   3.182   9.474  0.00  0.00    +0.000 A 
ATOM     22  C   UNL     1      45.152   4.262   8.733  0.00  0.00    +0.000 A 
ATOM     23  C   UNL     1      46.059   4.068   7.687  0.00  0.00    +0.000 A 
BRANCH  18  25
ATOM     24  N   UNL     1      48.672   2.108   6.553  0.00  0.00    +0.000 N 
ATOM     25  C   UNL     1      47.438   2.605   6.232  0.00  0.00    +0.000 C 
ATOM     26  O   UNL     1      47.139   2.854   5.075  0.00  0.00    +0.000 OA
ATOM     27  H   UNL     1      49.277   1.886   5.773  0.00  0.00    +0.000 HD
ATOM     28  H   UNL     1      48.859   1.651   7.436  0.00  0.00    +0.000 HD
ENDBRANCH  18  25
ENDBRANCH  16  21
ENDBRANCH   1  16
TORSDOF 7
ENDMDL
MODEL 4
REMARK VINA RESULT:    -7.710      2.043      2.968
REMARK INTER + INTRA:         -11.919
REMARK INTER:                 -10.785
REMARK INTRA:                  -1.134
REMARK UNBOUND:                -1.053
REMARK  Name = 
REMARK  7 active torsions:
REMARK  status: ('A' for Active; 'I' for Inactive)
REMARK    1  A    between atoms: C_2  and  C_4
REMARK    2  A    between atoms: C_7  and  N_8
REMARK    3  A    between atoms: N_8  and  C_9
REMARK    4  A    between atoms: C_9  and  C_10
REMARK    5  A    between atoms: C_10  and  C_13
REMARK    6  A    between atoms: C_17  and  O_18
REMARK    7  A    between atoms: O_18  and  C_19
REMARK                            x       y       z     vdW  Elec       q    Type
REMARK                         _______ _______ _______ _____ _____    ______ ____
ROOT
ATOM      1  C   UNL     1      43.663   5.197  11.055  0.00  0.00    +0.000 C 
ENDROOT
BRANCH   1   2
ATOM      2  C   UNL     1      44.761   6.140  11.614  0.00  0.00    +0.000 C 
ATOM      3  F   UNL     1      45.460   6.683  10.575  0.00  0.00    +0.000 F 
ATOM      4  F   UNL     1      44.142   7.197  12.225  0.00  0.00    +0.000 F 
BRANCH   2   5
ATOM      5  C   UNL     1      45.657   5.372  12.565  0.00  0.00    +0.000 A 
ATOM      6  C   UNL     1      45.499   3.992  12.743  0.00  0.00    +0.000 A 
ATOM      7  C   UNL     1      46.384   3.280  13.553  0.00  0.00    +0.000 A 
ATOM      8  C   UNL     1      47.437   3.937  14.202  0.00  0.00    +0.000 A 
ATOM      9  C   UNL     1      47.587   5.312  14.051  0.00  0.00    +0.000 A 
ATOM     10  C   UNL     1      46.704   6.024  13.233  0.00  0.00    +0.000 A 
BRANCH   9  11
ATOM     11  O   UNL     1      48.590   6.066  14.607  0.00  0.00    +0.000 OA
BRANCH  11  12
ATOM     12  C   UNL     1      48.630   7.487  14.350  0.00  0.00    +0.000 C 
ATOM     13  C   UNL     1      49.991   8.142  14.087  0.00  0.00    +0.000 C 
ATOM     14  O   UNL     1      49.832   9.053  15.199  0.00  0.00    +0.000 OA
ATOM     15  C   UNL     1      48.626   8.369  15.609  0.00  0.00    +0.000 C 
ENDBRANCH  11  12
ENDBRANCH   9  11
ENDBRANCH   2   5
ENDBRANCH   1   2
BRANCH   1  16
ATOM     16  N   UNL     1      43.765   4.977   9.603  0.00  0.00    +0.000 N 
ATOM     17  H   UNL     1      42.876   5.021   9.107  0.00  0.00    +0.000 HD
BRANCH  16  21
ATOM     18  C   UNL     1      46.301   2.062   7.912  0.00  0.00    +0.000 A 
ATOM     19  C   UNL     1      46.457   3.401   7.549  0.00  0.00    +0.000 A 
ATOM     20  C   UNL     1      45.634   4.382   8.115  0.00  0.00    +0.000 A 
ATOM     21  C   UNL     1      44.665   4.057   9.072  0.00  0.00    +0.000 A 
ATOM     22  C   UNL     1      44.508   2.704   9.409  0.00  0.00    +0.000 A 
ATOM     23  C   UNL     1      45.311   1.713   8.832  0.00  0.00    +0.000 A 
BRANCH  18  25
ATOM     24  N   UNL     1      46.819  -0.301   7.656  0.00  0.00    +0.000 N 
ATOM     25  C   UNL     1      47.137   0.987   7.318  0.00  0.00    +0.000 C 
ATOM     26  O   UNL     1      48.041   1.229   6.534  0.00  0.00    +0.000 OA
ATOM     27  H   UNL     1      47.317  -1.027   7.158  0.00  0.00    +0.000 HD
ATOM     28  H   UNL     1      45.933  -0.546   8.078  0.00  0.00    +0.000 HD
ENDBRANCH  18  25
ENDBRANCH  16  21
ENDBRANCH   1  16
TORSDOF 7
ENDMDL
MODEL 5
REMARK VINA RESULT:    -7.032      2.719      8.126
REMARK INTER + INTRA:         -10.964
REMARK INTER:                 -10.416
REMARK INTRA:                  -0.548
REMARK UNBOUND:                -1.053
REMARK  Name = 
REMARK  7 active torsions:
REMARK  status: ('A' for Active; 'I' for Inactive)
REMARK    1  A    between atoms: C_2  and  C_4
REMARK    2  A    between atoms: C_7  and  N_8
REMARK    3  A    between atoms: N_8  and  C_9
REMARK    4  A    between atoms: C_9  and  C_10
REMARK    5  A    between atoms: C_10  and  C_13
REMARK    6  A    between atoms: C_17  and  O_18
REMARK    7  A    between atoms: O_18  and  C_19
REMARK                            x       y       z     vdW  Elec       q    Type
REMARK                         _______ _______ _______ _____ _____    ______ ____
ROOT
ATOM      1  C   UNL     1      45.472   5.696  12.891  0.00  0.00    +0.000 C 
ENDROOT
BRANCH   1   2
ATOM      2  C   UNL     1      45.153   6.090  11.426  0.00  0.00    +0.000 C 
ATOM      3  F   UNL     1      44.009   6.835  11.399  0.00  0.00    +0.000 F 
ATOM      4  F   UNL     1      46.141   6.929  10.985  0.00  0.00    +0.000 F 
BRANCH   2   5
ATOM      5  C   UNL     1      45.039   4.841  10.575  0.00  0.00    +0.000 A 
ATOM      6  C   UNL     1      44.272   3.749  11.001  0.00  0.00    +0.000 A 
ATOM      7  C   UNL     1      44.103   2.640  10.172  0.00  0.00    +0.000 A 
ATOM      8  C   UNL     1      44.702   2.602   8.907  0.00  0.00    +0.000 A 
ATOM      9  C   UNL     1      45.486   3.671   8.485  0.00  0.00    +0.000 A 
ATOM     10  C   UNL     1      45.649   4.786   9.313  0.00  0.00    +0.000 A 
BRANCH   9  11
ATOM     11  O   UNL     1      46.101   3.769   7.262  0.00  0.00    +0.000 OA
BRANCH  11  12
ATOM     12  C   UNL     1      46.414   2.561   6.532  0.00  0.00    +0.000 C 
ATOM     13  C   UNL     1      47.542   1.665   7.057  0.00  0.00    +0.000 C 
ATOM     14  O   UNL     1      48.282   1.775   5.819  0.00  0.00    +0.000 OA
ATOM     15  C   UNL     1      47.348   2.762   5.328  0.00  0.00    +0.000 C 
ENDBRANCH  11  12
ENDBRANCH   9  11
ENDBRANCH   2   5
ENDBRANCH   1   2
BRANCH   1  16
ATOM     16  N   UNL     1      46.914   5.678  13.192  0.00  0.00    +0.000 N 
ATOM     17  H   UNL     1      47.494   5.290  12.450  0.00  0.00    +0.000 HD
BRANCH  16  21
ATOM     18  C   UNL     1      48.417   4.659  16.998  0.00  0.00    +0.000 A 
ATOM     19  C   UNL     1      48.819   5.855  16.399  0.00  0.00    +0.000 A 
ATOM     20  C   UNL     1      48.315   6.215  15.143  0.00  0.00    +0.000 A 
ATOM     21  C   UNL     1      47.381   5.412  14.475  0.00  0.00    +0.000 A 
ATOM     22  C   UNL     1      47.006   4.205  15.083  0.00  0.00    +0.000 A 
ATOM     23  C   UNL     1      47.521   3.825  16.327  0.00  0.00    +0.000 A 
BRANCH  18  25
ATOM     24  N   UNL     1      48.277   3.214  18.950  0.00  0.00    +0.000 N 
ATOM     25  C   UNL     1      48.945   4.228  18.318  0.00  0.00    +0.000 C 
ATOM     26  O   UNL     1      49.950   4.721  18.805  0.00  0.00    +0.000 OA
ATOM     27  H   UNL     1      48.711   2.851  19.788  0.00  0.00    +0.000 HD
ATOM     28  H   UNL     1      47.619   2.618  18.467  0.00  0.00    +0.000 HD
ENDBRANCH  18  25
ENDBRANCH  16  21
ENDBRANCH   1  16
TORSDOF 7
ENDMDL
MODEL 6
REMARK VINA RESULT:    -6.485      3.982      7.354
REMARK INTER + INTRA:         -10.193
REMARK INTER:                  -9.498
REMARK INTRA:                  -0.695
REMARK UNBOUND:                -1.053
REMARK  Name = 
REMARK  7 active torsions:
REMARK  status: ('A' for Active; 'I' for Inactive)
REMARK    1  A    between atoms: C_2  and  C_4
REMARK    2  A    between atoms: C_7  and  N_8
REMARK    3  A    between atoms: N_8  and  C_9
REMARK    4  A    between atoms: C_9  and  C_10
REMARK    5  A    between atoms: C_10  and  C_13
REMARK    6  A    between atoms: C_17  and  O_18
REMARK    7  A    between atoms: O_18  and  C_19
REMARK                            x       y       z     vdW  Elec       q    Type
REMARK                         _______ _______ _______ _____ _____    ______ ____
ROOT
ATOM      1  C   UNL     1      45.799   5.705  12.568  0.00  0.00    +0.000 C 
ENDROOT
BRANCH   1   2
ATOM      2  C   UNL     1      44.903   5.892  11.316  0.00  0.00    +0.000 C 
ATOM      3  F   UNL     1      43.672   6.336  11.705  0.00  0.00    +0.000 F 
ATOM      4  F   UNL     1      45.432   6.906  10.563  0.00  0.00    +0.000 F 
BRANCH   2   5
ATOM      5  C   UNL     1      44.822   4.589  10.547  0.00  0.00    +0.000 A 
ATOM      6  C   UNL     1      44.217   3.458  11.112  0.00  0.00    +0.000 A 
ATOM      7  C   UNL     1      44.070   2.290  10.364  0.00  0.00    +0.000 A 
ATOM      8  C   UNL     1      44.529   2.230   9.043  0.00  0.00    +0.000 A 
ATOM      9  C   UNL     1      45.154   3.340   8.481  0.00  0.00    +0.000 A 
ATOM     10  C   UNL     1      45.295   4.513   9.228  0.00  0.00    +0.000 A 
BRANCH   9  11
ATOM     11  O   UNL     1      45.620   3.419   7.193  0.00  0.00    +0.000 OA
BRANCH  11  12
ATOM     12  C   UNL     1      47.020   3.171   6.933  0.00  0.00    +0.000 C 
ATOM     13  C   UNL     1      47.435   2.755   5.516  0.00  0.00    +0.000 C 
ATOM     14  O   UNL     1      48.021   1.520   5.990  0.00  0.00    +0.000 OA
ATOM     15  C   UNL     1      47.507   1.765   7.318  0.00  0.00    +0.000 C 
ENDBRANCH  11  12
ENDBRANCH   9  11
ENDBRANCH   2   5
ENDBRANCH   1   2
BRANCH   1  16
ATOM     16  N   UNL     1      46.164   6.973  13.221  0.00  0.00    +0.000 N 
ATOM     17  H   UNL     1      45.371   7.544  13.507  0.00  0.00    +0.000 HD
BRANCH  16  21
ATOM     18  C   UNL     1      49.506   9.082  11.748  0.00  0.00    +0.000 A 
ATOM     19  C   UNL     1      48.398   9.792  12.214  0.00  0.00    +0.000 A 
ATOM     20  C   UNL     1      47.288   9.105  12.722  0.00  0.00    +0.000 A 
ATOM     21  C   UNL     1      47.271   7.707  12.806  0.00  0.00    +0.000 A 
ATOM     22  C   UNL     1      48.384   7.011  12.313  0.00  0.00    +0.000 A 
ATOM     23  C   UNL     1      49.489   7.686  11.783  0.00  0.00    +0.000 A 
BRANCH  18  25
ATOM     24  N   UNL     1      51.918   9.229  11.468  0.00  0.00    +0.000 N 
ATOM     25  C   UNL     1      50.694   9.769  11.179  0.00  0.00    +0.000 C 
ATOM     26  O   UNL     1      50.590  10.746  10.454  0.00  0.00    +0.000 OA
ATOM     27  H   UNL     1      52.708   9.633  10.983  0.00  0.00    +0.000 HD
ATOM     28  H   UNL     1      52.022   8.291  11.833  0.00  0.00    +0.000 HD
ENDBRANCH  18  25
ENDBRANCH  16  21
ENDBRANCH   1  16
TORSDOF 7
ENDMDL
MODEL 7
REMARK VINA RESULT:    -6.363      3.454      4.931
REMARK INTER + INTRA:         -10.020
REMARK INTER:                  -8.865
REMARK INTRA:                  -1.155
REMARK UNBOUND:                -1.053
REMARK  Name = 
REMARK  7 active torsions:
REMARK  status: ('A' for Active; 'I' for Inactive)
REMARK    1  A    between atoms: C_2  and  C_4
REMARK    2  A    between atoms: C_7  and  N_8
REMARK    3  A    between atoms: N_8  and  C_9
REMARK    4  A    between atoms: C_9  and  C_10
REMARK    5  A    between atoms: C_10  and  C_13
REMARK    6  A    between atoms: C_17  and  O_18
REMARK    7  A    between atoms: O_18  and  C_19
REMARK                            x       y       z     vdW  Elec       q    Type
REMARK                         _______ _______ _______ _____ _____    ______ ____
ROOT
ATOM      1  C   UNL     1      47.019   8.624  12.628  0.00  0.00    +0.000 C 
ENDROOT
BRANCH   1   2
ATOM      2  C   UNL     1      48.466   8.133  12.893  0.00  0.00    +0.000 C 
ATOM      3  F   UNL     1      48.704   7.013  12.149  0.00  0.00    +0.000 F 
ATOM      4  F   UNL     1      49.331   9.077  12.409  0.00  0.00    +0.000 F 
BRANCH   2   5
ATOM      5  C   UNL     1      48.658   7.885  14.375  0.00  0.00    +0.000 A 
ATOM      6  C   UNL     1      48.518   8.927  15.301  0.00  0.00    +0.000 A 
ATOM      7  C   UNL     1      48.610   8.671  16.670  0.00  0.00    +0.000 A 
ATOM      8  C   UNL     1      48.848   7.372  17.134  0.00  0.00    +0.000 A 
ATOM      9  C   UNL     1      49.012   6.334  16.221  0.00  0.00    +0.000 A 
ATOM     10  C   UNL     1      48.913   6.589  14.850  0.00  0.00    +0.000 A 
BRANCH   9  11
ATOM     11  O   UNL     1      49.220   5.017  16.547  0.00  0.00    +0.000 OA
BRANCH  11  12
ATOM     12  C   UNL     1      48.355   4.386  17.518  0.00  0.00    +0.000 C 
ATOM     13  C   UNL     1      48.277   2.854  17.537  0.00  0.00    +0.000 C 
ATOM     14  O   UNL     1      46.850   2.868  17.307  0.00  0.00    +0.000 OA
ATOM     15  C   UNL     1      46.878   4.298  17.102  0.00  0.00    +0.000 C 
ENDBRANCH  11  12
ENDBRANCH   9  11
ENDBRANCH   2   5
ENDBRANCH   1   2
BRANCH   1  16
ATOM     16  N   UNL     1      45.990   7.782  13.259  0.00  0.00    +0.000 N 
ATOM     17  H   UNL     1      46.062   7.717  14.273  0.00  0.00    +0.000 HD
BRANCH  16  21
ATOM     18  C   UNL     1      44.478   4.208  11.607  0.00  0.00    +0.000 A 
ATOM     19  C   UNL     1      44.297   5.411  10.922  0.00  0.00    +0.000 A 
ATOM     20  C   UNL     1      44.809   6.603  11.450  0.00  0.00    +0.000 A 
ATOM     21  C   UNL     1      45.534   6.618  12.648  0.00  0.00    +0.000 A 
ATOM     22  C   UNL     1      45.687   5.403  13.332  0.00  0.00    +0.000 A 
ATOM     23  C   UNL     1      45.161   4.210  12.825  0.00  0.00    +0.000 A 
BRANCH  18  25
ATOM     24  N   UNL     1      44.622   2.321  10.079  0.00  0.00    +0.000 N 
ATOM     25  C   UNL     1      43.932   2.925  11.095  0.00  0.00    +0.000 C 
ATOM     26  O   UNL     1      42.938   2.406  11.579  0.00  0.00    +0.000 OA
ATOM     27  H   UNL     1      44.308   1.395   9.819  0.00  0.00    +0.000 HD
ATOM     28  H   UNL     1      45.570   2.578   9.842  0.00  0.00    +0.000 HD
ENDBRANCH  18  25
ENDBRANCH  16  21
ENDBRANCH   1  16
TORSDOF 7
ENDMDL
MODEL 8
REMARK VINA RESULT:    -6.206      3.565      5.424
REMARK INTER + INTRA:          -9.799
REMARK INTER:                  -9.310
REMARK INTRA:                  -0.489
REMARK UNBOUND:                -1.053
REMARK  Name = 
REMARK  7 active torsions:
REMARK  status: ('A' for Active; 'I' for Inactive)
REMARK    1  A    between atoms: C_2  and  C_4
REMARK    2  A    between atoms: C_7  and  N_8
REMARK    3  A    between atoms: N_8  and  C_9
REMARK    4  A    between atoms: C_9  and  C_10
REMARK    5  A    between atoms: C_10  and  C_13
REMARK    6  A    between atoms: C_17  and  O_18
REMARK    7  A    between atoms: O_18  and  C_19
REMARK                            x       y       z     vdW  Elec       q    Type
REMARK                         _______ _______ _______ _____ _____    ______ ____
ROOT
ATOM      1  C   UNL     1      48.598   7.109  13.690  0.00  0.00    +0.000 C 
ENDROOT
BRANCH   1   2
ATOM      2  C   UNL     1      49.160   7.860  14.925  0.00  0.00    +0.000 C 
ATOM      3  F   UNL     1      49.938   8.900  14.504  0.00  0.00    +0.000 F 
ATOM      4  F   UNL     1      48.110   8.439  15.586  0.00  0.00    +0.000 F 
BRANCH   2   5
ATOM      5  C   UNL     1      49.928   6.893  15.804  0.00  0.00    +0.000 A 
ATOM      6  C   UNL     1      51.325   6.949  15.883  0.00  0.00    +0.000 A 
ATOM      7  C   UNL     1      52.016   6.113  16.760  0.00  0.00    +0.000 A 
ATOM      8  C   UNL     1      51.322   5.204  17.568  0.00  0.00    +0.000 A 
ATOM      9  C   UNL     1      49.935   5.124  17.479  0.00  0.00    +0.000 A 
ATOM     10  C   UNL     1      49.243   5.967  16.605  0.00  0.00    +0.000 A 
BRANCH   9  11
ATOM     11  O   UNL     1      49.139   4.300  18.234  0.00  0.00    +0.000 OA
BRANCH  11  12
ATOM     12  C   UNL     1      48.982   2.918  17.842  0.00  0.00    +0.000 C 
ATOM     13  C   UNL     1      50.166   2.211  17.172  0.00  0.00    +0.000 C 
ATOM     14  O   UNL     1      49.391   1.911  15.989  0.00  0.00    +0.000 OA
ATOM     15  C   UNL     1      48.293   2.710  16.484  0.00  0.00    +0.000 C 
ENDBRANCH  11  12
ENDBRANCH   9  11
ENDBRANCH   2   5
ENDBRANCH   1   2
BRANCH   1  16
ATOM     16  N   UNL     1      47.129   7.010  13.684  0.00  0.00    +0.000 N 
ATOM     17  H   UNL     1      46.690   7.205  14.582  0.00  0.00    +0.000 HD
BRANCH  16  21
ATOM     18  C   UNL     1      44.978   4.052  11.584  0.00  0.00    +0.000 A 
ATOM     19  C   UNL     1      45.208   5.290  10.981  0.00  0.00    +0.000 A 
ATOM     20  C   UNL     1      45.936   6.276  11.660  0.00  0.00    +0.000 A 
ATOM     21  C   UNL     1      46.473   6.040  12.932  0.00  0.00    +0.000 A 
ATOM     22  C   UNL     1      46.213   4.798  13.529  0.00  0.00    +0.000 A 
ATOM     23  C   UNL     1      45.468   3.815  12.869  0.00  0.00    +0.000 A 
BRANCH  18  25
ATOM     24  N   UNL     1      44.799   2.333   9.872  0.00  0.00    +0.000 N 
ATOM     25  C   UNL     1      44.191   2.988  10.909  0.00  0.00    +0.000 C 
ATOM     26  O   UNL     1      43.071   2.678  11.282  0.00  0.00    +0.000 OA
ATOM     27  H   UNL     1      44.302   1.536   9.498  0.00  0.00    +0.000 HD
ATOM     28  H   UNL     1      45.797   2.379   9.715  0.00  0.00    +0.000 HD
ENDBRANCH  18  25
ENDBRANCH  16  21
ENDBRANCH   1  16
TORSDOF 7
ENDMDL
MODEL 9
REMARK VINA RESULT:    -6.129      4.257      7.786
REMARK INTER + INTRA:          -9.691
REMARK INTER:                  -8.747
REMARK INTRA:                  -0.944
REMARK UNBOUND:                -1.053
REMARK  Name = 
REMARK  7 active torsions:
REMARK  status: ('A' for Active; 'I' for Inactive)
REMARK    1  A    between atoms: C_2  and  C_4
REMARK    2  A    between atoms: C_7  and  N_8
REMARK    3  A    between atoms: N_8  and  C_9
REMARK    4  A    between atoms: C_9  and  C_10
REMARK    5  A    between atoms: C_10  and  C_13
REMARK    6  A    between atoms: C_17  and  O_18
REMARK    7  A    between atoms: O_18  and  C_19
REMARK                            x       y       z     vdW  Elec       q    Type
REMARK                         _______ _______ _______ _____ _____    ______ ____
ROOT
ATOM      1  C   UNL     1      49.195   8.633  13.849  0.00  0.00    +0.000 C 
ENDROOT
BRANCH   1   2
ATOM      2  C   UNL     1      48.939   8.319  12.352  0.00  0.00    +0.000 C 
ATOM      3  F   UNL     1      49.350   9.377  11.593  0.00  0.00    +0.000 F 
ATOM      4  F   UNL     1      49.752   7.278  11.991  0.00  0.00    +0.000 F 
BRANCH   2   5
ATOM      5  C   UNL     1      47.473   8.001  12.141  0.00  0.00    +0.000 A 
ATOM      6  C   UNL     1      46.508   9.017  12.158  0.00  0.00    +0.000 A 
ATOM      7  C   UNL     1      45.173   8.726  11.876  0.00  0.00    +0.000 A 
ATOM      8  C   UNL     1      44.780   7.416  11.578  0.00  0.00    +0.000 A 
ATOM      9  C   UNL     1      45.727   6.395  11.582  0.00  0.00    +0.000 A 
ATOM     10  C   UNL     1      47.066   6.688  11.857  0.00  0.00    +0.000 A 
BRANCH   9  11
ATOM     11  O   UNL     1      45.476   5.081  11.279  0.00  0.00    +0.000 OA
BRANCH  11  12
ATOM     12  C   UNL     1      44.118   4.665  11.011  0.00  0.00    +0.000 C 
ATOM     13  C   UNL     1      43.322   4.004  12.143  0.00  0.00    +0.000 C 
ATOM     14  O   UNL     1      43.105   2.804  11.365  0.00  0.00    +0.000 OA
ATOM     15  C   UNL     1      43.988   3.293  10.331  0.00  0.00    +0.000 C 
ENDBRANCH  11  12
ENDBRANCH   9  11
ENDBRANCH   2   5
ENDBRANCH   1   2
BRANCH   1  16
ATOM     16  N   UNL     1      50.025   7.623  14.526  0.00  0.00    +0.000 N 
ATOM     17  H   UNL     1      50.788   7.256  13.959  0.00  0.00    +0.000 HD
BRANCH  16  21
ATOM     18  C   UNL     1      48.324   4.639  16.973  0.00  0.00    +0.000 A 
ATOM     19  C   UNL     1      49.524   5.239  17.357  0.00  0.00    +0.000 A 
ATOM     20  C   UNL     1      50.091   6.244  16.564  0.00  0.00    +0.000 A 
ATOM     21  C   UNL     1      49.464   6.691  15.394  0.00  0.00    +0.000 A 
ATOM     22  C   UNL     1      48.270   6.061  15.013  0.00  0.00    +0.000 A 
ATOM     23  C   UNL     1      47.706   5.041  15.787  0.00  0.00    +0.000 A 
BRANCH  18  25
ATOM     24  N   UNL     1      48.319   3.215  18.945  0.00  0.00    +0.000 N 
ATOM     25  C   UNL     1      47.699   3.553  17.773  0.00  0.00    +0.000 C 
ATOM     26  O   UNL     1      46.661   3.011  17.427  0.00  0.00    +0.000 OA
ATOM     27  H   UNL     1      47.824   2.559  19.535  0.00  0.00    +0.000 HD
ATOM     28  H   UNL     1      49.011   3.809  19.382  0.00  0.00    +0.000 HD
ENDBRANCH  18  25
ENDBRANCH  16  21
ENDBRANCH   1  16
TORSDOF 7
ENDMDL
