MODEL 1
REMARK VINA RESULT:    -7.655      0.000      0.000
REMARK INTER + INTRA:         -11.617
REMARK INTER:                 -10.564
REMARK INTRA:                  -1.053
REMARK UNBOUND:                -1.053
REMARK  Name = 
REMARK  10 active torsions:
REMARK  status: ('A' for Active; 'I' for Inactive)
REMARK    1  A    between atoms: C_1  and  C_2
REMARK    2  A    between atoms: C_2  and  C_3
REMARK    3  A    between atoms: C_2  and  C_4
REMARK    4  A    between atoms: C_2  and  C_5
REMARK    5  A    between atoms: C_8  and  C_9
REMARK    6  A    between atoms: C_9  and  N_10
REMARK    7  A    between atoms: C_15  and  C_16
REMARK    8  A    between atoms: C_16  and  C_17
REMARK    9  A    between atoms: C_17  and  C_18
REMARK   10  A    between atoms: C_18  and  N_19
REMARK                            x       y       z     vdW  Elec       q    Type
REMARK                         _______ _______ _______ _____ _____    ______ ____
ROOT
ATOM      1  N   UNL     1      43.678   4.341  11.953  0.00  0.00    +0.000 N 
ATOM      2  C   UNL     1      43.592   3.125  12.594  0.00  0.00    +0.000 A 
ATOM      3  C   UNL     1      43.351   2.199  11.603  0.00  0.00    +0.000 A 
ATOM      4  C   UNL     1      44.091   2.712  10.513  0.00  0.00    +0.000 A 
ATOM      5  C   UNL     1      44.833   2.151   9.459  0.00  0.00    +0.000 A 
ATOM      6  C   UNL     1      45.462   3.013   8.546  0.00  0.00    +0.000 A 
ATOM      7  C   UNL     1      45.111   4.370   8.538  0.00  0.00    +0.000 A 
ATOM      8  C   UNL     1      44.385   4.946   9.586  0.00  0.00    +0.000 A 
ATOM      9  C   UNL     1      44.035   4.102  10.640  0.00  0.00    +0.000 A 
ENDROOT
BRANCH   1  10
ATOM     10  C   UNL     1      43.750   5.621  12.647  0.00  0.00    +0.000 C 
BRANCH  10  14
ATOM     11  C   UNL     1      47.758   7.352  12.514  0.00  0.00    +0.000 A 
ATOM     12  C   UNL     1      47.554   6.043  12.955  0.00  0.00    +0.000 A 
ATOM     13  C   UNL     1      46.263   5.483  13.014  0.00  0.00    +0.000 A 
ATOM     14  C   UNL     1      45.137   6.220  12.638  0.00  0.00    +0.000 A 
ATOM     15  C   UNL     1      45.336   7.521  12.171  0.00  0.00    +0.000 A 
ATOM     16  C   UNL     1      46.624   8.073  12.105  0.00  0.00    +0.000 A 
BRANCH  11  18
ATOM     17  C   UNL     1      50.046   7.598  11.332  0.00  0.00    +0.000 C 
ATOM     18  C   UNL     1      49.144   8.038  12.510  0.00  0.00    +0.000 C 
ATOM     19  C   UNL     1      49.887   7.694  13.808  0.00  0.00    +0.000 C 
ATOM     20  C   UNL     1      48.979   9.571  12.405  0.00  0.00    +0.000 C 
ENDBRANCH  11  18
ENDBRANCH  10  14
ENDBRANCH   1  10
BRANCH   6  21
ATOM     21  C   UNL     1      46.550   2.491   7.635  0.00  0.00    +0.000 C 
BRANCH  21  22
ATOM     22  C   UNL     1      46.719   3.301   6.333  0.00  0.00    +0.000 C 
BRANCH  22  23
ATOM     23  C   UNL     1      47.432   2.538   5.210  0.00  0.00    +0.000 C 
BRANCH  23  24
ATOM     24  N   UNL     1      48.547   1.764   5.759  0.00  0.00    +0.000 NA
ATOM     25  H   UNL     1      48.540   0.824   5.366  0.00  0.00    +0.000 HD
ATOM     26  H   UNL     1      48.419   1.656   6.766  0.00  0.00    +0.000 HD
ENDBRANCH  23  24
ENDBRANCH  22  23
ENDBRANCH  21  22
ENDBRANCH   6  21
TORSDOF 7
ENDMDL
MODEL 2
REMARK VINA RESULT:    -7.021      1.325      2.120
REMARK INTER + INTRA:         -10.742
REMARK INTER:                 -10.104
REMARK INTRA:                  -0.638
REMARK UNBOUND:                -1.053
REMARK  Name = 
REMARK  10 active torsions:
REMARK  status: ('A' for Active; 'I' for Inactive)
REMARK    1  A    between atoms: C_1  and  C_2
REMARK    2  A    between atoms: C_2  and  C_3
REMARK    3  A    between atoms: C_2  and  C_4
REMARK    4  A    between atoms: C_2  and  C_5
REMARK    5  A    between atoms: C_8  and  C_9
REMARK    6  A    between atoms: C_9  and  N_10
REMARK    7  A    between atoms: C_15  and  C_16
REMARK    8  A    between atoms: C_16  and  C_17
REMARK    9  A    between atoms: C_17  and  C_18
REMARK   10  A    between atoms: C_18  and  N_19
REMARK                            x       y       z     vdW  Elec       q    Type
REMARK                         _______ _______ _______ _____ _____    ______ ____
ROOT
ATOM      1  N   UNL     1      45.083   4.888  12.396  0.00  0.00    +0.000 N 
ATOM      2  C   UNL     1      44.108   3.977  12.732  0.00  0.00    +0.000 A 
ATOM      3  C   UNL     1      43.258   3.926  11.650  0.00  0.00    +0.000 A 
ATOM      4  C   UNL     1      44.137   4.101  10.557  0.00  0.00    +0.000 A 
ATOM      5  C   UNL     1      44.207   3.602   9.244  0.00  0.00    +0.000 A 
ATOM      6  C   UNL     1      45.276   4.009   8.427  0.00  0.00    +0.000 A 
ATOM      7  C   UNL     1      46.066   5.094   8.831  0.00  0.00    +0.000 A 
ATOM      8  C   UNL     1      46.017   5.592  10.137  0.00  0.00    +0.000 A 
ATOM      9  C   UNL     1      45.145   4.950  11.017  0.00  0.00    +0.000 A 
ENDROOT
BRANCH   1  10
ATOM     10  C   UNL     1      46.091   5.380  13.327  0.00  0.00    +0.000 C 
BRANCH  10  14
ATOM     11  C   UNL     1      47.744   9.291  12.298  0.00  0.00    +0.000 A 
ATOM     12  C   UNL     1      46.393   9.142  12.624  0.00  0.00    +0.000 A 
ATOM     13  C   UNL     1      45.851   7.883  12.943  0.00  0.00    +0.000 A 
ATOM     14  C   UNL     1      46.644   6.732  12.939  0.00  0.00    +0.000 A 
ATOM     15  C   UNL     1      48.000   6.876  12.640  0.00  0.00    +0.000 A 
ATOM     16  C   UNL     1      48.540   8.133  12.332  0.00  0.00    +0.000 A 
BRANCH  11  18
ATOM     17  C   UNL     1      49.729  10.480  11.141  0.00  0.00    +0.000 C 
ATOM     18  C   UNL     1      48.367  10.636  11.860  0.00  0.00    +0.000 C 
ATOM     19  C   UNL     1      48.601  11.515  13.096  0.00  0.00    +0.000 C 
ATOM     20  C   UNL     1      47.421  11.369  10.883  0.00  0.00    +0.000 C 
ENDBRANCH  11  18
ENDBRANCH  10  14
ENDBRANCH   1  10
BRANCH   6  21
ATOM     21  C   UNL     1      45.603   3.239   7.168  0.00  0.00    +0.000 C 
BRANCH  21  22
ATOM     22  C   UNL     1      46.686   2.158   7.359  0.00  0.00    +0.000 C 
BRANCH  22  23
ATOM     23  C   UNL     1      48.061   2.545   6.800  0.00  0.00    +0.000 C 
BRANCH  23  24
ATOM     24  N   UNL     1      48.352   1.763   5.598  0.00  0.00    +0.000 NA
ATOM     25  H   UNL     1      49.317   1.920   5.309  0.00  0.00    +0.000 HD
ATOM     26  H   UNL     1      47.766   2.092   4.830  0.00  0.00    +0.000 HD
ENDBRANCH  23  24
ENDBRANCH  22  23
ENDBRANCH  21  22
ENDBRANCH   6  21
TORSDOF 7
ENDMDL
MODEL 3
REMARK VINA RESULT:    -6.590      1.171      1.845
REMARK INTER + INTRA:         -10.148
REMARK INTER:                  -9.151
REMARK INTRA:                  -0.997
REMARK UNBOUND:                -1.053
REMARK  Name = 
REMARK  10 active torsions:
REMARK  status: ('A' for Active; 'I' for Inactive)
REMARK    1  A    between atoms: C_1  and  C_2
REMARK    2  A    between atoms: C_2  and  C_3
REMARK    3  A    between atoms: C_2  and  C_4
REMARK    4  A    between atoms: C_2  and  C_5
REMARK    5  A    between atoms: C_8  and  C_9
REMARK    6  A    between atoms: C_9  and  N_10
REMARK    7  A    between atoms: C_15  and  C_16
REMARK    8  A    between atoms: C_16  and  C_17
REMARK    9  A    between atoms: C_17  and  C_18
REMARK   10  A    between atoms: C_18  and  N_19
REMARK                            x       y       z     vdW  Elec       q    Type
REMARK                         _______ _______ _______ _____ _____    ______ ____
ROOT
ATOM      1  N   UNL     1      44.578   5.667  11.982  0.00  0.00    +0.000 N 
ATOM      2  C   UNL     1      44.785   4.883  13.095  0.00  0.00    +0.000 A 
ATOM      3  C   UNL     1      44.268   3.646  12.780  0.00  0.00    +0.000 A 
ATOM      4  C   UNL     1      44.556   3.532  11.400  0.00  0.00    +0.000 A 
ATOM      5  C   UNL     1      44.916   2.480  10.540  0.00  0.00    +0.000 A 
ATOM      6  C   UNL     1      45.143   2.768   9.184  0.00  0.00    +0.000 A 
ATOM      7  C   UNL     1      44.737   4.009   8.674  0.00  0.00    +0.000 A 
ATOM      8  C   UNL     1      44.389   5.069   9.518  0.00  0.00    +0.000 A 
ATOM      9  C   UNL     1      44.471   4.829  10.889  0.00  0.00    +0.000 A 
ENDROOT
BRANCH   1  10
ATOM     10  C   UNL     1      44.816   7.105  11.947  0.00  0.00    +0.000 C 
BRANCH  10  14
ATOM     11  C   UNL     1      48.892   8.283  12.987  0.00  0.00    +0.000 A 
ATOM     12  C   UNL     1      48.645   7.395  11.938  0.00  0.00    +0.000 A 
ATOM     13  C   UNL     1      47.335   7.000  11.606  0.00  0.00    +0.000 A 
ATOM     14  C   UNL     1      46.232   7.479  12.319  0.00  0.00    +0.000 A 
ATOM     15  C   UNL     1      46.469   8.387  13.353  0.00  0.00    +0.000 A 
ATOM     16  C   UNL     1      47.775   8.786  13.675  0.00  0.00    +0.000 A 
BRANCH  11  18
ATOM     17  C   UNL     1      50.433  10.166  13.865  0.00  0.00    +0.000 C 
ATOM     18  C   UNL     1      50.315   8.682  13.442  0.00  0.00    +0.000 C 
ATOM     19  C   UNL     1      51.302   8.455  12.289  0.00  0.00    +0.000 C 
ATOM     20  C   UNL     1      50.743   7.830  14.658  0.00  0.00    +0.000 C 
ENDBRANCH  11  18
ENDBRANCH  10  14
ENDBRANCH   1  10
BRANCH   6  21
ATOM     21  C   UNL     1      45.875   1.775   8.310  0.00  0.00    +0.000 C 
BRANCH  21  22
ATOM     22  C   UNL     1      46.723   2.426   7.198  0.00  0.00    +0.000 C 
BRANCH  22  23
ATOM     23  C   UNL     1      48.088   1.761   6.983  0.00  0.00    +0.000 C 
BRANCH  23  24
ATOM     24  N   UNL     1      48.479   1.861   5.576  0.00  0.00    +0.000 NA
ATOM     25  H   UNL     1      47.981   2.633   5.134  0.00  0.00    +0.000 HD
ATOM     26  H   UNL     1      48.190   1.015   5.084  0.00  0.00    +0.000 HD
ENDBRANCH  23  24
ENDBRANCH  22  23
ENDBRANCH  21  22
ENDBRANCH   6  21
TORSDOF 7
ENDMDL
MODEL 4
REMARK VINA RESULT:    -6.573      1.987      6.527
REMARK INTER + INTRA:         -10.124
REMARK INTER:                  -9.169
REMARK INTRA:                  -0.955
REMARK UNBOUND:                -1.053
REMARK  Name = 
REMARK  10 active torsions:
REMARK  status: ('A' for Active; 'I' for Inactive)
REMARK    1  A    between atoms: C_1  and  C_2
REMARK    2  A    between atoms: C_2  and  C_3
REMARK    3  A    between atoms: C_2  and  C_4
REMARK    4  A    between atoms: C_2  and  C_5
REMARK    5  A    between atoms: C_8  and  C_9
REMARK    6  A    between atoms: C_9  and  N_10
REMARK    7  A    between atoms: C_15  and  C_16
REMARK    8  A    between atoms: C_16  and  C_17
REMARK    9  A    between atoms: C_17  and  C_18
REMARK   10  A    between atoms: C_18  and  N_19
REMARK                            x       y       z     vdW  Elec       q    Type
REMARK                         _______ _______ _______ _____ _____    ______ ____
ROOT
ATOM      1  N   UNL     1      44.309   6.266  11.533  0.00  0.00    +0.000 N 
ATOM      2  C   UNL     1      44.040   7.502  10.987  0.00  0.00    +0.000 A 
ATOM      3  C   UNL     1      44.684   8.413  11.795  0.00  0.00    +0.000 A 
ATOM      4  C   UNL     1      45.852   7.715  12.179  0.00  0.00    +0.000 A 
ATOM      5  C   UNL     1      47.190   8.071  12.427  0.00  0.00    +0.000 A 
ATOM      6  C   UNL     1      48.098   7.061  12.786  0.00  0.00    +0.000 A 
ATOM      7  C   UNL     1      47.605   5.802  13.158  0.00  0.00    +0.000 A 
ATOM      8  C   UNL     1      46.281   5.430  12.904  0.00  0.00    +0.000 A 
ATOM      9  C   UNL     1      45.480   6.372  12.259  0.00  0.00    +0.000 A 
ENDROOT
BRANCH   1  10
ATOM     10  C   UNL     1      43.675   5.029  11.093  0.00  0.00    +0.000 C 
BRANCH  10  14
ATOM     11  C   UNL     1      46.046   2.885   8.116  0.00  0.00    +0.000 A 
ATOM     12  C   UNL     1      46.056   4.281   8.175  0.00  0.00    +0.000 A 
ATOM     13  C   UNL     1      45.283   4.979   9.123  0.00  0.00    +0.000 A 
ATOM     14  C   UNL     1      44.473   4.300  10.037  0.00  0.00    +0.000 A 
ATOM     15  C   UNL     1      44.478   2.904  10.002  0.00  0.00    +0.000 A 
ATOM     16  C   UNL     1      45.255   2.211   9.062  0.00  0.00    +0.000 A 
BRANCH  11  18
ATOM     17  C   UNL     1      48.278   2.534   6.856  0.00  0.00    +0.000 C 
ATOM     18  C   UNL     1      46.811   2.077   7.043  0.00  0.00    +0.000 C 
ATOM     19  C   UNL     1      46.107   2.235   5.688  0.00  0.00    +0.000 C 
ATOM     20  C   UNL     1      46.849   0.581   7.428  0.00  0.00    +0.000 C 
ENDBRANCH  11  18
ENDBRANCH  10  14
ENDBRANCH   1  10
BRANCH   6  21
ATOM     21  C   UNL     1      49.585   7.315  12.705  0.00  0.00    +0.000 C 
BRANCH  21  22
ATOM     22  C   UNL     1      50.004   8.211  11.520  0.00  0.00    +0.000 C 
BRANCH  22  23
ATOM     23  C   UNL     1      51.513   8.222  11.247  0.00  0.00    +0.000 C 
BRANCH  23  24
ATOM     24  N   UNL     1      51.915   6.970  10.604  0.00  0.00    +0.000 NA
ATOM     25  H   UNL     1      51.236   6.241  10.814  0.00  0.00    +0.000 HD
ATOM     26  H   UNL     1      52.803   6.658  11.000  0.00  0.00    +0.000 HD
ENDBRANCH  23  24
ENDBRANCH  22  23
ENDBRANCH  21  22
ENDBRANCH   6  21
TORSDOF 7
ENDMDL
MODEL 5
REMARK VINA RESULT:    -6.319      2.096      6.871
REMARK INTER + INTRA:          -9.774
REMARK INTER:                  -9.045
REMARK INTRA:                  -0.729
REMARK UNBOUND:                -1.053
REMARK  Name = 
REMARK  10 active torsions:
REMARK  status: ('A' for Active; 'I' for Inactive)
REMARK    1  A    between atoms: C_1  and  C_2
REMARK    2  A    between atoms: C_2  and  C_3
REMARK    3  A    between atoms: C_2  and  C_4
REMARK    4  A    between atoms: C_2  and  C_5
REMARK    5  A    between atoms: C_8  and  C_9
REMARK    6  A    between atoms: C_9  and  N_10
REMARK    7  A    between atoms: C_15  and  C_16
REMARK    8  A    between atoms: C_16  and  C_17
REMARK    9  A    between atoms: C_17  and  C_18
REMARK   10  A    between atoms: C_18  and  N_19
REMARK                            x       y       z     vdW  Elec       q    Type
REMARK                         _______ _______ _______ _____ _____    ______ ____
ROOT
ATOM      1  N   UNL     1      43.938   5.448  11.622  0.00  0.00    +0.000 N 
ATOM      2  C   UNL     1      43.572   6.690  11.154  0.00  0.00    +0.000 A 
ATOM      3  C   UNL     1      44.095   7.594  12.052  0.00  0.00    +0.000 A 
ATOM      4  C   UNL     1      45.310   6.981  12.436  0.00  0.00    +0.000 A 
ATOM      5  C   UNL     1      46.597   7.440  12.768  0.00  0.00    +0.000 A 
ATOM      6  C   UNL     1      47.584   6.495  13.094  0.00  0.00    +0.000 A 
ATOM      7  C   UNL     1      47.200   5.172  13.353  0.00  0.00    +0.000 A 
ATOM      8  C   UNL     1      45.928   4.698  13.017  0.00  0.00    +0.000 A 
ATOM      9  C   UNL     1      45.065   5.607  12.405  0.00  0.00    +0.000 A 
ENDROOT
BRANCH   1  10
ATOM     10  C   UNL     1      43.442   4.194  11.069  0.00  0.00    +0.000 C 
BRANCH  10  14
ATOM     11  C   UNL     1      45.965   2.586   7.886  0.00  0.00    +0.000 A 
ATOM     12  C   UNL     1      45.301   1.738   8.776  0.00  0.00    +0.000 A 
ATOM     13  C   UNL     1      44.498   2.250   9.813  0.00  0.00    +0.000 A 
ATOM     14  C   UNL     1      44.339   3.627   9.993  0.00  0.00    +0.000 A 
ATOM     15  C   UNL     1      44.978   4.480   9.091  0.00  0.00    +0.000 A 
ATOM     16  C   UNL     1      45.770   3.968   8.053  0.00  0.00    +0.000 A 
BRANCH  11  18
ATOM     17  C   UNL     1      48.340   2.692   6.866  0.00  0.00    +0.000 C 
ATOM     18  C   UNL     1      46.923   2.075   6.784  0.00  0.00    +0.000 C 
ATOM     19  C   UNL     1      46.349   2.429   5.406  0.00  0.00    +0.000 C 
ATOM     20  C   UNL     1      47.089   0.543   6.892  0.00  0.00    +0.000 C 
ENDBRANCH  11  18
ENDBRANCH  10  14
ENDBRANCH   1  10
BRANCH   6  21
ATOM     21  C   UNL     1      49.042   6.891  13.096  0.00  0.00    +0.000 C 
BRANCH  21  22
ATOM     22  C   UNL     1      49.537   7.452  14.446  0.00  0.00    +0.000 C 
BRANCH  22  23
ATOM     23  C   UNL     1      48.882   6.803  15.671  0.00  0.00    +0.000 C 
BRANCH  23  24
ATOM     24  N   UNL     1      49.798   5.836  16.277  0.00  0.00    +0.000 NA
ATOM     25  H   UNL     1      50.018   5.102  15.606  0.00  0.00    +0.000 HD
ATOM     26  H   UNL     1      49.334   5.378  17.062  0.00  0.00    +0.000 HD
ENDBRANCH  23  24
ENDBRANCH  22  23
ENDBRANCH  21  22
ENDBRANCH   6  21
TORSDOF 7
ENDMDL
MODEL 6
REMARK VINA RESULT:    -6.205      2.778      3.662
REMARK INTER + INTRA:          -9.615
REMARK INTER:                  -9.740
REMARK INTRA:                   0.124
REMARK UNBOUND:                -1.053
REMARK  Name = 
REMARK  10 active torsions:
REMARK  status: ('A' for Active; 'I' for Inactive)
REMARK    1  A    between atoms: C_1  and  C_2
REMARK    2  A    between atoms: C_2  and  C_3
REMARK    3  A    between atoms: C_2  and  C_4
REMARK    4  A    between atoms: C_2  and  C_5
REMARK    5  A    between atoms: C_8  and  C_9
REMARK    6  A    between atoms: C_9  and  N_10
REMARK    7  A    between atoms: C_15  and  C_16
REMARK    8  A    between atoms: C_16  and  C_17
REMARK    9  A    between atoms: C_17  and  C_18
REMARK   10  A    between atoms: C_18  and  N_19
REMARK                            x       y       z     vdW  Elec       q    Type
REMARK                         _______ _______ _______ _____ _____    ______ ____
ROOT
ATOM      1  N   UNL     1      45.455   5.882  12.339  0.00  0.00    +0.000 N 
ATOM      2  C   UNL     1      44.624   5.081  13.090  0.00  0.00    +0.000 A 
ATOM      3  C   UNL     1      43.653   4.634  12.222  0.00  0.00    +0.000 A 
ATOM      4  C   UNL     1      44.366   4.488  11.009  0.00  0.00    +0.000 A 
ATOM      5  C   UNL     1      44.319   3.592   9.927  0.00  0.00    +0.000 A 
ATOM      6  C   UNL     1      45.230   3.764   8.871  0.00  0.00    +0.000 A 
ATOM      7  C   UNL     1      45.955   4.961   8.786  0.00  0.00    +0.000 A 
ATOM      8  C   UNL     1      46.021   5.856   9.859  0.00  0.00    +0.000 A 
ATOM      9  C   UNL     1      45.336   5.493  11.018  0.00  0.00    +0.000 A 
ENDROOT
BRANCH   1  10
ATOM     10  C   UNL     1      46.519   6.704  12.903  0.00  0.00    +0.000 C 
BRANCH  10  14
ATOM     11  C   UNL     1      48.512   4.864  16.327  0.00  0.00    +0.000 A 
ATOM     12  C   UNL     1      47.482   4.203  15.653  0.00  0.00    +0.000 A 
ATOM     13  C   UNL     1      46.826   4.796  14.557  0.00  0.00    +0.000 A 
ATOM     14  C   UNL     1      47.178   6.072  14.107  0.00  0.00    +0.000 A 
ATOM     15  C   UNL     1      48.223   6.728  14.759  0.00  0.00    +0.000 A 
ATOM     16  C   UNL     1      48.882   6.131  15.845  0.00  0.00    +0.000 A 
BRANCH  11  18
ATOM     17  C   UNL     1      50.544   4.991  17.923  0.00  0.00    +0.000 C 
ATOM     18  C   UNL     1      49.206   4.291  17.584  0.00  0.00    +0.000 C 
ATOM     19  C   UNL     1      49.511   2.803  17.365  0.00  0.00    +0.000 C 
ATOM     20  C   UNL     1      48.287   4.448  18.817  0.00  0.00    +0.000 C 
ENDBRANCH  11  18
ENDBRANCH  10  14
ENDBRANCH   1  10
BRANCH   6  21
ATOM     21  C   UNL     1      45.470   2.644   7.886  0.00  0.00    +0.000 C 
BRANCH  21  22
ATOM     22  C   UNL     1      46.687   2.869   6.965  0.00  0.00    +0.000 C 
BRANCH  22  23
ATOM     23  C   UNL     1      47.676   1.697   6.938  0.00  0.00    +0.000 C 
BRANCH  23  24
ATOM     24  N   UNL     1      48.493   1.758   5.726  0.00  0.00    +0.000 NA
ATOM     25  H   UNL     1      48.689   0.815   5.394  0.00  0.00    +0.000 HD
ATOM     26  H   UNL     1      49.397   2.177   5.949  0.00  0.00    +0.000 HD
ENDBRANCH  23  24
ENDBRANCH  22  23
ENDBRANCH  21  22
ENDBRANCH   6  21
TORSDOF 7
ENDMDL
MODEL 7
REMARK VINA RESULT:    -6.135      1.699      2.751
REMARK INTER + INTRA:          -9.520
REMARK INTER:                  -8.555
REMARK INTRA:                  -0.965
REMARK UNBOUND:                -1.053
REMARK  Name = 
REMARK  10 active torsions:
REMARK  status: ('A' for Active; 'I' for Inactive)
REMARK    1  A    between atoms: C_1  and  C_2
REMARK    2  A    between atoms: C_2  and  C_3
REMARK    3  A    between atoms: C_2  and  C_4
REMARK    4  A    between atoms: C_2  and  C_5
REMARK    5  A    between atoms: C_8  and  C_9
REMARK    6  A    between atoms: C_9  and  N_10
REMARK    7  A    between atoms: C_15  and  C_16
REMARK    8  A    between atoms: C_16  and  C_17
REMARK    9  A    between atoms: C_17  and  C_18
REMARK   10  A    between atoms: C_18  and  N_19
REMARK                            x       y       z     vdW  Elec       q    Type
REMARK                         _______ _______ _______ _____ _____    ______ ____
ROOT
ATOM      1  N   UNL     1      45.662   6.066  12.922  0.00  0.00    +0.000 N 
ATOM      2  C   UNL     1      46.493   5.260  13.668  0.00  0.00    +0.000 A 
ATOM      3  C   UNL     1      45.904   4.015  13.663  0.00  0.00    +0.000 A 
ATOM      4  C   UNL     1      45.329   3.949  12.373  0.00  0.00    +0.000 A 
ATOM      5  C   UNL     1      45.130   2.933  11.421  0.00  0.00    +0.000 A 
ATOM      6  C   UNL     1      44.513   3.265  10.203  0.00  0.00    +0.000 A 
ATOM      7  C   UNL     1      43.870   4.505  10.082  0.00  0.00    +0.000 A 
ATOM      8  C   UNL     1      44.069   5.529  11.013  0.00  0.00    +0.000 A 
ATOM      9  C   UNL     1      44.944   5.255  12.064  0.00  0.00    +0.000 A 
ENDROOT
BRANCH   1  10
ATOM     10  C   UNL     1      45.815   7.512  12.815  0.00  0.00    +0.000 C 
BRANCH  10  14
ATOM     11  C   UNL     1      50.001   8.655  12.307  0.00  0.00    +0.000 A 
ATOM     12  C   UNL     1      49.260   9.101  13.405  0.00  0.00    +0.000 A 
ATOM     13  C   UNL     1      47.907   8.748  13.567  0.00  0.00    +0.000 A 
ATOM     14  C   UNL     1      47.252   7.942  12.632  0.00  0.00    +0.000 A 
ATOM     15  C   UNL     1      47.993   7.470  11.546  0.00  0.00    +0.000 A 
ATOM     16  C   UNL     1      49.343   7.815  11.392  0.00  0.00    +0.000 A 
BRANCH  11  18
ATOM     17  C   UNL     1      52.199   8.165  11.035  0.00  0.00    +0.000 C 
ATOM     18  C   UNL     1      51.463   9.082  12.041  0.00  0.00    +0.000 C 
ATOM     19  C   UNL     1      52.252   9.044  13.357  0.00  0.00    +0.000 C 
ATOM     20  C   UNL     1      51.502  10.514  11.462  0.00  0.00    +0.000 C 
ENDBRANCH  11  18
ENDBRANCH  10  14
ENDBRANCH   1  10
BRANCH   6  21
ATOM     21  C   UNL     1      44.606   2.323   9.025  0.00  0.00    +0.000 C 
BRANCH  21  22
ATOM     22  C   UNL     1      45.979   2.333   8.322  0.00  0.00    +0.000 C 
BRANCH  22  23
ATOM     23  C   UNL     1      46.025   3.190   7.051  0.00  0.00    +0.000 C 
BRANCH  23  24
ATOM     24  N   UNL     1      46.841   4.383   7.281  0.00  0.00    +0.000 NA
ATOM     25  H   UNL     1      46.972   4.524   8.281  0.00  0.00    +0.000 HD
ATOM     26  H   UNL     1      46.341   5.204   6.938  0.00  0.00    +0.000 HD
ENDBRANCH  23  24
ENDBRANCH  22  23
ENDBRANCH  21  22
ENDBRANCH   6  21
TORSDOF 7
ENDMDL
MODEL 8
REMARK VINA RESULT:    -5.957      2.154      3.241
REMARK INTER + INTRA:          -9.274
REMARK INTER:                  -8.657
REMARK INTRA:                  -0.617
REMARK UNBOUND:                -1.053
REMARK  Name = 
REMARK  10 active torsions:
REMARK  status: ('A' for Active; 'I' for Inactive)
REMARK    1  A    between atoms: C_1  and  C_2
REMARK    2  A    between atoms: C_2  and  C_3
REMARK    3  A    between atoms: C_2  and  C_4
REMARK    4  A    between atoms: C_2  and  C_5
REMARK    5  A    between atoms: C_8  and  C_9
REMARK    6  A    between atoms: C_9  and  N_10
REMARK    7  A    between atoms: C_15  and  C_16
REMARK    8  A    between atoms: C_16  and  C_17
REMARK    9  A    between atoms: C_17  and  C_18
REMARK   10  A    between atoms: C_18  and  N_19
REMARK                            x       y       z     vdW  Elec       q    Type
REMARK                         _______ _______ _______ _____ _____    ______ ____
ROOT
ATOM      1  N   UNL     1      45.894   6.282  12.045  0.00  0.00    +0.000 N 
ATOM      2  C   UNL     1      45.609   5.612  13.214  0.00  0.00    +0.000 A 
ATOM      3  C   UNL     1      44.589   4.741  12.903  0.00  0.00    +0.000 A 
ATOM      4  C   UNL     1      44.897   4.363  11.575  0.00  0.00    +0.000 A 
ATOM      5  C   UNL     1      44.775   3.183  10.820  0.00  0.00    +0.000 A 
ATOM      6  C   UNL     1      45.221   3.189   9.488  0.00  0.00    +0.000 A 
ATOM      7  C   UNL     1      45.503   4.415   8.870  0.00  0.00    +0.000 A 
ATOM      8  C   UNL     1      45.640   5.594   9.610  0.00  0.00    +0.000 A 
ATOM      9  C   UNL     1      45.487   5.486  10.992  0.00  0.00    +0.000 A 
ENDROOT
BRANCH   1  10
ATOM     10  C   UNL     1      46.795   7.425  11.964  0.00  0.00    +0.000 C 
BRANCH  10  14
ATOM     11  C   UNL     1      49.174   8.107  15.564  0.00  0.00    +0.000 A 
ATOM     12  C   UNL     1      49.431   7.019  14.726  0.00  0.00    +0.000 A 
ATOM     13  C   UNL     1      48.659   6.785  13.572  0.00  0.00    +0.000 A 
ATOM     14  C   UNL     1      47.602   7.631  13.225  0.00  0.00    +0.000 A 
ATOM     15  C   UNL     1      47.356   8.736  14.043  0.00  0.00    +0.000 A 
ATOM     16  C   UNL     1      48.132   8.972  15.187  0.00  0.00    +0.000 A 
BRANCH  11  18
ATOM     17  C   UNL     1      49.015   8.447  18.123  0.00  0.00    +0.000 C 
ATOM     18  C   UNL     1      49.938   8.359  16.884  0.00  0.00    +0.000 C 
ATOM     19  C   UNL     1      50.700   9.687  16.787  0.00  0.00    +0.000 C 
ATOM     20  C   UNL     1      50.940   7.212  17.147  0.00  0.00    +0.000 C 
ENDBRANCH  11  18
ENDBRANCH  10  14
ENDBRANCH   1  10
BRANCH   6  21
ATOM     21  C   UNL     1      45.454   1.885   8.761  0.00  0.00    +0.000 C 
BRANCH  21  22
ATOM     22  C   UNL     1      46.331   2.019   7.499  0.00  0.00    +0.000 C 
BRANCH  22  23
ATOM     23  C   UNL     1      47.364   0.898   7.333  0.00  0.00    +0.000 C 
BRANCH  23  24
ATOM     24  N   UNL     1      46.781  -0.384   7.728  0.00  0.00    +0.000 NA
ATOM     25  H   UNL     1      47.490  -0.963   8.175  0.00  0.00    +0.000 HD
ATOM     26  H   UNL     1      46.481  -0.890   6.894  0.00  0.00    +0.000 HD
ENDBRANCH  23  24
ENDBRANCH  22  23
ENDBRANCH  21  22
ENDBRANCH   6  21
TORSDOF 7
ENDMDL
MODEL 9
REMARK VINA RESULT:    -5.823      4.401      7.043
REMARK INTER + INTRA:          -9.089
REMARK INTER:                  -8.160
REMARK INTRA:                  -0.929
REMARK UNBOUND:                -1.053
REMARK  Name = 
REMARK  10 active torsions:
REMARK  status: ('A' for Active; 'I' for Inactive)
REMARK    1  A    between atoms: C_1  and  C_2
REMARK    2  A    between atoms: C_2  and  C_3
REMARK    3  A    between atoms: C_2  and  C_4
REMARK    4  A    between atoms: C_2  and  C_5
REMARK    5  A    between atoms: C_8  and  C_9
REMARK    6  A    between atoms: C_9  and  N_10
REMARK    7  A    between atoms: C_15  and  C_16
REMARK    8  A    between atoms: C_16  and  C_17
REMARK    9  A    between atoms: C_17  and  C_18
REMARK   10  A    between atoms: C_18  and  N_19
REMARK                            x       y       z     vdW  Elec       q    Type
REMARK                         _______ _______ _______ _____ _____    ______ ____
ROOT
ATOM      1  N   UNL     1      48.673   6.516  15.091  0.00  0.00    +0.000 N 
ATOM      2  C   UNL     1      49.187   7.583  14.388  0.00  0.00    +0.000 A 
ATOM      3  C   UNL     1      49.087   7.234  13.059  0.00  0.00    +0.000 A 
ATOM      4  C   UNL     1      47.886   6.489  13.023  0.00  0.00    +0.000 A 
ATOM      5  C   UNL     1      46.837   6.332  12.099  0.00  0.00    +0.000 A 
ATOM      6  C   UNL     1      45.767   5.486  12.436  0.00  0.00    +0.000 A 
ATOM      7  C   UNL     1      45.902   4.620  13.529  0.00  0.00    +0.000 A 
ATOM      8  C   UNL     1      46.932   4.772  14.463  0.00  0.00    +0.000 A 
ATOM      9  C   UNL     1      47.812   5.833  14.253  0.00  0.00    +0.000 A 
ENDROOT
BRANCH   1  10
ATOM     10  C   UNL     1      48.747   6.389  16.541  0.00  0.00    +0.000 C 
BRANCH  10  14
ATOM     11  C   UNL     1      52.032   3.781  17.764  0.00  0.00    +0.000 A 
ATOM     12  C   UNL     1      50.717   3.310  17.716  0.00  0.00    +0.000 A 
ATOM     13  C   UNL     1      49.652   4.148  17.336  0.00  0.00    +0.000 A 
ATOM     14  C   UNL     1      49.871   5.487  16.998  0.00  0.00    +0.000 A 
ATOM     15  C   UNL     1      51.185   5.958  17.018  0.00  0.00    +0.000 A 
ATOM     16  C   UNL     1      52.245   5.118  17.388  0.00  0.00    +0.000 A 
BRANCH  11  18
ATOM     17  C   UNL     1      54.547   3.230  17.514  0.00  0.00    +0.000 C 
ATOM     18  C   UNL     1      53.222   2.923  18.253  0.00  0.00    +0.000 C 
ATOM     19  C   UNL     1      52.907   1.438  18.029  0.00  0.00    +0.000 C 
ATOM     20  C   UNL     1      53.474   3.172  19.757  0.00  0.00    +0.000 C 
ENDBRANCH  11  18
ENDBRANCH  10  14
ENDBRANCH   1  10
BRANCH   6  21
ATOM     21  C   UNL     1      44.469   5.564  11.667  0.00  0.00    +0.000 C 
BRANCH  21  22
ATOM     22  C   UNL     1      43.477   4.428  11.993  0.00  0.00    +0.000 C 
BRANCH  22  23
ATOM     23  C   UNL     1      43.577   3.221  11.053  0.00  0.00    +0.000 C 
BRANCH  23  24
ATOM     24  N   UNL     1      43.063   2.023  11.719  0.00  0.00    +0.000 NA
ATOM     25  H   UNL     1      43.840   1.443  12.031  0.00  0.00    +0.000 HD
ATOM     26  H   UNL     1      42.539   1.462  11.046  0.00  0.00    +0.000 HD
ENDBRANCH  23  24
ENDBRANCH  22  23
ENDBRANCH  21  22
ENDBRANCH   6  21
TORSDOF 7
ENDMDL
