MODEL 1
REMARK VINA RESULT:    -9.110      0.000      0.000
REMARK INTER + INTRA:         -13.394
REMARK INTER:                 -12.305
REMARK INTRA:                  -1.089
REMARK UNBOUND:                -1.089
REMARK  Name = 
REMARK  6 active torsions:
REMARK  status: ('A' for Active; 'I' for Inactive)
REMARK    1  A    between atoms: C_2  and  C_4
REMARK    2  A    between atoms: N_8  and  C_9
REMARK    3  A    between atoms: C_9  and  C_10
REMARK    4  A    between atoms: C_10  and  C_13
REMARK    5  A    between atoms: C_15  and  N_16
REMARK    6  A    between atoms: C_23  and  C_24
REMARK                            x       y       z     vdW  Elec       q    Type
REMARK                         _______ _______ _______ _____ _____    ______ ____
ROOT
ATOM      1  C   UNL     1      43.388   5.523  12.167  0.00  0.00    +0.000 C 
ATOM      2  F   UNL     1      42.860   6.706  11.719  0.00  0.00    +0.000 F 
ATOM      3  F   UNL     1      42.572   5.143  13.197  0.00  0.00    +0.000 F 
ENDROOT
BRANCH   1   4
ATOM      4  C   UNL     1      44.830   5.679  12.615  0.00  0.00    +0.000 A 
ATOM      5  C   UNL     1      45.611   6.730  12.103  0.00  0.00    +0.000 A 
ATOM      6  C   UNL     1      46.930   6.961  12.518  0.00  0.00    +0.000 A 
ATOM      7  C   UNL     1      47.454   6.093  13.483  0.00  0.00    +0.000 A 
ATOM      8  C   UNL     1      46.688   5.062  14.052  0.00  0.00    +0.000 A 
ATOM      9  C   UNL     1      45.386   4.838  13.584  0.00  0.00    +0.000 A 
BRANCH   6  10
ATOM     10  N   UNL     1      47.664   8.017  12.033  0.00  0.00    +0.000 N 
ATOM     11  C   UNL     1      49.025   7.862  11.501  0.00  0.00    +0.000 C 
ATOM     12  C   UNL     1      49.982   8.794  12.257  0.00  0.00    +0.000 C 
ATOM     13  O   UNL     1      49.531  10.160  12.209  0.00  0.00    +0.000 OA
ATOM     14  C   UNL     1      48.223  10.277  12.795  0.00  0.00    +0.000 C 
ATOM     15  C   UNL     1      47.185   9.406  12.062  0.00  0.00    +0.000 C 
ENDBRANCH   6  10
BRANCH   8  16
ATOM     16  C   UNL     1      47.221   4.266  15.219  0.00  0.00    +0.000 C 
ATOM     17  F   UNL     1      47.567   2.988  14.899  0.00  0.00    +0.000 F 
ATOM     18  F   UNL     1      48.346   4.833  15.743  0.00  0.00    +0.000 F 
ATOM     19  F   UNL     1      46.336   4.172  16.247  0.00  0.00    +0.000 F 
ENDBRANCH   8  16
ENDBRANCH   1   4
BRANCH   1  20
ATOM     20  C   UNL     1      43.273   4.482  11.019  0.00  0.00    +0.000 C 
BRANCH  20  25
ATOM     21  C   UNL     1      46.344   2.031   7.908  0.00  0.00    +0.000 A 
ATOM     22  C   UNL     1      46.378   3.348   7.468  0.00  0.00    +0.000 A 
ATOM     23  C   UNL     1      45.611   4.304   8.136  0.00  0.00    +0.000 A 
ATOM     24  C   UNL     1      44.833   3.936   9.231  0.00  0.00    +0.000 A 
ATOM     25  N   UNL     1      43.994   4.902   9.801  0.00  0.00    +0.000 N 
ATOM     26  N   UNL     1      44.792   2.654   9.660  0.00  0.00    +0.000 NA
ATOM     27  C   UNL     1      45.539   1.731   8.994  0.00  0.00    +0.000 A 
ATOM     28  H   UNL     1      44.457   5.801   9.904  0.00  0.00    +0.000 HD
BRANCH  21  30
ATOM     29  N   UNL     1      46.809  -0.336   7.633  0.00  0.00    +0.000 N 
ATOM     30  C   UNL     1      47.090   0.942   7.237  0.00  0.00    +0.000 C 
ATOM     31  O   UNL     1      47.898   1.172   6.351  0.00  0.00    +0.000 OA
ATOM     32  H   UNL     1      47.258  -1.080   7.114  0.00  0.00    +0.000 HD
ATOM     33  H   UNL     1      45.990  -0.576   8.178  0.00  0.00    +0.000 HD
ENDBRANCH  21  30
ENDBRANCH  20  25
ENDBRANCH   1  20
TORSDOF 6
ENDMDL
MODEL 2
REMARK VINA RESULT:    -8.641      2.869      4.206
REMARK INTER + INTRA:         -12.761
REMARK INTER:                 -11.628
REMARK INTRA:                  -1.133
REMARK UNBOUND:                -1.089
REMARK  Name = 
REMARK  6 active torsions:
REMARK  status: ('A' for Active; 'I' for Inactive)
REMARK    1  A    between atoms: C_2  and  C_4
REMARK    2  A    between atoms: N_8  and  C_9
REMARK    3  A    between atoms: C_9  and  C_10
REMARK    4  A    between atoms: C_10  and  C_13
REMARK    5  A    between atoms: C_15  and  N_16
REMARK    6  A    between atoms: C_23  and  C_24
REMARK                            x       y       z     vdW  Elec       q    Type
REMARK                         _______ _______ _______ _____ _____    ______ ____
ROOT
ATOM      1  C   UNL     1      43.880   4.700  12.742  0.00  0.00    +0.000 C 
ATOM      2  F   UNL     1      42.885   5.561  13.127  0.00  0.00    +0.000 F 
ATOM      3  F   UNL     1      43.590   3.522  13.374  0.00  0.00    +0.000 F 
ENDROOT
BRANCH   1   4
ATOM      4  C   UNL     1      45.256   5.219  13.116  0.00  0.00    +0.000 A 
ATOM      5  C   UNL     1      45.902   4.724  14.263  0.00  0.00    +0.000 A 
ATOM      6  C   UNL     1      47.195   5.121  14.632  0.00  0.00    +0.000 A 
ATOM      7  C   UNL     1      47.837   6.045  13.799  0.00  0.00    +0.000 A 
ATOM      8  C   UNL     1      47.244   6.525  12.620  0.00  0.00    +0.000 A 
ATOM      9  C   UNL     1      45.934   6.134  12.304  0.00  0.00    +0.000 A 
BRANCH   6  10
ATOM     10  N   UNL     1      47.823   4.597  15.736  0.00  0.00    +0.000 N 
ATOM     11  C   UNL     1      47.794   3.165  16.064  0.00  0.00    +0.000 C 
ATOM     12  C   UNL     1      47.241   2.973  17.483  0.00  0.00    +0.000 C 
ATOM     13  O   UNL     1      47.992   3.736  18.445  0.00  0.00    +0.000 OA
ATOM     14  C   UNL     1      47.944   5.137  18.122  0.00  0.00    +0.000 C 
ATOM     15  C   UNL     1      48.526   5.425  16.726  0.00  0.00    +0.000 C 
ENDBRANCH   6  10
BRANCH   8  16
ATOM     16  C   UNL     1      48.035   7.371  11.653  0.00  0.00    +0.000 C 
ATOM     17  F   UNL     1      49.382   7.301  11.838  0.00  0.00    +0.000 F 
ATOM     18  F   UNL     1      47.819   6.994  10.360  0.00  0.00    +0.000 F 
ATOM     19  F   UNL     1      47.713   8.691  11.716  0.00  0.00    +0.000 F 
ENDBRANCH   8  16
ENDBRANCH   1   4
BRANCH   1  20
ATOM     20  C   UNL     1      43.765   4.492  11.206  0.00  0.00    +0.000 C 
BRANCH  20  25
ATOM     21  C   UNL     1      46.462   2.813   7.329  0.00  0.00    +0.000 A 
ATOM     22  C   UNL     1      45.989   1.664   7.951  0.00  0.00    +0.000 A 
ATOM     23  C   UNL     1      45.191   1.791   9.089  0.00  0.00    +0.000 A 
ATOM     24  C   UNL     1      44.872   3.054   9.583  0.00  0.00    +0.000 A 
ATOM     25  N   UNL     1      44.163   3.133  10.788  0.00  0.00    +0.000 N 
ATOM     26  N   UNL     1      45.335   4.175   8.985  0.00  0.00    +0.000 NA
ATOM     27  C   UNL     1      46.119   4.036   7.881  0.00  0.00    +0.000 A 
ATOM     28  H   UNL     1      43.398   2.466  10.829  0.00  0.00    +0.000 HD
BRANCH  21  30
ATOM     29  N   UNL     1      48.668   2.492   6.368  0.00  0.00    +0.000 N 
ATOM     30  C   UNL     1      47.349   2.776   6.145  0.00  0.00    +0.000 C 
ATOM     31  O   UNL     1      46.920   2.964   5.018  0.00  0.00    +0.000 OA
ATOM     32  H   UNL     1      49.253   2.385   5.550  0.00  0.00    +0.000 HD
ATOM     33  H   UNL     1      49.007   2.101   7.238  0.00  0.00    +0.000 HD
ENDBRANCH  21  30
ENDBRANCH  20  25
ENDBRANCH   1  20
TORSDOF 6
ENDMDL
MODEL 3
REMARK VINA RESULT:    -7.189      4.173      7.794
REMARK INTER + INTRA:         -10.800
REMARK INTER:                  -9.537
REMARK INTRA:                  -1.263
REMARK UNBOUND:                -1.089
REMARK  Name = 
REMARK  6 active torsions:
REMARK  status: ('A' for Active; 'I' for Inactive)
REMARK    1  A    between atoms: C_2  and  C_4
REMARK    2  A    between atoms: N_8  and  C_9
REMARK    3  A    between atoms: C_9  and  C_10
REMARK    4  A    between atoms: C_10  and  C_13
REMARK    5  A    between atoms: C_15  and  N_16
REMARK    6  A    between atoms: C_23  and  C_24
REMARK                            x       y       z     vdW  Elec       q    Type
REMARK                         _______ _______ _______ _____ _____    ______ ____
ROOT
ATOM      1  C   UNL     1      48.265   8.831  13.073  0.00  0.00    +0.000 C 
ATOM      2  F   UNL     1      48.179   9.479  14.278  0.00  0.00    +0.000 F 
ATOM      3  F   UNL     1      48.953   9.689  12.261  0.00  0.00    +0.000 F 
ENDROOT
BRANCH   1   4
ATOM      4  C   UNL     1      46.896   8.493  12.512  0.00  0.00    +0.000 A 
ATOM      5  C   UNL     1      46.335   7.226  12.755  0.00  0.00    +0.000 A 
ATOM      6  C   UNL     1      45.052   6.873  12.312  0.00  0.00    +0.000 A 
ATOM      7  C   UNL     1      44.333   7.845  11.608  0.00  0.00    +0.000 A 
ATOM      8  C   UNL     1      44.841   9.136  11.388  0.00  0.00    +0.000 A 
ATOM      9  C   UNL     1      46.142   9.441  11.813  0.00  0.00    +0.000 A 
BRANCH   6  10
ATOM     10  N   UNL     1      44.506   5.643  12.592  0.00  0.00    +0.000 N 
ATOM     11  C   UNL     1      45.299   4.520  13.110  0.00  0.00    +0.000 C 
ATOM     12  C   UNL     1      45.139   3.307  12.184  0.00  0.00    +0.000 C 
ATOM     13  O   UNL     1      43.753   2.960  12.009  0.00  0.00    +0.000 OA
ATOM     14  C   UNL     1      43.027   4.065  11.442  0.00  0.00    +0.000 C 
ATOM     15  C   UNL     1      43.096   5.316  12.338  0.00  0.00    +0.000 C 
ENDBRANCH   6  10
BRANCH   8  16
ATOM     16  C   UNL     1      43.968  10.213  10.792  0.00  0.00    +0.000 C 
ATOM     17  F   UNL     1      42.853   9.735  10.173  0.00  0.00    +0.000 F 
ATOM     18  F   UNL     1      43.518  11.081  11.743  0.00  0.00    +0.000 F 
ATOM     19  F   UNL     1      44.616  10.973   9.870  0.00  0.00    +0.000 F 
ENDBRANCH   8  16
ENDBRANCH   1   4
BRANCH   1  20
ATOM     20  C   UNL     1      49.112   7.544  13.282  0.00  0.00    +0.000 C 
BRANCH  20  25
ATOM     21  C   UNL     1      48.152   4.519  17.161  0.00  0.00    +0.000 A 
ATOM     22  C   UNL     1      49.056   5.450  17.658  0.00  0.00    +0.000 A 
ATOM     23  C   UNL     1      49.533   6.450  16.808  0.00  0.00    +0.000 A 
ATOM     24  C   UNL     1      49.098   6.510  15.486  0.00  0.00    +0.000 A 
ATOM     25  N   UNL     1      49.685   7.459  14.640  0.00  0.00    +0.000 N 
ATOM     26  N   UNL     1      48.223   5.603  14.996  0.00  0.00    +0.000 NA
ATOM     27  C   UNL     1      47.773   4.629  15.834  0.00  0.00    +0.000 A 
ATOM     28  H   UNL     1      49.782   8.367  15.087  0.00  0.00    +0.000 HD
BRANCH  21  30
ATOM     29  N   UNL     1      48.259   3.147  19.161  0.00  0.00    +0.000 N 
ATOM     30  C   UNL     1      47.627   3.399  17.975  0.00  0.00    +0.000 C 
ATOM     31  O   UNL     1      46.658   2.749  17.618  0.00  0.00    +0.000 OA
ATOM     32  H   UNL     1      47.846   2.437  19.752  0.00  0.00    +0.000 HD
ATOM     33  H   UNL     1      48.897   3.802  19.595  0.00  0.00    +0.000 HD
ENDBRANCH  21  30
ENDBRANCH  20  25
ENDBRANCH   1  20
TORSDOF 6
ENDMDL
MODEL 4
REMARK VINA RESULT:    -6.947      4.973      6.759
REMARK INTER + INTRA:         -10.473
REMARK INTER:                  -9.586
REMARK INTRA:                  -0.887
REMARK UNBOUND:                -1.089
REMARK  Name = 
REMARK  6 active torsions:
REMARK  status: ('A' for Active; 'I' for Inactive)
REMARK    1  A    between atoms: C_2  and  C_4
REMARK    2  A    between atoms: N_8  and  C_9
REMARK    3  A    between atoms: C_9  and  C_10
REMARK    4  A    between atoms: C_10  and  C_13
REMARK    5  A    between atoms: C_15  and  N_16
REMARK    6  A    between atoms: C_23  and  C_24
REMARK                            x       y       z     vdW  Elec       q    Type
REMARK                         _______ _______ _______ _____ _____    ______ ____
ROOT
ATOM      1  C   UNL     1      47.769   3.550  17.193  0.00  0.00    +0.000 C 
ATOM      2  F   UNL     1      47.182   4.679  17.703  0.00  0.00    +0.000 F 
ATOM      3  F   UNL     1      47.169   2.514  17.854  0.00  0.00    +0.000 F 
ENDROOT
BRANCH   1   4
ATOM      4  C   UNL     1      49.273   3.554  17.391  0.00  0.00    +0.000 A 
ATOM      5  C   UNL     1      49.932   4.753  17.717  0.00  0.00    +0.000 A 
ATOM      6  C   UNL     1      51.310   4.811  17.968  0.00  0.00    +0.000 A 
ATOM      7  C   UNL     1      52.023   3.610  17.885  0.00  0.00    +0.000 A 
ATOM      8  C   UNL     1      51.392   2.385  17.611  0.00  0.00    +0.000 A 
ATOM      9  C   UNL     1      50.018   2.372  17.327  0.00  0.00    +0.000 A 
BRANCH   6  10
ATOM     10  N   UNL     1      51.930   5.986  18.321  0.00  0.00    +0.000 N 
ATOM     11  C   UNL     1      53.387   6.105  18.466  0.00  0.00    +0.000 C 
ATOM     12  C   UNL     1      53.723   6.630  19.869  0.00  0.00    +0.000 C 
ATOM     13  O   UNL     1      53.046   7.870  20.141  0.00  0.00    +0.000 OA
ATOM     14  C   UNL     1      51.622   7.696  20.049  0.00  0.00    +0.000 C 
ATOM     15  C   UNL     1      51.191   7.214  18.650  0.00  0.00    +0.000 C 
ENDBRANCH   6  10
BRANCH   8  16
ATOM     16  C   UNL     1      52.156   1.088  17.713  0.00  0.00    +0.000 C 
ATOM     17  F   UNL     1      53.268   1.167  18.496  0.00  0.00    +0.000 F 
ATOM     18  F   UNL     1      51.393   0.096  18.255  0.00  0.00    +0.000 F 
ATOM     19  F   UNL     1      52.574   0.621  16.507  0.00  0.00    +0.000 F 
ENDBRANCH   8  16
ENDBRANCH   1   4
BRANCH   1  20
ATOM     20  C   UNL     1      47.409   3.465  15.684  0.00  0.00    +0.000 C 
BRANCH  20  25
ATOM     21  C   UNL     1      45.161   4.895  11.438  0.00  0.00    +0.000 A 
ATOM     22  C   UNL     1      45.706   6.063  11.957  0.00  0.00    +0.000 A 
ATOM     23  C   UNL     1      46.409   6.004  13.162  0.00  0.00    +0.000 A 
ATOM     24  C   UNL     1      46.565   4.788  13.822  0.00  0.00    +0.000 A 
ATOM     25  N   UNL     1      47.180   4.793  15.081  0.00  0.00    +0.000 N 
ATOM     26  N   UNL     1      46.032   3.649  13.324  0.00  0.00    +0.000 NA
ATOM     27  C   UNL     1      45.341   3.723  12.153  0.00  0.00    +0.000 A 
ATOM     28  H   UNL     1      48.004   5.386  15.104  0.00  0.00    +0.000 HD
BRANCH  21  30
ATOM     29  N   UNL     1      45.056   4.779   9.016  0.00  0.00    +0.000 N 
ATOM     30  C   UNL     1      44.363   4.868  10.191  0.00  0.00    +0.000 C 
ATOM     31  O   UNL     1      43.143   4.896  10.212  0.00  0.00    +0.000 OA
ATOM     32  H   UNL     1      44.506   4.676   8.173  0.00  0.00    +0.000 HD
ATOM     33  H   UNL     1      46.032   4.515   8.971  0.00  0.00    +0.000 HD
ENDBRANCH  21  30
ENDBRANCH  20  25
ENDBRANCH   1  20
TORSDOF 6
ENDMDL
MODEL 5
REMARK VINA RESULT:    -6.927      3.623      6.743
REMARK INTER + INTRA:         -10.446
REMARK INTER:                  -9.182
REMARK INTRA:                  -1.264
REMARK UNBOUND:                -1.089
REMARK  Name = 
REMARK  6 active torsions:
REMARK  status: ('A' for Active; 'I' for Inactive)
REMARK    1  A    between atoms: C_2  and  C_4
REMARK    2  A    between atoms: N_8  and  C_9
REMARK    3  A    between atoms: C_9  and  C_10
REMARK    4  A    between atoms: C_10  and  C_13
REMARK    5  A    between atoms: C_15  and  N_16
REMARK    6  A    between atoms: C_23  and  C_24
REMARK                            x       y       z     vdW  Elec       q    Type
REMARK                         _______ _______ _______ _____ _____    ______ ____
ROOT
ATOM      1  C   UNL     1      48.998   7.732  13.880  0.00  0.00    +0.000 C 
ATOM      2  F   UNL     1      49.274   7.922  12.550  0.00  0.00    +0.000 F 
ATOM      3  F   UNL     1      50.223   7.612  14.477  0.00  0.00    +0.000 F 
ENDROOT
BRANCH   1   4
ATOM      4  C   UNL     1      48.133   6.507  14.110  0.00  0.00    +0.000 A 
ATOM      5  C   UNL     1      47.211   6.107  13.126  0.00  0.00    +0.000 A 
ATOM      6  C   UNL     1      46.424   4.955  13.253  0.00  0.00    +0.000 A 
ATOM      7  C   UNL     1      46.592   4.196  14.418  0.00  0.00    +0.000 A 
ATOM      8  C   UNL     1      47.537   4.536  15.400  0.00  0.00    +0.000 A 
ATOM      9  C   UNL     1      48.279   5.717  15.255  0.00  0.00    +0.000 A 
BRANCH   6  10
ATOM     10  N   UNL     1      45.556   4.560  12.263  0.00  0.00    +0.000 N 
ATOM     11  C   UNL     1      44.925   5.508  11.335  0.00  0.00    +0.000 C 
ATOM     12  C   UNL     1      43.399   5.354  11.400  0.00  0.00    +0.000 C 
ATOM     13  O   UNL     1      42.998   3.995  11.147  0.00  0.00    +0.000 OA
ATOM     14  C   UNL     1      43.588   3.109  12.114  0.00  0.00    +0.000 C 
ATOM     15  C   UNL     1      45.127   3.166  12.082  0.00  0.00    +0.000 C 
ENDBRANCH   6  10
BRANCH   8  16
ATOM     16  C   UNL     1      47.822   3.599  16.547  0.00  0.00    +0.000 C 
ATOM     17  F   UNL     1      48.710   4.094  17.453  0.00  0.00    +0.000 F 
ATOM     18  F   UNL     1      46.692   3.313  17.256  0.00  0.00    +0.000 F 
ATOM     19  F   UNL     1      48.321   2.400  16.143  0.00  0.00    +0.000 F 
ENDBRANCH   8  16
ENDBRANCH   1   4
BRANCH   1  20
ATOM     20  C   UNL     1      48.298   9.013  14.412  0.00  0.00    +0.000 C 
BRANCH  20  25
ATOM     21  C   UNL     1      44.492  10.024  11.312  0.00  0.00    +0.000 A 
ATOM     22  C   UNL     1      45.514  10.871  10.901  0.00  0.00    +0.000 A 
ATOM     23  C   UNL     1      46.734  10.837  11.577  0.00  0.00    +0.000 A 
ATOM     24  C   UNL     1      46.919   9.958  12.642  0.00  0.00    +0.000 A 
ATOM     25  N   UNL     1      48.118  10.036  13.363  0.00  0.00    +0.000 N 
ATOM     26  N   UNL     1      45.925   9.136  13.051  0.00  0.00    +0.000 NA
ATOM     27  C   UNL     1      44.738   9.186  12.387  0.00  0.00    +0.000 A 
ATOM     28  H   UNL     1      48.927  10.127  12.755  0.00  0.00    +0.000 HD
BRANCH  21  30
ATOM     29  N   UNL     1      42.431   8.862  10.769  0.00  0.00    +0.000 N 
ATOM     30  C   UNL     1      43.151  10.021  10.684  0.00  0.00    +0.000 C 
ATOM     31  O   UNL     1      42.698  11.014  10.138  0.00  0.00    +0.000 OA
ATOM     32  H   UNL     1      41.484   8.890  10.413  0.00  0.00    +0.000 HD
ATOM     33  H   UNL     1      42.667   8.113  11.408  0.00  0.00    +0.000 HD
ENDBRANCH  21  30
ENDBRANCH  20  25
ENDBRANCH   1  20
TORSDOF 6
ENDMDL
MODEL 6
REMARK VINA RESULT:    -6.908      5.028      7.202
REMARK INTER + INTRA:         -10.420
REMARK INTER:                  -9.515
REMARK INTRA:                  -0.905
REMARK UNBOUND:                -1.089
REMARK  Name = 
REMARK  6 active torsions:
REMARK  status: ('A' for Active; 'I' for Inactive)
REMARK    1  A    between atoms: C_2  and  C_4
REMARK    2  A    between atoms: N_8  and  C_9
REMARK    3  A    between atoms: C_9  and  C_10
REMARK    4  A    between atoms: C_10  and  C_13
REMARK    5  A    between atoms: C_15  and  N_16
REMARK    6  A    between atoms: C_23  and  C_24
REMARK                            x       y       z     vdW  Elec       q    Type
REMARK                         _______ _______ _______ _____ _____    ______ ____
ROOT
ATOM      1  C   UNL     1      47.790   3.933  17.149  0.00  0.00    +0.000 C 
ATOM      2  F   UNL     1      47.012   4.982  17.565  0.00  0.00    +0.000 F 
ATOM      3  F   UNL     1      47.404   2.879  17.931  0.00  0.00    +0.000 F 
ENDROOT
BRANCH   1   4
ATOM      4  C   UNL     1      49.270   4.232  17.291  0.00  0.00    +0.000 A 
ATOM      5  C   UNL     1      50.152   3.216  17.705  0.00  0.00    +0.000 A 
ATOM      6  C   UNL     1      51.536   3.413  17.802  0.00  0.00    +0.000 A 
ATOM      7  C   UNL     1      52.023   4.681  17.462  0.00  0.00    +0.000 A 
ATOM      8  C   UNL     1      51.180   5.704  16.999  0.00  0.00    +0.000 A 
ATOM      9  C   UNL     1      49.796   5.482  16.952  0.00  0.00    +0.000 A 
BRANCH   6  10
ATOM     10  N   UNL     1      52.385   2.397  18.171  0.00  0.00    +0.000 N 
ATOM     11  C   UNL     1      53.592   2.623  18.978  0.00  0.00    +0.000 C 
ATOM     12  C   UNL     1      54.818   2.077  18.234  0.00  0.00    +0.000 C 
ATOM     13  O   UNL     1      54.646   0.691  17.888  0.00  0.00    +0.000 OA
ATOM     14  C   UNL     1      53.491   0.523  17.048  0.00  0.00    +0.000 C 
ATOM     15  C   UNL     1      52.202   1.004  17.741  0.00  0.00    +0.000 C 
ENDBRANCH   6  10
BRANCH   8  16
ATOM     16  C   UNL     1      51.759   6.992  16.467  0.00  0.00    +0.000 C 
ATOM     17  F   UNL     1      53.069   6.899  16.109  0.00  0.00    +0.000 F 
ATOM     18  F   UNL     1      51.100   7.417  15.350  0.00  0.00    +0.000 F 
ATOM     19  F   UNL     1      51.682   8.017  17.357  0.00  0.00    +0.000 F 
ENDBRANCH   8  16
ENDBRANCH   1   4
BRANCH   1  20
ATOM     20  C   UNL     1      47.426   3.625  15.670  0.00  0.00    +0.000 C 
BRANCH  20  25
ATOM     21  C   UNL     1      44.928   4.050  11.345  0.00  0.00    +0.000 A 
ATOM     22  C   UNL     1      45.090   5.358  11.787  0.00  0.00    +0.000 A 
ATOM     23  C   UNL     1      45.757   5.587  12.992  0.00  0.00    +0.000 A 
ATOM     24  C   UNL     1      46.258   4.516  13.729  0.00  0.00    +0.000 A 
ATOM     25  N   UNL     1      46.821   4.783  14.983  0.00  0.00    +0.000 N 
ATOM     26  N   UNL     1      46.098   3.241  13.305  0.00  0.00    +0.000 NA
ATOM     27  C   UNL     1      45.438   3.033  12.134  0.00  0.00    +0.000 A 
ATOM     28  H   UNL     1      47.429   5.597  14.967  0.00  0.00    +0.000 HD
BRANCH  21  30
ATOM     29  N   UNL     1      43.931   4.735   9.240  0.00  0.00    +0.000 N 
ATOM     30  C   UNL     1      44.197   3.709  10.104  0.00  0.00    +0.000 C 
ATOM     31  O   UNL     1      43.870   2.560   9.850  0.00  0.00    +0.000 OA
ATOM     32  H   UNL     1      43.507   4.484   8.357  0.00  0.00    +0.000 HD
ATOM     33  H   UNL     1      44.388   5.636   9.300  0.00  0.00    +0.000 HD
ENDBRANCH  21  30
ENDBRANCH  20  25
ENDBRANCH   1  20
TORSDOF 6
ENDMDL
MODEL 7
REMARK VINA RESULT:    -6.849      4.040      8.184
REMARK INTER + INTRA:         -10.340
REMARK INTER:                  -9.309
REMARK INTRA:                  -1.031
REMARK UNBOUND:                -1.089
REMARK  Name = 
REMARK  6 active torsions:
REMARK  status: ('A' for Active; 'I' for Inactive)
REMARK    1  A    between atoms: C_2  and  C_4
REMARK    2  A    between atoms: N_8  and  C_9
REMARK    3  A    between atoms: C_9  and  C_10
REMARK    4  A    between atoms: C_10  and  C_13
REMARK    5  A    between atoms: C_15  and  N_16
REMARK    6  A    between atoms: C_23  and  C_24
REMARK                            x       y       z     vdW  Elec       q    Type
REMARK                         _______ _______ _______ _____ _____    ______ ____
ROOT
ATOM      1  C   UNL     1      48.418   7.102  12.896  0.00  0.00    +0.000 C 
ATOM      2  F   UNL     1      49.402   7.725  12.173  0.00  0.00    +0.000 F 
ATOM      3  F   UNL     1      48.739   5.773  12.851  0.00  0.00    +0.000 F 
ENDROOT
BRANCH   1   4
ATOM      4  C   UNL     1      47.038   7.371  12.326  0.00  0.00    +0.000 A 
ATOM      5  C   UNL     1      46.149   6.302  12.112  0.00  0.00    +0.000 A 
ATOM      6  C   UNL     1      44.842   6.490  11.642  0.00  0.00    +0.000 A 
ATOM      7  C   UNL     1      44.442   7.807  11.389  0.00  0.00    +0.000 A 
ATOM      8  C   UNL     1      45.284   8.904  11.636  0.00  0.00    +0.000 A 
ATOM      9  C   UNL     1      46.598   8.674  12.070  0.00  0.00    +0.000 A 
BRANCH   6  10
ATOM     10  N   UNL     1      43.976   5.436  11.475  0.00  0.00    +0.000 N 
ATOM     11  C   UNL     1      43.250   4.819  12.593  0.00  0.00    +0.000 C 
ATOM     12  C   UNL     1      43.550   3.314  12.633  0.00  0.00    +0.000 C 
ATOM     13  O   UNL     1      43.247   2.686  11.375  0.00  0.00    +0.000 OA
ATOM     14  C   UNL     1      44.024   3.277  10.319  0.00  0.00    +0.000 C 
ATOM     15  C   UNL     1      43.746   4.786  10.177  0.00  0.00    +0.000 C 
ENDBRANCH   6  10
BRANCH   8  16
ATOM     16  C   UNL     1      44.758  10.314  11.530  0.00  0.00    +0.000 C 
ATOM     17  F   UNL     1      45.580  11.250  12.082  0.00  0.00    +0.000 F 
ATOM     18  F   UNL     1      44.590  10.692  10.231  0.00  0.00    +0.000 F 
ATOM     19  F   UNL     1      43.547  10.476  12.126  0.00  0.00    +0.000 F 
ENDBRANCH   8  16
ENDBRANCH   1   4
BRANCH   1  20
ATOM     20  C   UNL     1      48.517   7.597  14.366  0.00  0.00    +0.000 C 
BRANCH  20  25
ATOM     21  C   UNL     1      50.542   4.622  17.854  0.00  0.00    +0.000 A 
ATOM     22  C   UNL     1      49.195   4.282  17.842  0.00  0.00    +0.000 A 
ATOM     23  C   UNL     1      48.338   4.946  16.963  0.00  0.00    +0.000 A 
ATOM     24  C   UNL     1      48.835   5.927  16.109  0.00  0.00    +0.000 A 
ATOM     25  N   UNL     1      47.923   6.645  15.324  0.00  0.00    +0.000 N 
ATOM     26  N   UNL     1      50.144   6.265  16.120  0.00  0.00    +0.000 NA
ATOM     27  C   UNL     1      50.967   5.616  16.988  0.00  0.00    +0.000 A 
ATOM     28  H   UNL     1      47.221   6.043  14.902  0.00  0.00    +0.000 HD
BRANCH  21  30
ATOM     29  N   UNL     1      52.066   2.811  18.396  0.00  0.00    +0.000 N 
ATOM     30  C   UNL     1      51.517   4.003  18.781  0.00  0.00    +0.000 C 
ATOM     31  O   UNL     1      51.837   4.544  19.827  0.00  0.00    +0.000 OA
ATOM     32  H   UNL     1      52.792   2.434  18.991  0.00  0.00    +0.000 HD
ATOM     33  H   UNL     1      52.010   2.460  17.448  0.00  0.00    +0.000 HD
ENDBRANCH  21  30
ENDBRANCH  20  25
ENDBRANCH   1  20
TORSDOF 6
ENDMDL
MODEL 8
REMARK VINA RESULT:    -6.711      5.419      8.330
REMARK INTER + INTRA:         -10.155
REMARK INTER:                  -9.288
REMARK INTRA:                  -0.867
REMARK UNBOUND:                -1.089
REMARK  Name = 
REMARK  6 active torsions:
REMARK  status: ('A' for Active; 'I' for Inactive)
REMARK    1  A    between atoms: C_2  and  C_4
REMARK    2  A    between atoms: N_8  and  C_9
REMARK    3  A    between atoms: C_9  and  C_10
REMARK    4  A    between atoms: C_10  and  C_13
REMARK    5  A    between atoms: C_15  and  N_16
REMARK    6  A    between atoms: C_23  and  C_24
REMARK                            x       y       z     vdW  Elec       q    Type
REMARK                         _______ _______ _______ _____ _____    ______ ____
ROOT
ATOM      1  C   UNL     1      47.923   5.071  16.766  0.00  0.00    +0.000 C 
ATOM      2  F   UNL     1      46.797   4.845  17.515  0.00  0.00    +0.000 F 
ATOM      3  F   UNL     1      48.502   6.175  17.327  0.00  0.00    +0.000 F 
ENDROOT
BRANCH   1   4
ATOM      4  C   UNL     1      47.594   5.287  15.300  0.00  0.00    +0.000 A 
ATOM      5  C   UNL     1      46.476   4.650  14.733  0.00  0.00    +0.000 A 
ATOM      6  C   UNL     1      46.087   4.853  13.402  0.00  0.00    +0.000 A 
ATOM      7  C   UNL     1      46.863   5.733  12.640  0.00  0.00    +0.000 A 
ATOM      8  C   UNL     1      47.958   6.425  13.185  0.00  0.00    +0.000 A 
ATOM      9  C   UNL     1      48.340   6.168  14.509  0.00  0.00    +0.000 A 
BRANCH   6  10
ATOM     10  N   UNL     1      44.969   4.249  12.877  0.00  0.00    +0.000 N 
ATOM     11  C   UNL     1      45.028   3.003  12.101  0.00  0.00    +0.000 C 
ATOM     12  C   UNL     1      44.373   3.219  10.730  0.00  0.00    +0.000 C 
ATOM     13  O   UNL     1      43.029   3.715  10.863  0.00  0.00    +0.000 OA
ATOM     14  C   UNL     1      43.023   4.965  11.573  0.00  0.00    +0.000 C 
ATOM     15  C   UNL     1      43.622   4.827  12.986  0.00  0.00    +0.000 C 
ENDBRANCH   6  10
BRANCH   8  16
ATOM     16  C   UNL     1      48.656   7.503  12.392  0.00  0.00    +0.000 C 
ATOM     17  F   UNL     1      50.006   7.341  12.316  0.00  0.00    +0.000 F 
ATOM     18  F   UNL     1      48.216   7.543  11.101  0.00  0.00    +0.000 F 
ATOM     19  F   UNL     1      48.452   8.749  12.894  0.00  0.00    +0.000 F 
ENDBRANCH   8  16
ENDBRANCH   1   4
BRANCH   1  20
ATOM     20  C   UNL     1      48.871   3.853  16.947  0.00  0.00    +0.000 C 
BRANCH  20  25
ATOM     21  C   UNL     1      52.980   1.192  18.021  0.00  0.00    +0.000 A 
ATOM     22  C   UNL     1      53.287   2.488  18.419  0.00  0.00    +0.000 A 
ATOM     23  C   UNL     1      52.333   3.492  18.248  0.00  0.00    +0.000 A 
ATOM     24  C   UNL     1      51.091   3.189  17.694  0.00  0.00    +0.000 A 
ATOM     25  N   UNL     1      50.207   4.245  17.437  0.00  0.00    +0.000 N 
ATOM     26  N   UNL     1      50.790   1.931  17.299  0.00  0.00    +0.000 NA
ATOM     27  C   UNL     1      51.733   0.965  17.464  0.00  0.00    +0.000 A 
ATOM     28  H   UNL     1      50.168   4.910  18.205  0.00  0.00    +0.000 HD
BRANCH  21  30
ATOM     29  N   UNL     1      54.208  -0.622  16.976  0.00  0.00    +0.000 N 
ATOM     30  C   UNL     1      53.944   0.073  18.123  0.00  0.00    +0.000 C 
ATOM     31  O   UNL     1      54.497  -0.200  19.176  0.00  0.00    +0.000 OA
ATOM     32  H   UNL     1      54.929  -1.330  17.032  0.00  0.00    +0.000 HD
ATOM     33  H   UNL     1      53.960  -0.280  16.056  0.00  0.00    +0.000 HD
ENDBRANCH  21  30
ENDBRANCH  20  25
ENDBRANCH   1  20
TORSDOF 6
ENDMDL
MODEL 9
REMARK VINA RESULT:    -6.690      4.473      6.622
REMARK INTER + INTRA:         -10.125
REMARK INTER:                  -8.835
REMARK INTRA:                  -1.291
REMARK UNBOUND:                -1.089
REMARK  Name = 
REMARK  6 active torsions:
REMARK  status: ('A' for Active; 'I' for Inactive)
REMARK    1  A    between atoms: C_2  and  C_4
REMARK    2  A    between atoms: N_8  and  C_9
REMARK    3  A    between atoms: C_9  and  C_10
REMARK    4  A    between atoms: C_10  and  C_13
REMARK    5  A    between atoms: C_15  and  N_16
REMARK    6  A    between atoms: C_23  and  C_24
REMARK                            x       y       z     vdW  Elec       q    Type
REMARK                         _______ _______ _______ _____ _____    ______ ____
ROOT
ATOM      1  C   UNL     1      49.221   8.383  14.127  0.00  0.00    +0.000 C 
ATOM      2  F   UNL     1      50.465   8.958  14.081  0.00  0.00    +0.000 F 
ATOM      3  F   UNL     1      48.380   9.325  13.601  0.00  0.00    +0.000 F 
ENDROOT
BRANCH   1   4
ATOM      4  C   UNL     1      48.827   7.997  15.540  0.00  0.00    +0.000 A 
ATOM      5  C   UNL     1      49.008   6.673  15.979  0.00  0.00    +0.000 A 
ATOM      6  C   UNL     1      48.716   6.266  17.288  0.00  0.00    +0.000 A 
ATOM      7  C   UNL     1      48.231   7.244  18.165  0.00  0.00    +0.000 A 
ATOM      8  C   UNL     1      48.083   8.586  17.776  0.00  0.00    +0.000 A 
ATOM      9  C   UNL     1      48.348   8.947  16.448  0.00  0.00    +0.000 A 
BRANCH   6  10
ATOM     10  N   UNL     1      48.936   4.976  17.709  0.00  0.00    +0.000 N 
ATOM     11  C   UNL     1      50.202   4.541  18.315  0.00  0.00    +0.000 C 
ATOM     12  C   UNL     1      50.771   3.356  17.523  0.00  0.00    +0.000 C 
ATOM     13  O   UNL     1      49.817   2.283  17.426  0.00  0.00    +0.000 OA
ATOM     14  C   UNL     1      48.618   2.735  16.772  0.00  0.00    +0.000 C 
ATOM     15  C   UNL     1      47.952   3.898  17.533  0.00  0.00    +0.000 C 
ENDBRANCH   6  10
BRANCH   8  16
ATOM     16  C   UNL     1      47.736   9.644  18.794  0.00  0.00    +0.000 C 
ATOM     17  F   UNL     1      46.693   9.308  19.603  0.00  0.00    +0.000 F 
ATOM     18  F   UNL     1      48.783   9.901  19.630  0.00  0.00    +0.000 F 
ATOM     19  F   UNL     1      47.407  10.837  18.230  0.00  0.00    +0.000 F 
ENDBRANCH   8  16
ENDBRANCH   1   4
BRANCH   1  20
ATOM     20  C   UNL     1      49.234   7.139  13.195  0.00  0.00    +0.000 C 
BRANCH  20  25
ATOM     21  C   UNL     1      44.851   4.797  12.550  0.00  0.00    +0.000 A 
ATOM     22  C   UNL     1      45.036   5.522  11.379  0.00  0.00    +0.000 A 
ATOM     23  C   UNL     1      46.186   6.301  11.242  0.00  0.00    +0.000 A 
ATOM     24  C   UNL     1      47.132   6.339  12.264  0.00  0.00    +0.000 A 
ATOM     25  N   UNL     1      48.214   7.219  12.132  0.00  0.00    +0.000 N 
ATOM     26  N   UNL     1      46.953   5.639  13.408  0.00  0.00    +0.000 NA
ATOM     27  C   UNL     1      45.823   4.891  13.531  0.00  0.00    +0.000 A 
ATOM     28  H   UNL     1      48.613   7.201  11.197  0.00  0.00    +0.000 HD
BRANCH  21  30
ATOM     29  N   UNL     1      43.739   2.639  12.544  0.00  0.00    +0.000 N 
ATOM     30  C   UNL     1      43.643   3.978  12.803  0.00  0.00    +0.000 C 
ATOM     31  O   UNL     1      42.618   4.471  13.247  0.00  0.00    +0.000 OA
ATOM     32  H   UNL     1      42.940   2.071  12.797  0.00  0.00    +0.000 HD
ATOM     33  H   UNL     1      44.623   2.166  12.409  0.00  0.00    +0.000 HD
ENDBRANCH  21  30
ENDBRANCH  20  25
ENDBRANCH   1  20
TORSDOF 6
ENDMDL
