MODEL 1
REMARK VINA RESULT:    -7.665      0.000      0.000
REMARK INTER + INTRA:         -10.150
REMARK INTER:                  -9.682
REMARK INTRA:                  -0.468
REMARK UNBOUND:                -0.468
REMARK  Name = 
REMARK  5 active torsions:
REMARK  status: ('A' for Active; 'I' for Inactive)
REMARK    1  A    between atoms: N_1  and  C_2
REMARK    2  A    between atoms: C_2  and  C_3
REMARK    3  A    between atoms: C_3  and  C_4
REMARK    4  A    between atoms: C_7  and  C_8
REMARK    5  A    between atoms: C_8  and  C_9
REMARK                            x       y       z     vdW  Elec       q    Type
REMARK                         _______ _______ _______ _____ _____    ______ ____
ROOT
ATOM      1  C   UNL     1      45.801   3.045   7.871  0.00  0.00    +0.000 A 
ATOM      2  C   UNL     1      45.223   2.170   8.800  0.00  0.00    +0.000 A 
ATOM      3  C   UNL     1      44.693   2.650  10.002  0.00  0.00    +0.000 A 
ATOM      4  C   UNL     1      44.743   4.018  10.311  0.00  0.00    +0.000 A 
ATOM      5  C   UNL     1      45.301   4.894   9.367  0.00  0.00    +0.000 A 
ATOM      6  C   UNL     1      45.824   4.414   8.164  0.00  0.00    +0.000 A 
ENDROOT
BRANCH   1   7
ATOM      7  C   UNL     1      46.433   2.527   6.602  0.00  0.00    +0.000 C 
BRANCH   7   8
ATOM      8  C   UNL     1      47.766   1.808   6.847  0.00  0.00    +0.000 C 
BRANCH   8   9
ATOM      9  N   UNL     1      48.601   1.812   5.645  0.00  0.00    +0.000 NA
ATOM     10  H   UNL     1      49.097   0.925   5.574  0.00  0.00    +0.000 HD
ATOM     11  H   UNL     1      49.313   2.538   5.720  0.00  0.00    +0.000 HD
ENDBRANCH   8   9
ENDBRANCH   7   8
ENDBRANCH   1   7
BRANCH   4  12
ATOM     12  C   UNL     1      44.330   4.531  11.681  0.00  0.00    +0.000 C 
BRANCH  12  13
ATOM     13  C   UNL     1      45.622   4.555  12.449  0.00  0.00    +0.000 A 
ATOM     14  N   UNL     1      45.934   3.498  13.204  0.00  0.00    +0.000 NA
ATOM     15  S   UNL     1      47.112   3.945  14.274  0.00  0.00    +0.000 S 
ATOM     16  C   UNL     1      47.300   5.550  13.695  0.00  0.00    +0.000 A 
ATOM     17  C   UNL     1      48.070   6.603  14.207  0.00  0.00    +0.000 A 
ATOM     18  C   UNL     1      48.070   7.805  13.504  0.00  0.00    +0.000 A 
ATOM     19  F   UNL     1      48.755   8.846  13.995  0.00  0.00    +0.000 F 
ATOM     20  C   UNL     1      47.380   7.956  12.311  0.00  0.00    +0.000 A 
ATOM     21  C   UNL     1      46.588   6.910  11.829  0.00  0.00    +0.000 A 
ATOM     22  C   UNL     1      46.506   5.696  12.554  0.00  0.00    +0.000 A 
ENDBRANCH  12  13
ENDBRANCH   4  12
TORSDOF 5
ENDMDL
MODEL 2
REMARK VINA RESULT:    -7.520      1.757      2.378
REMARK INTER + INTRA:          -9.966
REMARK INTER:                  -9.715
REMARK INTRA:                  -0.251
REMARK UNBOUND:                -0.468
REMARK  Name = 
REMARK  5 active torsions:
REMARK  status: ('A' for Active; 'I' for Inactive)
REMARK    1  A    between atoms: N_1  and  C_2
REMARK    2  A    between atoms: C_2  and  C_3
REMARK    3  A    between atoms: C_3  and  C_4
REMARK    4  A    between atoms: C_7  and  C_8
REMARK    5  A    between atoms: C_8  and  C_9
REMARK                            x       y       z     vdW  Elec       q    Type
REMARK                         _______ _______ _______ _____ _____    ______ ____
ROOT
ATOM      1  C   UNL     1      45.786   3.042   7.892  0.00  0.00    +0.000 A 
ATOM      2  C   UNL     1      45.637   4.385   8.258  0.00  0.00    +0.000 A 
ATOM      3  C   UNL     1      44.942   4.738   9.419  0.00  0.00    +0.000 A 
ATOM      4  C   UNL     1      44.364   3.753  10.235  0.00  0.00    +0.000 A 
ATOM      5  C   UNL     1      44.536   2.407   9.876  0.00  0.00    +0.000 A 
ATOM      6  C   UNL     1      45.237   2.056   8.720  0.00  0.00    +0.000 A 
ENDROOT
BRANCH   1   7
ATOM      7  C   UNL     1      46.479   2.658   6.607  0.00  0.00    +0.000 C 
BRANCH   7   8
ATOM      8  C   UNL     1      47.737   1.810   6.836  0.00  0.00    +0.000 C 
BRANCH   8   9
ATOM      9  N   UNL     1      48.604   1.815   5.657  0.00  0.00    +0.000 NA
ATOM     10  H   UNL     1      48.522   0.923   5.171  0.00  0.00    +0.000 HD
ATOM     11  H   UNL     1      49.579   1.901   5.943  0.00  0.00    +0.000 HD
ENDBRANCH   8   9
ENDBRANCH   7   8
ENDBRANCH   1   7
BRANCH   4  12
ATOM     12  C   UNL     1      43.461   4.126  11.400  0.00  0.00    +0.000 C 
BRANCH  12  13
ATOM     13  C   UNL     1      44.019   5.441  11.869  0.00  0.00    +0.000 A 
ATOM     14  N   UNL     1      43.497   6.567  11.375  0.00  0.00    +0.000 NA
ATOM     15  S   UNL     1      44.551   7.806  11.665  0.00  0.00    +0.000 S 
ATOM     16  C   UNL     1      45.702   6.881  12.541  0.00  0.00    +0.000 A 
ATOM     17  C   UNL     1      46.965   7.247  13.024  0.00  0.00    +0.000 A 
ATOM     18  C   UNL     1      47.680   6.297  13.748  0.00  0.00    +0.000 A 
ATOM     19  F   UNL     1      48.912   6.599  14.179  0.00  0.00    +0.000 F 
ATOM     20  C   UNL     1      47.155   5.046  14.033  0.00  0.00    +0.000 A 
ATOM     21  C   UNL     1      45.909   4.680  13.516  0.00  0.00    +0.000 A 
ATOM     22  C   UNL     1      45.182   5.595  12.715  0.00  0.00    +0.000 A 
ENDBRANCH  12  13
ENDBRANCH   4  12
TORSDOF 5
ENDMDL
MODEL 3
REMARK VINA RESULT:    -6.516      2.074      2.368
REMARK INTER + INTRA:          -8.698
REMARK INTER:                  -8.355
REMARK INTRA:                  -0.344
REMARK UNBOUND:                -0.468
REMARK  Name = 
REMARK  5 active torsions:
REMARK  status: ('A' for Active; 'I' for Inactive)
REMARK    1  A    between atoms: N_1  and  C_2
REMARK    2  A    between atoms: C_2  and  C_3
REMARK    3  A    between atoms: C_3  and  C_4
REMARK    4  A    between atoms: C_7  and  C_8
REMARK    5  A    between atoms: C_8  and  C_9
REMARK                            x       y       z     vdW  Elec       q    Type
REMARK                         _______ _______ _______ _____ _____    ______ ____
ROOT
ATOM      1  C   UNL     1      45.667   2.792   8.113  0.00  0.00    +0.000 A 
ATOM      2  C   UNL     1      45.005   2.096   9.132  0.00  0.00    +0.000 A 
ATOM      3  C   UNL     1      44.413   2.781  10.199  0.00  0.00    +0.000 A 
ATOM      4  C   UNL     1      44.483   4.180  10.278  0.00  0.00    +0.000 A 
ATOM      5  C   UNL     1      45.126   4.875   9.242  0.00  0.00    +0.000 A 
ATOM      6  C   UNL     1      45.711   4.190   8.174  0.00  0.00    +0.000 A 
ENDROOT
BRANCH   1   7
ATOM      7  C   UNL     1      46.363   2.057   6.993  0.00  0.00    +0.000 C 
BRANCH   7   8
ATOM      8  C   UNL     1      47.435   1.081   7.495  0.00  0.00    +0.000 C 
BRANCH   8   9
ATOM      9  N   UNL     1      46.895  -0.271   7.648  0.00  0.00    +0.000 NA
ATOM     10  H   UNL     1      46.018  -0.230   8.162  0.00  0.00    +0.000 HD
ATOM     11  H   UNL     1      47.533  -0.838   8.206  0.00  0.00    +0.000 HD
ENDBRANCH   8   9
ENDBRANCH   7   8
ENDBRANCH   1   7
BRANCH   4  12
ATOM     12  C   UNL     1      43.999   4.924  11.513  0.00  0.00    +0.000 C 
BRANCH  12  13
ATOM     13  C   UNL     1      45.142   5.845  11.838  0.00  0.00    +0.000 A 
ATOM     14  N   UNL     1      46.203   5.343  12.476  0.00  0.00    +0.000 NA
ATOM     15  S   UNL     1      47.072   6.595  13.115  0.00  0.00    +0.000 S 
ATOM     16  C   UNL     1      46.094   7.854  12.477  0.00  0.00    +0.000 A 
ATOM     17  C   UNL     1      46.154   9.236  12.704  0.00  0.00    +0.000 A 
ATOM     18  C   UNL     1      45.253  10.042  12.014  0.00  0.00    +0.000 A 
ATOM     19  F   UNL     1      45.250  11.362  12.247  0.00  0.00    +0.000 F 
ATOM     20  C   UNL     1      44.357   9.519  11.094  0.00  0.00    +0.000 A 
ATOM     21  C   UNL     1      44.284   8.137  10.903  0.00  0.00    +0.000 A 
ATOM     22  C   UNL     1      45.136   7.278  11.640  0.00  0.00    +0.000 A 
ENDBRANCH  12  13
ENDBRANCH   4  12
TORSDOF 5
ENDMDL
MODEL 4
REMARK VINA RESULT:    -6.459      3.357      6.397
REMARK INTER + INTRA:          -8.626
REMARK INTER:                  -7.994
REMARK INTRA:                  -0.632
REMARK UNBOUND:                -0.468
REMARK  Name = 
REMARK  5 active torsions:
REMARK  status: ('A' for Active; 'I' for Inactive)
REMARK    1  A    between atoms: N_1  and  C_2
REMARK    2  A    between atoms: C_2  and  C_3
REMARK    3  A    between atoms: C_3  and  C_4
REMARK    4  A    between atoms: C_7  and  C_8
REMARK    5  A    between atoms: C_8  and  C_9
REMARK                            x       y       z     vdW  Elec       q    Type
REMARK                         _______ _______ _______ _____ _____    ______ ____
ROOT
ATOM      1  C   UNL     1      47.856   6.658  13.195  0.00  0.00    +0.000 A 
ATOM      2  C   UNL     1      46.871   5.841  13.764  0.00  0.00    +0.000 A 
ATOM      3  C   UNL     1      45.635   5.665  13.134  0.00  0.00    +0.000 A 
ATOM      4  C   UNL     1      45.348   6.317  11.925  0.00  0.00    +0.000 A 
ATOM      5  C   UNL     1      46.347   7.116  11.347  0.00  0.00    +0.000 A 
ATOM      6  C   UNL     1      47.583   7.285  11.973  0.00  0.00    +0.000 A 
ENDROOT
BRANCH   1   7
ATOM      7  C   UNL     1      49.167   6.904  13.902  0.00  0.00    +0.000 C 
BRANCH   7   8
ATOM      8  C   UNL     1      49.010   7.050  15.421  0.00  0.00    +0.000 C 
BRANCH   8   9
ATOM      9  N   UNL     1      49.551   5.887  16.126  0.00  0.00    +0.000 NA
ATOM     10  H   UNL     1      48.905   5.604  16.860  0.00  0.00    +0.000 HD
ATOM     11  H   UNL     1      50.424   6.137  16.589  0.00  0.00    +0.000 HD
ENDBRANCH   8   9
ENDBRANCH   7   8
ENDBRANCH   1   7
BRANCH   4  12
ATOM     12  C   UNL     1      43.955   6.275  11.319  0.00  0.00    +0.000 C 
BRANCH  12  13
ATOM     13  C   UNL     1      43.767   4.824  10.973  0.00  0.00    +0.000 A 
ATOM     14  N   UNL     1      43.087   4.049  11.823  0.00  0.00    +0.000 NA
ATOM     15  S   UNL     1      43.415   2.468  11.471  0.00  0.00    +0.000 S 
ATOM     16  C   UNL     1      44.413   2.777  10.108  0.00  0.00    +0.000 A 
ATOM     17  C   UNL     1      45.172   1.889   9.335  0.00  0.00    +0.000 A 
ATOM     18  C   UNL     1      45.865   2.411   8.246  0.00  0.00    +0.000 A 
ATOM     19  F   UNL     1      46.640   1.597   7.517  0.00  0.00    +0.000 F 
ATOM     20  C   UNL     1      45.777   3.749   7.895  0.00  0.00    +0.000 A 
ATOM     21  C   UNL     1      45.045   4.631   8.695  0.00  0.00    +0.000 A 
ATOM     22  C   UNL     1      44.385   4.150   9.852  0.00  0.00    +0.000 A 
ENDBRANCH  12  13
ENDBRANCH   4  12
TORSDOF 5
ENDMDL
MODEL 5
REMARK VINA RESULT:    -6.115      3.324      6.832
REMARK INTER + INTRA:          -8.191
REMARK INTER:                  -8.778
REMARK INTRA:                   0.587
REMARK UNBOUND:                -0.468
REMARK  Name = 
REMARK  5 active torsions:
REMARK  status: ('A' for Active; 'I' for Inactive)
REMARK    1  A    between atoms: N_1  and  C_2
REMARK    2  A    between atoms: C_2  and  C_3
REMARK    3  A    between atoms: C_3  and  C_4
REMARK    4  A    between atoms: C_7  and  C_8
REMARK    5  A    between atoms: C_8  and  C_9
REMARK                            x       y       z     vdW  Elec       q    Type
REMARK                         _______ _______ _______ _____ _____    ______ ____
ROOT
ATOM      1  C   UNL     1      47.291   5.307  14.527  0.00  0.00    +0.000 A 
ATOM      2  C   UNL     1      47.837   6.267  13.666  0.00  0.00    +0.000 A 
ATOM      3  C   UNL     1      47.169   6.641  12.495  0.00  0.00    +0.000 A 
ATOM      4  C   UNL     1      45.943   6.049  12.150  0.00  0.00    +0.000 A 
ATOM      5  C   UNL     1      45.389   5.105  13.028  0.00  0.00    +0.000 A 
ATOM      6  C   UNL     1      46.054   4.738  14.200  0.00  0.00    +0.000 A 
ENDROOT
BRANCH   1   7
ATOM      7  C   UNL     1      48.038   4.852  15.758  0.00  0.00    +0.000 C 
BRANCH   7   8
ATOM      8  C   UNL     1      47.180   3.991  16.694  0.00  0.00    +0.000 C 
BRANCH   8   9
ATOM      9  N   UNL     1      46.795   4.732  17.895  0.00  0.00    +0.000 NA
ATOM     10  H   UNL     1      46.641   5.710  17.656  0.00  0.00    +0.000 HD
ATOM     11  H   UNL     1      47.558   4.716  18.572  0.00  0.00    +0.000 HD
ENDBRANCH   8   9
ENDBRANCH   7   8
ENDBRANCH   1   7
BRANCH   4  12
ATOM     12  C   UNL     1      45.292   6.316  10.802  0.00  0.00    +0.000 C 
BRANCH  12  13
ATOM     13  C   UNL     1      44.772   4.966  10.392  0.00  0.00    +0.000 A 
ATOM     14  N   UNL     1      43.868   4.367  11.174  0.00  0.00    +0.000 NA
ATOM     15  S   UNL     1      43.815   2.763  10.781  0.00  0.00    +0.000 S 
ATOM     16  C   UNL     1      44.942   2.843   9.488  0.00  0.00    +0.000 A 
ATOM     17  C   UNL     1      45.504   1.810   8.725  0.00  0.00    +0.000 A 
ATOM     18  C   UNL     1      46.372   2.167   7.696  0.00  0.00    +0.000 A 
ATOM     19  F   UNL     1      46.965   1.202   6.982  0.00  0.00    +0.000 F 
ATOM     20  C   UNL     1      46.642   3.492   7.392  0.00  0.00    +0.000 A 
ATOM     21  C   UNL     1      46.104   4.511   8.183  0.00  0.00    +0.000 A 
ATOM     22  C   UNL     1      45.273   4.185   9.283  0.00  0.00    +0.000 A 
ENDBRANCH  12  13
ENDBRANCH   4  12
TORSDOF 5
ENDMDL
MODEL 6
REMARK VINA RESULT:    -5.952      2.175      2.716
REMARK INTER + INTRA:          -7.986
REMARK INTER:                  -7.849
REMARK INTRA:                  -0.136
REMARK UNBOUND:                -0.468
REMARK  Name = 
REMARK  5 active torsions:
REMARK  status: ('A' for Active; 'I' for Inactive)
REMARK    1  A    between atoms: N_1  and  C_2
REMARK    2  A    between atoms: C_2  and  C_3
REMARK    3  A    between atoms: C_3  and  C_4
REMARK    4  A    between atoms: C_7  and  C_8
REMARK    5  A    between atoms: C_8  and  C_9
REMARK                            x       y       z     vdW  Elec       q    Type
REMARK                         _______ _______ _______ _____ _____    ______ ____
ROOT
ATOM      1  C   UNL     1      45.066   3.891   9.079  0.00  0.00    +0.000 A 
ATOM      2  C   UNL     1      44.557   3.157  10.158  0.00  0.00    +0.000 A 
ATOM      3  C   UNL     1      44.659   3.644  11.465  0.00  0.00    +0.000 A 
ATOM      4  C   UNL     1      45.286   4.872  11.726  0.00  0.00    +0.000 A 
ATOM      5  C   UNL     1      45.773   5.615  10.638  0.00  0.00    +0.000 A 
ATOM      6  C   UNL     1      45.665   5.130   9.332  0.00  0.00    +0.000 A 
ENDROOT
BRANCH   1   7
ATOM      7  C   UNL     1      45.017   3.341   7.673  0.00  0.00    +0.000 C 
BRANCH   7   8
ATOM      8  C   UNL     1      46.405   2.992   7.120  0.00  0.00    +0.000 C 
BRANCH   8   9
ATOM      9  N   UNL     1      46.876   4.012   6.182  0.00  0.00    +0.000 NA
ATOM     10  H   UNL     1      46.373   4.882   6.346  0.00  0.00    +0.000 HD
ATOM     11  H   UNL     1      46.664   3.729   5.226  0.00  0.00    +0.000 HD
ENDBRANCH   8   9
ENDBRANCH   7   8
ENDBRANCH   1   7
BRANCH   4  12
ATOM     12  C   UNL     1      45.558   5.332  13.149  0.00  0.00    +0.000 C 
BRANCH  12  13
ATOM     13  C   UNL     1      45.910   6.785  12.987  0.00  0.00    +0.000 A 
ATOM     14  N   UNL     1      44.917   7.669  12.857  0.00  0.00    +0.000 NA
ATOM     15  S   UNL     1      45.539   9.070  12.240  0.00  0.00    +0.000 S 
ATOM     16  C   UNL     1      47.178   8.558  12.211  0.00  0.00    +0.000 A 
ATOM     17  C   UNL     1      48.307   9.199  11.686  0.00  0.00    +0.000 A 
ATOM     18  C   UNL     1      49.538   8.567  11.839  0.00  0.00    +0.000 A 
ATOM     19  F   UNL     1      50.630   9.130  11.303  0.00  0.00    +0.000 F 
ATOM     20  C   UNL     1      49.667   7.371  12.528  0.00  0.00    +0.000 A 
ATOM     21  C   UNL     1      48.528   6.724  13.017  0.00  0.00    +0.000 A 
ATOM     22  C   UNL     1      47.250   7.301  12.818  0.00  0.00    +0.000 A 
ENDBRANCH  12  13
ENDBRANCH   4  12
TORSDOF 5
ENDMDL
MODEL 7
REMARK VINA RESULT:    -5.707      3.565      6.589
REMARK INTER + INTRA:          -7.676
REMARK INTER:                  -7.440
REMARK INTRA:                  -0.236
REMARK UNBOUND:                -0.468
REMARK  Name = 
REMARK  5 active torsions:
REMARK  status: ('A' for Active; 'I' for Inactive)
REMARK    1  A    between atoms: N_1  and  C_2
REMARK    2  A    between atoms: C_2  and  C_3
REMARK    3  A    between atoms: C_3  and  C_4
REMARK    4  A    between atoms: C_7  and  C_8
REMARK    5  A    between atoms: C_8  and  C_9
REMARK                            x       y       z     vdW  Elec       q    Type
REMARK                         _______ _______ _______ _____ _____    ______ ____
ROOT
ATOM      1  C   UNL     1      45.834   9.726  11.967  0.00  0.00    +0.000 A 
ATOM      2  C   UNL     1      47.117   9.186  12.119  0.00  0.00    +0.000 A 
ATOM      3  C   UNL     1      47.293   7.833  12.427  0.00  0.00    +0.000 A 
ATOM      4  C   UNL     1      46.185   6.989  12.605  0.00  0.00    +0.000 A 
ATOM      5  C   UNL     1      44.902   7.530  12.427  0.00  0.00    +0.000 A 
ATOM      6  C   UNL     1      44.728   8.880  12.114  0.00  0.00    +0.000 A 
ENDROOT
BRANCH   1   7
ATOM      7  C   UNL     1      45.637  11.199  11.699  0.00  0.00    +0.000 C 
BRANCH   7   8
ATOM      8  C   UNL     1      44.313  11.505  10.986  0.00  0.00    +0.000 C 
BRANCH   8   9
ATOM      9  N   UNL     1      44.472  11.466   9.531  0.00  0.00    +0.000 NA
ATOM     10  H   UNL     1      44.849  12.355   9.207  0.00  0.00    +0.000 HD
ATOM     11  H   UNL     1      43.561  11.358   9.086  0.00  0.00    +0.000 HD
ENDBRANCH   8   9
ENDBRANCH   7   8
ENDBRANCH   1   7
BRANCH   4  12
ATOM     12  C   UNL     1      46.353   5.565  13.107  0.00  0.00    +0.000 C 
BRANCH  12  13
ATOM     13  C   UNL     1      45.291   4.804  12.364  0.00  0.00    +0.000 A 
ATOM     14  N   UNL     1      44.409   4.088  13.068  0.00  0.00    +0.000 NA
ATOM     15  S   UNL     1      43.676   3.010  12.051  0.00  0.00    +0.000 S 
ATOM     16  C   UNL     1      44.460   3.534  10.616  0.00  0.00    +0.000 A 
ATOM     17  C   UNL     1      44.423   2.990   9.326  0.00  0.00    +0.000 A 
ATOM     18  C   UNL     1      45.131   3.651   8.325  0.00  0.00    +0.000 A 
ATOM     19  F   UNL     1      45.157   3.128   7.092  0.00  0.00    +0.000 F 
ATOM     20  C   UNL     1      45.811   4.834   8.569  0.00  0.00    +0.000 A 
ATOM     21  C   UNL     1      45.870   5.347   9.867  0.00  0.00    +0.000 A 
ATOM     22  C   UNL     1      45.221   4.665  10.926  0.00  0.00    +0.000 A 
ENDBRANCH  12  13
ENDBRANCH   4  12
TORSDOF 5
ENDMDL
MODEL 8
REMARK VINA RESULT:    -5.588      3.574      6.907
REMARK INTER + INTRA:          -7.526
REMARK INTER:                  -7.549
REMARK INTRA:                   0.023
REMARK UNBOUND:                -0.468
REMARK  Name = 
REMARK  5 active torsions:
REMARK  status: ('A' for Active; 'I' for Inactive)
REMARK    1  A    between atoms: N_1  and  C_2
REMARK    2  A    between atoms: C_2  and  C_3
REMARK    3  A    between atoms: C_3  and  C_4
REMARK    4  A    between atoms: C_7  and  C_8
REMARK    5  A    between atoms: C_8  and  C_9
REMARK                            x       y       z     vdW  Elec       q    Type
REMARK                         _______ _______ _______ _____ _____    ______ ____
ROOT
ATOM      1  C   UNL     1      48.286   5.267  16.016  0.00  0.00    +0.000 A 
ATOM      2  C   UNL     1      48.704   6.558  15.670  0.00  0.00    +0.000 A 
ATOM      3  C   UNL     1      48.277   7.154  14.479  0.00  0.00    +0.000 A 
ATOM      4  C   UNL     1      47.430   6.465  13.597  0.00  0.00    +0.000 A 
ATOM      5  C   UNL     1      46.995   5.180  13.959  0.00  0.00    +0.000 A 
ATOM      6  C   UNL     1      47.418   4.589  15.151  0.00  0.00    +0.000 A 
ENDROOT
BRANCH   1   7
ATOM      7  C   UNL     1      48.795   4.593  17.267  0.00  0.00    +0.000 C 
BRANCH   7   8
ATOM      8  C   UNL     1      48.640   3.067  17.230  0.00  0.00    +0.000 C 
BRANCH   8   9
ATOM      9  N   UNL     1      49.827   2.425  16.662  0.00  0.00    +0.000 NA
ATOM     10  H   UNL     1      49.868   2.614  15.662  0.00  0.00    +0.000 HD
ATOM     11  H   UNL     1      49.756   1.413  16.764  0.00  0.00    +0.000 HD
ENDBRANCH   8   9
ENDBRANCH   7   8
ENDBRANCH   1   7
BRANCH   4  12
ATOM     12  C   UNL     1      47.098   7.027  12.224  0.00  0.00    +0.000 C 
BRANCH  12  13
ATOM     13  C   UNL     1      45.723   6.485  11.947  0.00  0.00    +0.000 A 
ATOM     14  N   UNL     1      44.783   6.623  12.886  0.00  0.00    +0.000 NA
ATOM     15  S   UNL     1      43.552   5.571  12.556  0.00  0.00    +0.000 S 
ATOM     16  C   UNL     1      44.207   4.961  11.091  0.00  0.00    +0.000 A 
ATOM     17  C   UNL     1      43.756   3.915  10.275  0.00  0.00    +0.000 A 
ATOM     18  C   UNL     1      44.465   3.656   9.105  0.00  0.00    +0.000 A 
ATOM     19  F   UNL     1      44.089   2.630   8.330  0.00  0.00    +0.000 F 
ATOM     20  C   UNL     1      45.551   4.428   8.721  0.00  0.00    +0.000 A 
ATOM     21  C   UNL     1      46.012   5.445   9.560  0.00  0.00    +0.000 A 
ATOM     22  C   UNL     1      45.360   5.693  10.793  0.00  0.00    +0.000 A 
ENDBRANCH  12  13
ENDBRANCH   4  12
TORSDOF 5
ENDMDL
MODEL 9
REMARK VINA RESULT:    -5.536      4.738      7.767
REMARK INTER + INTRA:          -7.460
REMARK INTER:                  -7.287
REMARK INTRA:                  -0.173
REMARK UNBOUND:                -0.468
REMARK  Name = 
REMARK  5 active torsions:
REMARK  status: ('A' for Active; 'I' for Inactive)
REMARK    1  A    between atoms: N_1  and  C_2
REMARK    2  A    between atoms: C_2  and  C_3
REMARK    3  A    between atoms: C_3  and  C_4
REMARK    4  A    between atoms: C_7  and  C_8
REMARK    5  A    between atoms: C_8  and  C_9
REMARK                            x       y       z     vdW  Elec       q    Type
REMARK                         _______ _______ _______ _____ _____    ______ ____
ROOT
ATOM      1  C   UNL     1      51.114   2.635  17.578  0.00  0.00    +0.000 A 
ATOM      2  C   UNL     1      50.219   1.821  16.873  0.00  0.00    +0.000 A 
ATOM      3  C   UNL     1      49.001   2.331  16.409  0.00  0.00    +0.000 A 
ATOM      4  C   UNL     1      48.644   3.666  16.654  0.00  0.00    +0.000 A 
ATOM      5  C   UNL     1      49.555   4.483  17.340  0.00  0.00    +0.000 A 
ATOM      6  C   UNL     1      50.773   3.976  17.797  0.00  0.00    +0.000 A 
ENDROOT
BRANCH   1   7
ATOM      7  C   UNL     1      52.400   2.076  18.136  0.00  0.00    +0.000 C 
BRANCH   7   8
ATOM      8  C   UNL     1      52.832   0.772  17.453  0.00  0.00    +0.000 C 
BRANCH   8   9
ATOM      9  N   UNL     1      52.950  -0.321  18.419  0.00  0.00    +0.000 NA
ATOM     10  H   UNL     1      52.176  -0.276  19.079  0.00  0.00    +0.000 HD
ATOM     11  H   UNL     1      53.804  -0.211  18.965  0.00  0.00    +0.000 HD
ENDBRANCH   8   9
ENDBRANCH   7   8
ENDBRANCH   1   7
BRANCH   4  12
ATOM     12  C   UNL     1      47.257   4.185  16.311  0.00  0.00    +0.000 C 
BRANCH  12  13
ATOM     13  C   UNL     1      47.469   4.922  15.018  0.00  0.00    +0.000 A 
ATOM     14  N   UNL     1      48.247   6.008  15.025  0.00  0.00    +0.000 NA
ATOM     15  S   UNL     1      47.950   6.876  13.651  0.00  0.00    +0.000 S 
ATOM     16  C   UNL     1      46.829   5.772  12.963  0.00  0.00    +0.000 A 
ATOM     17  C   UNL     1      46.041   5.897  11.811  0.00  0.00    +0.000 A 
ATOM     18  C   UNL     1      45.239   4.815  11.457  0.00  0.00    +0.000 A 
ATOM     19  F   UNL     1      44.436   4.921  10.390  0.00  0.00    +0.000 F 
ATOM     20  C   UNL     1      45.246   3.631  12.179  0.00  0.00    +0.000 A 
ATOM     21  C   UNL     1      46.010   3.532  13.345  0.00  0.00    +0.000 A 
ATOM     22  C   UNL     1      46.784   4.637  13.777  0.00  0.00    +0.000 A 
ENDBRANCH  12  13
ENDBRANCH   4  12
TORSDOF 5
ENDMDL
