MODEL 1
REMARK VINA RESULT:    -8.424      0.000      0.000
REMARK INTER + INTRA:         -11.959
REMARK INTER:                 -10.886
REMARK INTRA:                  -1.073
REMARK UNBOUND:                -1.073
REMARK  Name = 
REMARK  5 active torsions:
REMARK  status: ('A' for Active; 'I' for Inactive)
REMARK    1  A    between atoms: C_2  and  C_4
REMARK    2  A    between atoms: C_7  and  O_8
REMARK    3  A    between atoms: O_8  and  C_9
REMARK    4  A    between atoms: C_9  and  C_10
REMARK    5  A    between atoms: C_14  and  N_15
REMARK                            x       y       z     vdW  Elec       q    Type
REMARK                         _______ _______ _______ _____ _____    ______ ____
ROOT
ATOM      1  C   UNL     1      43.826   4.849  11.371  0.00  0.00    +0.000 C 
ATOM      2  C   UNL     1      42.473   5.127  12.012  0.00  0.00    +0.000 C 
ATOM      3  C   UNL     1      43.025   6.081  11.005  0.00  0.00    +0.000 C 
ENDROOT
BRANCH   1   4
ATOM      4  C   UNL     1      45.072   4.947  12.238  0.00  0.00    +0.000 A 
ATOM      5  C   UNL     1      45.567   3.814  12.896  0.00  0.00    +0.000 A 
ATOM      6  C   UNL     1      46.771   3.858  13.589  0.00  0.00    +0.000 A 
ATOM      7  C   UNL     1      47.516   5.041  13.622  0.00  0.00    +0.000 A 
ATOM      8  C   UNL     1      47.077   6.210  12.987  0.00  0.00    +0.000 A 
ATOM      9  C   UNL     1      45.833   6.133  12.334  0.00  0.00    +0.000 A 
BRANCH   8  10
ATOM     10  N   UNL     1      47.850   7.351  12.937  0.00  0.00    +0.000 N 
ATOM     11  C   UNL     1      47.330   8.697  13.225  0.00  0.00    +0.000 C 
ATOM     12  C   UNL     1      47.829   9.673  12.147  0.00  0.00    +0.000 C 
ATOM     13  O   UNL     1      49.264   9.677  12.069  0.00  0.00    +0.000 OA
ATOM     14  C   UNL     1      49.751   8.362  11.751  0.00  0.00    +0.000 C 
ATOM     15  C   UNL     1      49.315   7.312  12.789  0.00  0.00    +0.000 C 
ENDBRANCH   8  10
ENDBRANCH   1   4
BRANCH   1  16
ATOM     16  O   UNL     1      43.746   3.687  10.510  0.00  0.00    +0.000 OA
BRANCH  16  20
ATOM     17  C   UNL     1      46.535   2.744   7.561  0.00  0.00    +0.000 A 
ATOM     18  C   UNL     1      46.202   4.090   7.756  0.00  0.00    +0.000 A 
ATOM     19  C   UNL     1      45.289   4.450   8.754  0.00  0.00    +0.000 A 
ATOM     20  C   UNL     1      44.702   3.473   9.554  0.00  0.00    +0.000 A 
ATOM     21  C   UNL     1      45.053   2.133   9.374  0.00  0.00    +0.000 A 
ATOM     22  C   UNL     1      45.958   1.765   8.375  0.00  0.00    +0.000 A 
BRANCH  17  24
ATOM     23  N   UNL     1      47.413   3.029   5.308  0.00  0.00    +0.000 N 
ATOM     24  C   UNL     1      47.443   2.314   6.474  0.00  0.00    +0.000 C 
ATOM     25  O   UNL     1      48.210   1.369   6.609  0.00  0.00    +0.000 OA
ATOM     26  H   UNL     1      48.103   2.779   4.613  0.00  0.00    +0.000 HD
ATOM     27  H   UNL     1      46.997   3.948   5.251  0.00  0.00    +0.000 HD
ENDBRANCH  17  24
ENDBRANCH  16  20
ENDBRANCH   1  16
TORSDOF 5
ENDMDL
MODEL 2
REMARK VINA RESULT:    -8.176      2.204      3.284
REMARK INTER + INTRA:         -11.639
REMARK INTER:                 -11.756
REMARK INTRA:                   0.116
REMARK UNBOUND:                -1.073
REMARK  Name = 
REMARK  5 active torsions:
REMARK  status: ('A' for Active; 'I' for Inactive)
REMARK    1  A    between atoms: C_2  and  C_4
REMARK    2  A    between atoms: C_7  and  O_8
REMARK    3  A    between atoms: O_8  and  C_9
REMARK    4  A    between atoms: C_9  and  C_10
REMARK    5  A    between atoms: C_14  and  N_15
REMARK                            x       y       z     vdW  Elec       q    Type
REMARK                         _______ _______ _______ _____ _____    ______ ____
ROOT
ATOM      1  C   UNL     1      43.999   4.727  11.601  0.00  0.00    +0.000 C 
ATOM      2  C   UNL     1      43.463   3.477  12.285  0.00  0.00    +0.000 C 
ATOM      3  C   UNL     1      42.794   4.791  12.516  0.00  0.00    +0.000 C 
ENDROOT
BRANCH   1   4
ATOM      4  C   UNL     1      45.351   5.268  12.038  0.00  0.00    +0.000 A 
ATOM      5  C   UNL     1      45.971   6.293  11.312  0.00  0.00    +0.000 A 
ATOM      6  C   UNL     1      47.145   6.883  11.767  0.00  0.00    +0.000 A 
ATOM      7  C   UNL     1      47.714   6.467  12.974  0.00  0.00    +0.000 A 
ATOM      8  C   UNL     1      47.146   5.446  13.747  0.00  0.00    +0.000 A 
ATOM      9  C   UNL     1      45.984   4.847  13.229  0.00  0.00    +0.000 A 
BRANCH   8  10
ATOM     10  N   UNL     1      47.650   5.096  14.983  0.00  0.00    +0.000 N 
ATOM     11  C   UNL     1      47.455   3.771  15.592  0.00  0.00    +0.000 C 
ATOM     12  C   UNL     1      47.050   3.946  17.065  0.00  0.00    +0.000 C 
ATOM     13  O   UNL     1      48.028   4.712  17.789  0.00  0.00    +0.000 OA
ATOM     14  C   UNL     1      48.176   6.016  17.200  0.00  0.00    +0.000 C 
ATOM     15  C   UNL     1      48.600   5.943  15.722  0.00  0.00    +0.000 C 
ENDBRANCH   8  10
ENDBRANCH   1   4
BRANCH   1  16
ATOM     16  O   UNL     1      43.782   4.652  10.171  0.00  0.00    +0.000 OA
BRANCH  16  20
ATOM     17  C   UNL     1      46.378   2.442   7.775  0.00  0.00    +0.000 A 
ATOM     18  C   UNL     1      45.605   1.760   8.722  0.00  0.00    +0.000 A 
ATOM     19  C   UNL     1      44.702   2.463   9.529  0.00  0.00    +0.000 A 
ATOM     20  C   UNL     1      44.572   3.844   9.398  0.00  0.00    +0.000 A 
ATOM     21  C   UNL     1      45.327   4.519   8.436  0.00  0.00    +0.000 A 
ATOM     22  C   UNL     1      46.235   3.825   7.633  0.00  0.00    +0.000 A 
BRANCH  17  24
ATOM     23  N   UNL     1      48.489   2.468   6.562  0.00  0.00    +0.000 N 
ATOM     24  C   UNL     1      47.393   1.747   6.950  0.00  0.00    +0.000 C 
ATOM     25  O   UNL     1      47.276   0.569   6.638  0.00  0.00    +0.000 OA
ATOM     26  H   UNL     1      49.213   1.953   6.079  0.00  0.00    +0.000 HD
ATOM     27  H   UNL     1      48.744   3.339   7.004  0.00  0.00    +0.000 HD
ENDBRANCH  17  24
ENDBRANCH  16  20
ENDBRANCH   1  16
TORSDOF 5
ENDMDL
MODEL 3
REMARK VINA RESULT:    -7.681      1.409      2.204
REMARK INTER + INTRA:         -10.999
REMARK INTER:                 -10.936
REMARK INTRA:                  -0.063
REMARK UNBOUND:                -1.073
REMARK  Name = 
REMARK  5 active torsions:
REMARK  status: ('A' for Active; 'I' for Inactive)
REMARK    1  A    between atoms: C_2  and  C_4
REMARK    2  A    between atoms: C_7  and  O_8
REMARK    3  A    between atoms: O_8  and  C_9
REMARK    4  A    between atoms: C_9  and  C_10
REMARK    5  A    between atoms: C_14  and  N_15
REMARK                            x       y       z     vdW  Elec       q    Type
REMARK                         _______ _______ _______ _____ _____    ______ ____
ROOT
ATOM      1  C   UNL     1      43.930   4.754  11.588  0.00  0.00    +0.000 C 
ATOM      2  C   UNL     1      44.214   3.550  12.477  0.00  0.00    +0.000 C 
ATOM      3  C   UNL     1      42.985   4.366  12.707  0.00  0.00    +0.000 C 
ENDROOT
BRANCH   1   4
ATOM      4  C   UNL     1      44.835   5.970  11.707  0.00  0.00    +0.000 A 
ATOM      5  C   UNL     1      44.358   7.243  11.370  0.00  0.00    +0.000 A 
ATOM      6  C   UNL     1      45.130   8.378  11.590  0.00  0.00    +0.000 A 
ATOM      7  C   UNL     1      46.396   8.261  12.171  0.00  0.00    +0.000 A 
ATOM      8  C   UNL     1      46.934   7.018  12.528  0.00  0.00    +0.000 A 
ATOM      9  C   UNL     1      46.138   5.892  12.249  0.00  0.00    +0.000 A 
BRANCH   8  10
ATOM     10  N   UNL     1      48.141   6.904  13.186  0.00  0.00    +0.000 N 
ATOM     11  C   UNL     1      48.287   6.280  14.511  0.00  0.00    +0.000 C 
ATOM     12  C   UNL     1      49.178   7.169  15.393  0.00  0.00    +0.000 C 
ATOM     13  O   UNL     1      50.460   7.395  14.782  0.00  0.00    +0.000 OA
ATOM     14  C   UNL     1      50.297   8.038  13.505  0.00  0.00    +0.000 C 
ATOM     15  C   UNL     1      49.429   7.209  12.541  0.00  0.00    +0.000 C 
ENDBRANCH   8  10
ENDBRANCH   1   4
BRANCH   1  16
ATOM     16  O   UNL     1      43.625   4.324  10.240  0.00  0.00    +0.000 OA
BRANCH  16  20
ATOM     17  C   UNL     1      46.460   2.500   7.790  0.00  0.00    +0.000 A 
ATOM     18  C   UNL     1      46.378   3.897   7.787  0.00  0.00    +0.000 A 
ATOM     19  C   UNL     1      45.456   4.549   8.614  0.00  0.00    +0.000 A 
ATOM     20  C   UNL     1      44.612   3.812   9.442  0.00  0.00    +0.000 A 
ATOM     21  C   UNL     1      44.712   2.419   9.462  0.00  0.00    +0.000 A 
ATOM     22  C   UNL     1      45.624   1.761   8.633  0.00  0.00    +0.000 A 
BRANCH  17  24
ATOM     23  N   UNL     1      48.465   2.442   6.411  0.00  0.00    +0.000 N 
ATOM     24  C   UNL     1      47.372   1.769   6.882  0.00  0.00    +0.000 C 
ATOM     25  O   UNL     1      47.176   0.601   6.572  0.00  0.00    +0.000 OA
ATOM     26  H   UNL     1      49.124   1.900   5.869  0.00  0.00    +0.000 HD
ATOM     27  H   UNL     1      48.795   3.296   6.838  0.00  0.00    +0.000 HD
ENDBRANCH  17  24
ENDBRANCH  16  20
ENDBRANCH   1  16
TORSDOF 5
ENDMDL
MODEL 4
REMARK VINA RESULT:    -6.899      3.006      7.340
REMARK INTER + INTRA:          -9.989
REMARK INTER:                  -9.130
REMARK INTRA:                  -0.859
REMARK UNBOUND:                -1.073
REMARK  Name = 
REMARK  5 active torsions:
REMARK  status: ('A' for Active; 'I' for Inactive)
REMARK    1  A    between atoms: C_2  and  C_4
REMARK    2  A    between atoms: C_7  and  O_8
REMARK    3  A    between atoms: O_8  and  C_9
REMARK    4  A    between atoms: C_9  and  C_10
REMARK    5  A    between atoms: C_14  and  N_15
REMARK                            x       y       z     vdW  Elec       q    Type
REMARK                         _______ _______ _______ _____ _____    ______ ____
ROOT
ATOM      1  C   UNL     1      46.268   7.024  12.519  0.00  0.00    +0.000 C 
ATOM      2  C   UNL     1      46.413   8.336  11.759  0.00  0.00    +0.000 C 
ATOM      3  C   UNL     1      45.768   8.328  13.106  0.00  0.00    +0.000 C 
ENDROOT
BRANCH   1   4
ATOM      4  C   UNL     1      45.302   5.979  11.981  0.00  0.00    +0.000 A 
ATOM      5  C   UNL     1      43.996   5.900  12.481  0.00  0.00    +0.000 A 
ATOM      6  C   UNL     1      43.066   5.036  11.915  0.00  0.00    +0.000 A 
ATOM      7  C   UNL     1      43.422   4.243  10.820  0.00  0.00    +0.000 A 
ATOM      8  C   UNL     1      44.712   4.272  10.275  0.00  0.00    +0.000 A 
ATOM      9  C   UNL     1      45.634   5.128  10.904  0.00  0.00    +0.000 A 
BRANCH   8  10
ATOM     10  N   UNL     1      45.043   3.564   9.138  0.00  0.00    +0.000 N 
ATOM     11  C   UNL     1      44.760   2.130   8.965  0.00  0.00    +0.000 C 
ATOM     12  C   UNL     1      46.007   1.434   8.395  0.00  0.00    +0.000 C 
ATOM     13  O   UNL     1      46.420   2.035   7.155  0.00  0.00    +0.000 OA
ATOM     14  C   UNL     1      46.728   3.426   7.354  0.00  0.00    +0.000 C 
ATOM     15  C   UNL     1      45.527   4.215   7.909  0.00  0.00    +0.000 C 
ENDBRANCH   8  10
ENDBRANCH   1   4
BRANCH   1  16
ATOM     16  O   UNL     1      47.567   6.531  12.926  0.00  0.00    +0.000 OA
BRANCH  16  20
ATOM     17  C   UNL     1      48.046   4.657  16.616  0.00  0.00    +0.000 A 
ATOM     18  C   UNL     1      48.699   5.876  16.400  0.00  0.00    +0.000 A 
ATOM     19  C   UNL     1      48.544   6.550  15.183  0.00  0.00    +0.000 A 
ATOM     20  C   UNL     1      47.743   6.010  14.179  0.00  0.00    +0.000 A 
ATOM     21  C   UNL     1      47.073   4.805  14.406  0.00  0.00    +0.000 A 
ATOM     22  C   UNL     1      47.230   4.123  15.615  0.00  0.00    +0.000 A 
BRANCH  17  24
ATOM     23  N   UNL     1      47.295   2.937  18.167  0.00  0.00    +0.000 N 
ATOM     24  C   UNL     1      48.238   3.879  17.862  0.00  0.00    +0.000 C 
ATOM     25  O   UNL     1      49.209   4.050  18.587  0.00  0.00    +0.000 OA
ATOM     26  H   UNL     1      47.490   2.353  18.969  0.00  0.00    +0.000 HD
ATOM     27  H   UNL     1      46.637   2.592  17.482  0.00  0.00    +0.000 HD
ENDBRANCH  17  24
ENDBRANCH  16  20
ENDBRANCH   1  16
TORSDOF 5
ENDMDL
MODEL 5
REMARK VINA RESULT:    -6.423      3.476      5.844
REMARK INTER + INTRA:          -9.374
REMARK INTER:                  -8.474
REMARK INTRA:                  -0.899
REMARK UNBOUND:                -1.073
REMARK  Name = 
REMARK  5 active torsions:
REMARK  status: ('A' for Active; 'I' for Inactive)
REMARK    1  A    between atoms: C_2  and  C_4
REMARK    2  A    between atoms: C_7  and  O_8
REMARK    3  A    between atoms: O_8  and  C_9
REMARK    4  A    between atoms: C_9  and  C_10
REMARK    5  A    between atoms: C_14  and  N_15
REMARK                            x       y       z     vdW  Elec       q    Type
REMARK                         _______ _______ _______ _____ _____    ______ ____
ROOT
ATOM      1  C   UNL     1      47.905   7.714  12.887  0.00  0.00    +0.000 C 
ATOM      2  C   UNL     1      48.654   8.646  11.944  0.00  0.00    +0.000 C 
ATOM      3  C   UNL     1      48.855   7.171  11.840  0.00  0.00    +0.000 C 
ENDROOT
BRANCH   1   4
ATOM      4  C   UNL     1      48.278   7.724  14.361  0.00  0.00    +0.000 A 
ATOM      5  C   UNL     1      48.239   8.918  15.093  0.00  0.00    +0.000 A 
ATOM      6  C   UNL     1      48.456   8.923  16.465  0.00  0.00    +0.000 A 
ATOM      7  C   UNL     1      48.701   7.723  17.139  0.00  0.00    +0.000 A 
ATOM      8  C   UNL     1      48.756   6.495  16.467  0.00  0.00    +0.000 A 
ATOM      9  C   UNL     1      48.574   6.540  15.073  0.00  0.00    +0.000 A 
BRANCH   8  10
ATOM     10  N   UNL     1      48.903   5.298  17.138  0.00  0.00    +0.000 N 
ATOM     11  C   UNL     1      50.124   4.923  17.868  0.00  0.00    +0.000 C 
ATOM     12  C   UNL     1      50.497   3.473  17.517  0.00  0.00    +0.000 C 
ATOM     13  O   UNL     1      49.418   2.570  17.811  0.00  0.00    +0.000 OA
ATOM     14  C   UNL     1      48.246   2.932  17.060  0.00  0.00    +0.000 C 
ATOM     15  C   UNL     1      47.782   4.369  17.359  0.00  0.00    +0.000 C 
ENDBRANCH   8  10
ENDBRANCH   1   4
BRANCH   1  16
ATOM     16  O   UNL     1      46.487   7.735  12.596  0.00  0.00    +0.000 OA
BRANCH  16  20
ATOM     17  C   UNL     1      44.568   4.189  11.547  0.00  0.00    +0.000 A 
ATOM     18  C   UNL     1      44.887   4.399  12.893  0.00  0.00    +0.000 A 
ATOM     19  C   UNL     1      45.509   5.588  13.290  0.00  0.00    +0.000 A 
ATOM     20  C   UNL     1      45.819   6.567  12.348  0.00  0.00    +0.000 A 
ATOM     21  C   UNL     1      45.477   6.365  11.008  0.00  0.00    +0.000 A 
ATOM     22  C   UNL     1      44.863   5.178  10.604  0.00  0.00    +0.000 A 
BRANCH  17  24
ATOM     23  N   UNL     1      44.586   2.285  10.029  0.00  0.00    +0.000 N 
ATOM     24  C   UNL     1      43.972   2.918  11.075  0.00  0.00    +0.000 C 
ATOM     25  O   UNL     1      42.981   2.433  11.605  0.00  0.00    +0.000 OA
ATOM     26  H   UNL     1      44.221   1.375   9.782  0.00  0.00    +0.000 HD
ATOM     27  H   UNL     1      45.529   2.508   9.744  0.00  0.00    +0.000 HD
ENDBRANCH  17  24
ENDBRANCH  16  20
ENDBRANCH   1  16
TORSDOF 5
ENDMDL
MODEL 6
REMARK VINA RESULT:    -5.961      3.492      8.326
REMARK INTER + INTRA:          -8.776
REMARK INTER:                  -7.911
REMARK INTRA:                  -0.865
REMARK UNBOUND:                -1.073
REMARK  Name = 
REMARK  5 active torsions:
REMARK  status: ('A' for Active; 'I' for Inactive)
REMARK    1  A    between atoms: C_2  and  C_4
REMARK    2  A    between atoms: C_7  and  O_8
REMARK    3  A    between atoms: O_8  and  C_9
REMARK    4  A    between atoms: C_9  and  C_10
REMARK    5  A    between atoms: C_14  and  N_15
REMARK                            x       y       z     vdW  Elec       q    Type
REMARK                         _______ _______ _______ _____ _____    ______ ____
ROOT
ATOM      1  C   UNL     1      48.607   7.331  13.037  0.00  0.00    +0.000 C 
ATOM      2  C   UNL     1      49.660   7.418  11.940  0.00  0.00    +0.000 C 
ATOM      3  C   UNL     1      49.520   8.534  12.922  0.00  0.00    +0.000 C 
ENDROOT
BRANCH   1   4
ATOM      4  C   UNL     1      47.141   7.412  12.640  0.00  0.00    +0.000 A 
ATOM      5  C   UNL     1      46.485   8.649  12.604  0.00  0.00    +0.000 A 
ATOM      6  C   UNL     1      45.185   8.755  12.126  0.00  0.00    +0.000 A 
ATOM      7  C   UNL     1      44.518   7.621  11.655  0.00  0.00    +0.000 A 
ATOM      8  C   UNL     1      45.115   6.354  11.665  0.00  0.00    +0.000 A 
ATOM      9  C   UNL     1      46.415   6.283  12.198  0.00  0.00    +0.000 A 
BRANCH   8  10
ATOM     10  N   UNL     1      44.498   5.248  11.116  0.00  0.00    +0.000 N 
ATOM     11  C   UNL     1      43.225   4.701  11.609  0.00  0.00    +0.000 C 
ATOM     12  C   UNL     1      43.341   3.173  11.725  0.00  0.00    +0.000 C 
ATOM     13  O   UNL     1      43.709   2.580  10.467  0.00  0.00    +0.000 OA
ATOM     14  C   UNL     1      44.974   3.100  10.022  0.00  0.00    +0.000 C 
ATOM     15  C   UNL     1      44.950   4.631   9.858  0.00  0.00    +0.000 C 
ENDBRANCH   8  10
ENDBRANCH   1   4
BRANCH   1  16
ATOM     16  O   UNL     1      48.948   6.287  13.981  0.00  0.00    +0.000 OA
BRANCH  16  20
ATOM     17  C   UNL     1      48.241   6.499  18.081  0.00  0.00    +0.000 A 
ATOM     18  C   UNL     1      48.667   7.656  17.420  0.00  0.00    +0.000 A 
ATOM     19  C   UNL     1      48.892   7.633  16.038  0.00  0.00    +0.000 A 
ATOM     20  C   UNL     1      48.697   6.458  15.315  0.00  0.00    +0.000 A 
ATOM     21  C   UNL     1      48.248   5.311  15.974  0.00  0.00    +0.000 A 
ATOM     22  C   UNL     1      48.030   5.324  17.353  0.00  0.00    +0.000 A 
BRANCH  17  24
ATOM     23  N   UNL     1      47.002   5.741  20.036  0.00  0.00    +0.000 N 
ATOM     24  C   UNL     1      48.058   6.462  19.551  0.00  0.00    +0.000 C 
ATOM     25  O   UNL     1      48.828   7.034  20.311  0.00  0.00    +0.000 OA
ATOM     26  H   UNL     1      46.947   5.651  21.041  0.00  0.00    +0.000 HD
ATOM     27  H   UNL     1      46.512   5.060  19.474  0.00  0.00    +0.000 HD
ENDBRANCH  17  24
ENDBRANCH  16  20
ENDBRANCH   1  16
TORSDOF 5
ENDMDL
