MODEL 1
REMARK VINA RESULT:    -7.989      0.000      0.000
REMARK INTER + INTRA:         -11.730
REMARK INTER:                 -10.792
REMARK INTRA:                  -0.938
REMARK UNBOUND:                -0.938
REMARK  Name = 
REMARK  7 active torsions:
REMARK  status: ('A' for Active; 'I' for Inactive)
REMARK    1  A    between atoms: C_1  and  C_2
REMARK    2  A    between atoms: C_4  and  C_5
REMARK    3  A    between atoms: C_5  and  N_6
REMARK    4  A    between atoms: C_7  and  C_9
REMARK    5  A    between atoms: C_16  and  C_17
REMARK    6  A    between atoms: C_17  and  N_18
REMARK    7  A    between atoms: C_19  and  C_21
REMARK                            x       y       z     vdW  Elec       q    Type
REMARK                         _______ _______ _______ _____ _____    ______ ____
ROOT
ATOM      1  C   UNL     1      45.222   9.632  12.499  0.00  0.00    +0.000 C 
ATOM      2  C   UNL     1      45.645   8.206  12.275  0.00  0.00    +0.000 A 
ATOM      3  C   UNL     1      44.901   7.428  11.364  0.00  0.00    +0.000 A 
ATOM      4  C   UNL     1      45.213   6.085  11.115  0.00  0.00    +0.000 A 
ATOM      5  C   UNL     1      46.321   5.529  11.763  0.00  0.00    +0.000 A 
ATOM      6  C   UNL     1      47.064   6.288  12.677  0.00  0.00    +0.000 A 
ATOM      7  C   UNL     1      46.725   7.621  12.970  0.00  0.00    +0.000 A 
ENDROOT
BRANCH   4   8
ATOM      8  C   UNL     1      44.360   5.268  10.178  0.00  0.00    +0.000 C 
BRANCH   8   9
ATOM      9  N   UNL     1      45.111   4.715   9.084  0.00  0.00    +0.000 N 
ATOM     10  C   UNL     1      45.285   3.356   8.938  0.00  0.00    +0.000 C 
ATOM     11  O   UNL     1      44.822   2.528   9.711  0.00  0.00    +0.000 OA
ATOM     12  H   UNL     1      45.496   5.305   8.352  0.00  0.00    +0.000 HD
BRANCH  10  13
ATOM     13  C   UNL     1      46.085   2.989   7.757  0.00  0.00    +0.000 A 
ATOM     14  C   UNL     1      46.764   1.760   7.531  0.00  0.00    +0.000 A 
ATOM     15  C   UNL     1      47.383   1.900   6.314  0.00  0.00    +0.000 A 
ATOM     16  N   UNL     1      47.067   3.152   5.878  0.00  0.00    +0.000 N 
ATOM     17  N   UNL     1      46.268   3.833   6.718  0.00  0.00    +0.000 NA
ATOM     18  H   UNL     1      47.362   3.606   5.019  0.00  0.00    +0.000 HD
ENDBRANCH  10  13
ENDBRANCH   8   9
ENDBRANCH   4   8
BRANCH   7  19
ATOM     19  C   UNL     1      47.552   8.374  13.995  0.00  0.00    +0.000 C 
BRANCH  19  20
ATOM     20  N   UNL     1      47.902   7.528  15.108  0.00  0.00    +0.000 N 
ATOM     21  C   UNL     1      49.178   7.067  15.315  0.00  0.00    +0.000 C 
ATOM     22  O   UNL     1      50.113   7.373  14.579  0.00  0.00    +0.000 OA
ATOM     23  H   UNL     1      47.130   7.054  15.564  0.00  0.00    +0.000 HD
BRANCH  21  24
ATOM     24  C   UNL     1      49.385   6.244  16.520  0.00  0.00    +0.000 A 
ATOM     25  C   UNL     1      50.307   6.632  17.483  0.00  0.00    +0.000 A 
ATOM     26  S   UNL     1      50.313   5.628  18.866  0.00  0.00    +0.000 S 
ATOM     27  C   UNL     1      49.121   4.612  18.203  0.00  0.00    +0.000 A 
ATOM     28  N   UNL     1      48.643   3.541  18.895  0.00  0.00    +0.000 NA
ATOM     29  C   UNL     1      47.749   2.854  18.264  0.00  0.00    +0.000 A 
ATOM     30  N   UNL     1      47.304   3.128  16.998  0.00  0.00    +0.000 N 
ATOM     31  C   UNL     1      47.774   4.181  16.254  0.00  0.00    +0.000 A 
ATOM     32  O   UNL     1      47.386   4.371  15.107  0.00  0.00    +0.000 OA
ATOM     33  C   UNL     1      48.741   5.019  16.936  0.00  0.00    +0.000 A 
ATOM     34  H   UNL     1      46.620   2.538  16.547  0.00  0.00    +0.000 HD
ENDBRANCH  21  24
ENDBRANCH  19  20
ENDBRANCH   7  19
TORSDOF 6
ENDMDL
MODEL 2
REMARK VINA RESULT:    -7.671      1.671      2.242
REMARK INTER + INTRA:         -11.300
REMARK INTER:                 -10.359
REMARK INTRA:                  -0.940
REMARK UNBOUND:                -0.938
REMARK  Name = 
REMARK  7 active torsions:
REMARK  status: ('A' for Active; 'I' for Inactive)
REMARK    1  A    between atoms: C_1  and  C_2
REMARK    2  A    between atoms: C_4  and  C_5
REMARK    3  A    between atoms: C_5  and  N_6
REMARK    4  A    between atoms: C_7  and  C_9
REMARK    5  A    between atoms: C_16  and  C_17
REMARK    6  A    between atoms: C_17  and  N_18
REMARK    7  A    between atoms: C_19  and  C_21
REMARK                            x       y       z     vdW  Elec       q    Type
REMARK                         _______ _______ _______ _____ _____    ______ ____
ROOT
ATOM      1  C   UNL     1      48.547   6.625  12.524  0.00  0.00    +0.000 C 
ATOM      2  C   UNL     1      47.100   6.879  12.201  0.00  0.00    +0.000 A 
ATOM      3  C   UNL     1      46.401   5.900  11.466  0.00  0.00    +0.000 A 
ATOM      4  C   UNL     1      45.058   6.070  11.103  0.00  0.00    +0.000 A 
ATOM      5  C   UNL     1      44.397   7.226  11.527  0.00  0.00    +0.000 A 
ATOM      6  C   UNL     1      45.081   8.212  12.250  0.00  0.00    +0.000 A 
ATOM      7  C   UNL     1      46.443   8.071  12.573  0.00  0.00    +0.000 A 
ENDROOT
BRANCH   4   8
ATOM      8  C   UNL     1      44.360   5.027  10.268  0.00  0.00    +0.000 C 
BRANCH   8   9
ATOM      9  N   UNL     1      45.153   4.589   9.151  0.00  0.00    +0.000 N 
ATOM     10  C   UNL     1      45.343   3.252   8.876  0.00  0.00    +0.000 C 
ATOM     11  O   UNL     1      44.859   2.349   9.546  0.00  0.00    +0.000 OA
ATOM     12  H   UNL     1      45.558   5.251   8.496  0.00  0.00    +0.000 HD
BRANCH  10  13
ATOM     13  C   UNL     1      46.186   3.008   7.694  0.00  0.00    +0.000 A 
ATOM     14  C   UNL     1      46.890   1.814   7.376  0.00  0.00    +0.000 A 
ATOM     15  C   UNL     1      47.546   2.077   6.199  0.00  0.00    +0.000 A 
ATOM     16  N   UNL     1      47.226   3.361   5.873  0.00  0.00    +0.000 N 
ATOM     17  N   UNL     1      46.390   3.949   6.746  0.00  0.00    +0.000 NA
ATOM     18  H   UNL     1      47.542   3.897   5.071  0.00  0.00    +0.000 HD
ENDBRANCH  10  13
ENDBRANCH   8   9
ENDBRANCH   4   8
BRANCH   7  19
ATOM     19  C   UNL     1      47.131   9.192  13.330  0.00  0.00    +0.000 C 
BRANCH  19  20
ATOM     20  N   UNL     1      47.233   8.888  14.735  0.00  0.00    +0.000 N 
ATOM     21  C   UNL     1      48.418   8.958  15.424  0.00  0.00    +0.000 C 
ATOM     22  O   UNL     1      49.466   9.313  14.890  0.00  0.00    +0.000 OA
ATOM     23  H   UNL     1      46.469   8.350  15.128  0.00  0.00    +0.000 HD
BRANCH  21  24
ATOM     24  C   UNL     1      48.353   8.655  16.864  0.00  0.00    +0.000 A 
ATOM     25  C   UNL     1      48.001   9.646  17.772  0.00  0.00    +0.000 A 
ATOM     26  S   UNL     1      47.848   9.078  19.377  0.00  0.00    +0.000 S 
ATOM     27  C   UNL     1      48.296   7.502  18.922  0.00  0.00    +0.000 A 
ATOM     28  N   UNL     1      48.347   6.493  19.834  0.00  0.00    +0.000 NA
ATOM     29  C   UNL     1      48.712   5.352  19.348  0.00  0.00    +0.000 A 
ATOM     30  N   UNL     1      49.049   5.134  18.038  0.00  0.00    +0.000 N 
ATOM     31  C   UNL     1      49.036   6.125  17.090  0.00  0.00    +0.000 A 
ATOM     32  O   UNL     1      49.386   5.904  15.936  0.00  0.00    +0.000 OA
ATOM     33  C   UNL     1      48.580   7.415  17.570  0.00  0.00    +0.000 A 
ATOM     34  H   UNL     1      49.351   4.223  17.724  0.00  0.00    +0.000 HD
ENDBRANCH  21  24
ENDBRANCH  19  20
ENDBRANCH   7  19
TORSDOF 6
ENDMDL
MODEL 3
REMARK VINA RESULT:    -7.061      4.694      7.209
REMARK INTER + INTRA:         -10.477
REMARK INTER:                  -9.538
REMARK INTRA:                  -0.938
REMARK UNBOUND:                -0.938
REMARK  Name = 
REMARK  7 active torsions:
REMARK  status: ('A' for Active; 'I' for Inactive)
REMARK    1  A    between atoms: C_1  and  C_2
REMARK    2  A    between atoms: C_4  and  C_5
REMARK    3  A    between atoms: C_5  and  N_6
REMARK    4  A    between atoms: C_7  and  C_9
REMARK    5  A    between atoms: C_16  and  C_17
REMARK    6  A    between atoms: C_17  and  N_18
REMARK    7  A    between atoms: C_19  and  C_21
REMARK                            x       y       z     vdW  Elec       q    Type
REMARK                         _______ _______ _______ _____ _____    ______ ____
ROOT
ATOM      1  C   UNL     1      47.029  10.904  11.771  0.00  0.00    +0.000 C 
ATOM      2  C   UNL     1      47.957   9.730  11.922  0.00  0.00    +0.000 A 
ATOM      3  C   UNL     1      49.294   9.881  11.502  0.00  0.00    +0.000 A 
ATOM      4  C   UNL     1      50.216   8.829  11.587  0.00  0.00    +0.000 A 
ATOM      5  C   UNL     1      49.795   7.619  12.145  0.00  0.00    +0.000 A 
ATOM      6  C   UNL     1      48.466   7.451  12.558  0.00  0.00    +0.000 A 
ATOM      7  C   UNL     1      47.522   8.486  12.429  0.00  0.00    +0.000 A 
ENDROOT
BRANCH   4   8
ATOM      8  C   UNL     1      51.623   9.010  11.074  0.00  0.00    +0.000 C 
BRANCH   8   9
ATOM      9  N   UNL     1      52.110   7.854  10.372  0.00  0.00    +0.000 N 
ATOM     10  C   UNL     1      52.639   7.946   9.103  0.00  0.00    +0.000 C 
ATOM     11  O   UNL     1      52.735   8.999   8.485  0.00  0.00    +0.000 OA
ATOM     12  H   UNL     1      52.130   6.937  10.808  0.00  0.00    +0.000 HD
BRANCH  10  13
ATOM     13  C   UNL     1      53.081   6.653   8.554  0.00  0.00    +0.000 A 
ATOM     14  C   UNL     1      52.856   6.159   7.240  0.00  0.00    +0.000 A 
ATOM     15  C   UNL     1      53.432   4.914   7.212  0.00  0.00    +0.000 A 
ATOM     16  N   UNL     1      53.954   4.718   8.455  0.00  0.00    +0.000 N 
ATOM     17  N   UNL     1      53.777   5.758   9.288  0.00  0.00    +0.000 NA
ATOM     18  H   UNL     1      54.445   3.899   8.803  0.00  0.00    +0.000 HD
ENDBRANCH  10  13
ENDBRANCH   8   9
ENDBRANCH   4   8
BRANCH   7  19
ATOM     19  C   UNL     1      46.093   8.226  12.866  0.00  0.00    +0.000 C 
BRANCH  19  20
ATOM     20  N   UNL     1      45.690   6.877  12.558  0.00  0.00    +0.000 N 
ATOM     21  C   UNL     1      44.657   6.590  11.701  0.00  0.00    +0.000 C 
ATOM     22  O   UNL     1      44.028   7.468  11.115  0.00  0.00    +0.000 OA
ATOM     23  H   UNL     1      45.999   6.163  13.209  0.00  0.00    +0.000 HD
BRANCH  21  24
ATOM     24  C   UNL     1      44.391   5.161  11.458  0.00  0.00    +0.000 A 
ATOM     25  C   UNL     1      43.676   4.415  12.388  0.00  0.00    +0.000 A 
ATOM     26  S   UNL     1      43.352   2.817  11.875  0.00  0.00    +0.000 S 
ATOM     27  C   UNL     1      44.198   3.052  10.418  0.00  0.00    +0.000 A 
ATOM     28  N   UNL     1      44.291   2.062   9.489  0.00  0.00    +0.000 NA
ATOM     29  C   UNL     1      44.972   2.378   8.438  0.00  0.00    +0.000 A 
ATOM     30  N   UNL     1      45.585   3.587   8.239  0.00  0.00    +0.000 N 
ATOM     31  C   UNL     1      45.538   4.605   9.158  0.00  0.00    +0.000 A 
ATOM     32  O   UNL     1      46.135   5.659   8.967  0.00  0.00    +0.000 OA
ATOM     33  C   UNL     1      44.740   4.323  10.334  0.00  0.00    +0.000 A 
ATOM     34  H   UNL     1      46.124   3.766   7.405  0.00  0.00    +0.000 HD
ENDBRANCH  21  24
ENDBRANCH  19  20
ENDBRANCH   7  19
TORSDOF 6
ENDMDL
MODEL 4
REMARK VINA RESULT:    -6.984      2.106      2.828
REMARK INTER + INTRA:         -10.372
REMARK INTER:                  -9.498
REMARK INTRA:                  -0.874
REMARK UNBOUND:                -0.938
REMARK  Name = 
REMARK  7 active torsions:
REMARK  status: ('A' for Active; 'I' for Inactive)
REMARK    1  A    between atoms: C_1  and  C_2
REMARK    2  A    between atoms: C_4  and  C_5
REMARK    3  A    between atoms: C_5  and  N_6
REMARK    4  A    between atoms: C_7  and  C_9
REMARK    5  A    between atoms: C_16  and  C_17
REMARK    6  A    between atoms: C_17  and  N_18
REMARK    7  A    between atoms: C_19  and  C_21
REMARK                            x       y       z     vdW  Elec       q    Type
REMARK                         _______ _______ _______ _____ _____    ______ ____
ROOT
ATOM      1  C   UNL     1      48.604   7.876  11.553  0.00  0.00    +0.000 C 
ATOM      2  C   UNL     1      47.493   6.972  12.009  0.00  0.00    +0.000 A 
ATOM      3  C   UNL     1      46.628   6.436  11.033  0.00  0.00    +0.000 A 
ATOM      4  C   UNL     1      45.554   5.604  11.376  0.00  0.00    +0.000 A 
ATOM      5  C   UNL     1      45.375   5.271  12.721  0.00  0.00    +0.000 A 
ATOM      6  C   UNL     1      46.221   5.802  13.704  0.00  0.00    +0.000 A 
ATOM      7  C   UNL     1      47.270   6.679  13.372  0.00  0.00    +0.000 A 
ENDROOT
BRANCH   4   8
ATOM      8  C   UNL     1      44.617   5.097  10.309  0.00  0.00    +0.000 C 
BRANCH   8   9
ATOM      9  N   UNL     1      45.308   4.645   9.132  0.00  0.00    +0.000 N 
ATOM     10  C   UNL     1      45.525   3.307   8.887  0.00  0.00    +0.000 C 
ATOM     11  O   UNL     1      45.152   2.413   9.636  0.00  0.00    +0.000 OA
ATOM     12  H   UNL     1      45.615   5.295   8.414  0.00  0.00    +0.000 HD
BRANCH  10  13
ATOM     13  C   UNL     1      46.251   3.048   7.632  0.00  0.00    +0.000 A 
ATOM     14  C   UNL     1      46.916   1.848   7.259  0.00  0.00    +0.000 A 
ATOM     15  C   UNL     1      47.458   2.097   6.023  0.00  0.00    +0.000 A 
ATOM     16  N   UNL     1      47.115   3.380   5.718  0.00  0.00    +0.000 N 
ATOM     17  N   UNL     1      46.368   3.980   6.661  0.00  0.00    +0.000 NA
ATOM     18  H   UNL     1      47.356   3.908   4.885  0.00  0.00    +0.000 HD
ENDBRANCH  10  13
ENDBRANCH   8   9
ENDBRANCH   4   8
BRANCH   7  19
ATOM     19  C   UNL     1      48.127   7.245  14.489  0.00  0.00    +0.000 C 
BRANCH  19  20
ATOM     20  N   UNL     1      48.881   6.206  15.145  0.00  0.00    +0.000 N 
ATOM     21  C   UNL     1      48.999   6.127  16.511  0.00  0.00    +0.000 C 
ATOM     22  O   UNL     1      48.441   6.922  17.264  0.00  0.00    +0.000 OA
ATOM     23  H   UNL     1      49.551   5.712  14.566  0.00  0.00    +0.000 HD
BRANCH  21  24
ATOM     24  C   UNL     1      49.771   4.985  17.032  0.00  0.00    +0.000 A 
ATOM     25  C   UNL     1      49.145   3.767  17.269  0.00  0.00    +0.000 A 
ATOM     26  S   UNL     1      50.223   2.528  17.743  0.00  0.00    +0.000 S 
ATOM     27  C   UNL     1      51.552   3.589  17.697  0.00  0.00    +0.000 A 
ATOM     28  N   UNL     1      52.810   3.155  17.983  0.00  0.00    +0.000 NA
ATOM     29  C   UNL     1      53.718   4.071  17.919  0.00  0.00    +0.000 A 
ATOM     30  N   UNL     1      53.481   5.386  17.615  0.00  0.00    +0.000 N 
ATOM     31  C   UNL     1      52.227   5.873  17.344  0.00  0.00    +0.000 A 
ATOM     32  O   UNL     1      52.044   7.064  17.119  0.00  0.00    +0.000 OA
ATOM     33  C   UNL     1      51.176   4.875  17.349  0.00  0.00    +0.000 A 
ATOM     34  H   UNL     1      54.231   6.061  17.604  0.00  0.00    +0.000 HD
ENDBRANCH  21  24
ENDBRANCH  19  20
ENDBRANCH   7  19
TORSDOF 6
ENDMDL
MODEL 5
REMARK VINA RESULT:    -6.882      3.549      5.007
REMARK INTER + INTRA:         -10.234
REMARK INTER:                  -9.298
REMARK INTRA:                  -0.936
REMARK UNBOUND:                -0.938
REMARK  Name = 
REMARK  7 active torsions:
REMARK  status: ('A' for Active; 'I' for Inactive)
REMARK    1  A    between atoms: C_1  and  C_2
REMARK    2  A    between atoms: C_4  and  C_5
REMARK    3  A    between atoms: C_5  and  N_6
REMARK    4  A    between atoms: C_7  and  C_9
REMARK    5  A    between atoms: C_16  and  C_17
REMARK    6  A    between atoms: C_17  and  N_18
REMARK    7  A    between atoms: C_19  and  C_21
REMARK                            x       y       z     vdW  Elec       q    Type
REMARK                         _______ _______ _______ _____ _____    ______ ____
ROOT
ATOM      1  C   UNL     1      45.040   8.775  11.647  0.00  0.00    +0.000 C 
ATOM      2  C   UNL     1      45.372   7.347  11.983  0.00  0.00    +0.000 A 
ATOM      3  C   UNL     1      44.662   6.325  11.321  0.00  0.00    +0.000 A 
ATOM      4  C   UNL     1      44.894   4.970  11.592  0.00  0.00    +0.000 A 
ATOM      5  C   UNL     1      45.890   4.639  12.515  0.00  0.00    +0.000 A 
ATOM      6  C   UNL     1      46.598   5.643  13.188  0.00  0.00    +0.000 A 
ATOM      7  C   UNL     1      46.335   7.006  12.958  0.00  0.00    +0.000 A 
ENDROOT
BRANCH   4   8
ATOM      8  C   UNL     1      44.074   3.908  10.906  0.00  0.00    +0.000 C 
BRANCH   8   9
ATOM      9  N   UNL     1      44.871   3.034  10.087  0.00  0.00    +0.000 N 
ATOM     10  C   UNL     1      45.225   3.370   8.799  0.00  0.00    +0.000 C 
ATOM     11  O   UNL     1      44.897   4.419   8.259  0.00  0.00    +0.000 OA
ATOM     12  H   UNL     1      45.245   2.162  10.450  0.00  0.00    +0.000 HD
BRANCH  10  13
ATOM     13  C   UNL     1      46.040   2.344   8.126  0.00  0.00    +0.000 A 
ATOM     14  C   UNL     1      47.004   2.553   7.102  0.00  0.00    +0.000 A 
ATOM     15  C   UNL     1      47.476   1.305   6.782  0.00  0.00    +0.000 A 
ATOM     16  N   UNL     1      46.805   0.435   7.589  0.00  0.00    +0.000 N 
ATOM     17  N   UNL     1      45.941   1.031   8.429  0.00  0.00    +0.000 NA
ATOM     18  H   UNL     1      46.888  -0.576   7.620  0.00  0.00    +0.000 HD
ENDBRANCH  10  13
ENDBRANCH   8   9
ENDBRANCH   4   8
BRANCH   7  19
ATOM     19  C   UNL     1      47.115   8.041  13.745  0.00  0.00    +0.000 C 
BRANCH  19  20
ATOM     20  N   UNL     1      48.349   8.381  13.081  0.00  0.00    +0.000 N 
ATOM     21  C   UNL     1      49.550   7.804  13.410  0.00  0.00    +0.000 C 
ATOM     22  O   UNL     1      49.646   6.935  14.273  0.00  0.00    +0.000 OA
ATOM     23  H   UNL     1      48.350   9.257  12.570  0.00  0.00    +0.000 HD
BRANCH  21  24
ATOM     24  C   UNL     1      50.715   8.229  12.613  0.00  0.00    +0.000 A 
ATOM     25  C   UNL     1      50.816   7.870  11.275  0.00  0.00    +0.000 A 
ATOM     26  S   UNL     1      52.163   8.562  10.482  0.00  0.00    +0.000 S 
ATOM     27  C   UNL     1      52.684   9.323  11.912  0.00  0.00    +0.000 A 
ATOM     28  N   UNL     1      53.795  10.109  11.927  0.00  0.00    +0.000 NA
ATOM     29  C   UNL     1      54.078  10.612  13.083  0.00  0.00    +0.000 A 
ATOM     30  N   UNL     1      53.361  10.385  14.229  0.00  0.00    +0.000 N 
ATOM     31  C   UNL     1      52.250   9.581  14.266  0.00  0.00    +0.000 A 
ATOM     32  O   UNL     1      51.659   9.365  15.318  0.00  0.00    +0.000 OA
ATOM     33  C   UNL     1      51.857   9.034  12.983  0.00  0.00    +0.000 A 
ATOM     34  H   UNL     1      53.647  10.789  15.109  0.00  0.00    +0.000 HD
ENDBRANCH  21  24
ENDBRANCH  19  20
ENDBRANCH   7  19
TORSDOF 6
ENDMDL
MODEL 6
REMARK VINA RESULT:    -6.848      1.728      2.364
REMARK INTER + INTRA:         -10.188
REMARK INTER:                  -8.946
REMARK INTRA:                  -1.242
REMARK UNBOUND:                -0.938
REMARK  Name = 
REMARK  7 active torsions:
REMARK  status: ('A' for Active; 'I' for Inactive)
REMARK    1  A    between atoms: C_1  and  C_2
REMARK    2  A    between atoms: C_4  and  C_5
REMARK    3  A    between atoms: C_5  and  N_6
REMARK    4  A    between atoms: C_7  and  C_9
REMARK    5  A    between atoms: C_16  and  C_17
REMARK    6  A    between atoms: C_17  and  N_18
REMARK    7  A    between atoms: C_19  and  C_21
REMARK                            x       y       z     vdW  Elec       q    Type
REMARK                         _______ _______ _______ _____ _____    ______ ____
ROOT
ATOM      1  C   UNL     1      49.474   7.102  12.104  0.00  0.00    +0.000 C 
ATOM      2  C   UNL     1      48.070   7.549  12.404  0.00  0.00    +0.000 A 
ATOM      3  C   UNL     1      47.025   7.033  11.611  0.00  0.00    +0.000 A 
ATOM      4  C   UNL     1      45.691   7.415  11.809  0.00  0.00    +0.000 A 
ATOM      5  C   UNL     1      45.402   8.299  12.853  0.00  0.00    +0.000 A 
ATOM      6  C   UNL     1      46.431   8.827  13.644  0.00  0.00    +0.000 A 
ATOM      7  C   UNL     1      47.777   8.487  13.417  0.00  0.00    +0.000 A 
ENDROOT
BRANCH   4   8
ATOM      8  C   UNL     1      44.608   6.887  10.904  0.00  0.00    +0.000 C 
BRANCH   8   9
ATOM      9  N   UNL     1      44.994   5.682  10.221  0.00  0.00    +0.000 N 
ATOM     10  C   UNL     1      44.221   4.542  10.267  0.00  0.00    +0.000 C 
ATOM     11  O   UNL     1      43.164   4.467  10.880  0.00  0.00    +0.000 OA
ATOM     12  H   UNL     1      45.825   5.645   9.637  0.00  0.00    +0.000 HD
BRANCH  10  13
ATOM     13  C   UNL     1      44.788   3.416   9.507  0.00  0.00    +0.000 A 
ATOM     14  C   UNL     1      45.725   3.488   8.439  0.00  0.00    +0.000 A 
ATOM     15  C   UNL     1      45.928   2.190   8.041  0.00  0.00    +0.000 A 
ATOM     16  N   UNL     1      45.140   1.425   8.848  0.00  0.00    +0.000 N 
ATOM     17  N   UNL     1      44.450   2.132   9.759  0.00  0.00    +0.000 NA
ATOM     18  H   UNL     1      45.025   0.417   8.832  0.00  0.00    +0.000 HD
ENDBRANCH  10  13
ENDBRANCH   8   9
ENDBRANCH   4   8
BRANCH   7  19
ATOM     19  C   UNL     1      48.844   9.120  14.289  0.00  0.00    +0.000 C 
BRANCH  19  20
ATOM     20  N   UNL     1      49.138   8.298  15.436  0.00  0.00    +0.000 N 
ATOM     21  C   UNL     1      48.562   8.507  16.664  0.00  0.00    +0.000 C 
ATOM     22  O   UNL     1      47.732   9.393  16.857  0.00  0.00    +0.000 OA
ATOM     23  H   UNL     1      49.990   7.750  15.381  0.00  0.00    +0.000 HD
BRANCH  21  24
ATOM     24  C   UNL     1      48.935   7.557  17.728  0.00  0.00    +0.000 A 
ATOM     25  C   UNL     1      49.453   8.022  18.930  0.00  0.00    +0.000 A 
ATOM     26  S   UNL     1      49.700   6.789  20.088  0.00  0.00    +0.000 S 
ATOM     27  C   UNL     1      49.172   5.588  19.005  0.00  0.00    +0.000 A 
ATOM     28  N   UNL     1      49.115   4.280  19.377  0.00  0.00    +0.000 NA
ATOM     29  C   UNL     1      48.706   3.479  18.449  0.00  0.00    +0.000 A 
ATOM     30  N   UNL     1      48.368   3.864  17.179  0.00  0.00    +0.000 N 
ATOM     31  C   UNL     1      48.433   5.166  16.753  0.00  0.00    +0.000 A 
ATOM     32  O   UNL     1      48.165   5.470  15.596  0.00  0.00    +0.000 OA
ATOM     33  C   UNL     1      48.835   6.116  17.771  0.00  0.00    +0.000 A 
ATOM     34  H   UNL     1      48.077   3.186  16.489  0.00  0.00    +0.000 HD
ENDBRANCH  21  24
ENDBRANCH  19  20
ENDBRANCH   7  19
TORSDOF 6
ENDMDL
MODEL 7
REMARK VINA RESULT:    -6.646      4.045      9.933
REMARK INTER + INTRA:          -9.916
REMARK INTER:                  -9.194
REMARK INTRA:                  -0.722
REMARK UNBOUND:                -0.938
REMARK  Name = 
REMARK  7 active torsions:
REMARK  status: ('A' for Active; 'I' for Inactive)
REMARK    1  A    between atoms: C_1  and  C_2
REMARK    2  A    between atoms: C_4  and  C_5
REMARK    3  A    between atoms: C_5  and  N_6
REMARK    4  A    between atoms: C_7  and  C_9
REMARK    5  A    between atoms: C_16  and  C_17
REMARK    6  A    between atoms: C_17  and  N_18
REMARK    7  A    between atoms: C_19  and  C_21
REMARK                            x       y       z     vdW  Elec       q    Type
REMARK                         _______ _______ _______ _____ _____    ______ ____
ROOT
ATOM      1  C   UNL     1      49.468   1.938  16.718  0.00  0.00    +0.000 C 
ATOM      2  C   UNL     1      49.687   3.271  17.379  0.00  0.00    +0.000 A 
ATOM      3  C   UNL     1      50.966   3.554  17.900  0.00  0.00    +0.000 A 
ATOM      4  C   UNL     1      51.246   4.762  18.551  0.00  0.00    +0.000 A 
ATOM      5  C   UNL     1      50.232   5.720  18.639  0.00  0.00    +0.000 A 
ATOM      6  C   UNL     1      48.954   5.451  18.133  0.00  0.00    +0.000 A 
ATOM      7  C   UNL     1      48.651   4.219  17.524  0.00  0.00    +0.000 A 
ENDROOT
BRANCH   4   8
ATOM      8  C   UNL     1      52.610   5.005  19.146  0.00  0.00    +0.000 C 
BRANCH   8   9
ATOM      9  N   UNL     1      53.206   3.807  19.674  0.00  0.00    +0.000 N 
ATOM     10  C   UNL     1      54.179   3.117  18.986  0.00  0.00    +0.000 C 
ATOM     11  O   UNL     1      54.607   3.462  17.891  0.00  0.00    +0.000 OA
ATOM     12  H   UNL     1      52.966   3.458  20.598  0.00  0.00    +0.000 HD
BRANCH  10  13
ATOM     13  C   UNL     1      54.660   1.917  19.691  0.00  0.00    +0.000 A 
ATOM     14  C   UNL     1      55.426   1.877  20.889  0.00  0.00    +0.000 A 
ATOM     15  C   UNL     1      55.649   0.546  21.138  0.00  0.00    +0.000 A 
ATOM     16  N   UNL     1      55.037  -0.130  20.126  0.00  0.00    +0.000 N 
ATOM     17  N   UNL     1      54.412   0.667  19.241  0.00  0.00    +0.000 NA
ATOM     18  H   UNL     1      55.005  -1.133  19.977  0.00  0.00    +0.000 HD
ENDBRANCH  10  13
ENDBRANCH   8   9
ENDBRANCH   4   8
BRANCH   7  19
ATOM     19  C   UNL     1      47.238   3.981  17.028  0.00  0.00    +0.000 C 
BRANCH  19  20
ATOM     20  N   UNL     1      46.975   4.722  15.820  0.00  0.00    +0.000 N 
ATOM     21  C   UNL     1      47.093   4.166  14.570  0.00  0.00    +0.000 C 
ATOM     22  O   UNL     1      47.402   2.988  14.403  0.00  0.00    +0.000 OA
ATOM     23  H   UNL     1      46.982   5.732  15.909  0.00  0.00    +0.000 HD
BRANCH  21  24
ATOM     24  C   UNL     1      46.753   5.041  13.434  0.00  0.00    +0.000 A 
ATOM     25  C   UNL     1      47.424   6.244  13.253  0.00  0.00    +0.000 A 
ATOM     26  S   UNL     1      46.989   7.057  11.813  0.00  0.00    +0.000 S 
ATOM     27  C   UNL     1      45.854   5.856  11.411  0.00  0.00    +0.000 A 
ATOM     28  N   UNL     1      45.127   5.929  10.263  0.00  0.00    +0.000 NA
ATOM     29  C   UNL     1      44.297   4.954  10.093  0.00  0.00    +0.000 A 
ATOM     30  N   UNL     1      44.114   3.922  10.976  0.00  0.00    +0.000 N 
ATOM     31  C   UNL     1      44.805   3.820  12.156  0.00  0.00    +0.000 A 
ATOM     32  O   UNL     1      44.584   2.907  12.944  0.00  0.00    +0.000 OA
ATOM     33  C   UNL     1      45.791   4.861  12.372  0.00  0.00    +0.000 A 
ATOM     34  H   UNL     1      43.431   3.201  10.798  0.00  0.00    +0.000 HD
ENDBRANCH  21  24
ENDBRANCH  19  20
ENDBRANCH   7  19
TORSDOF 6
ENDMDL
MODEL 8
REMARK VINA RESULT:    -6.516      3.333      4.372
REMARK INTER + INTRA:          -9.740
REMARK INTER:                  -8.800
REMARK INTRA:                  -0.940
REMARK UNBOUND:                -0.938
REMARK  Name = 
REMARK  7 active torsions:
REMARK  status: ('A' for Active; 'I' for Inactive)
REMARK    1  A    between atoms: C_1  and  C_2
REMARK    2  A    between atoms: C_4  and  C_5
REMARK    3  A    between atoms: C_5  and  N_6
REMARK    4  A    between atoms: C_7  and  C_9
REMARK    5  A    between atoms: C_16  and  C_17
REMARK    6  A    between atoms: C_17  and  N_18
REMARK    7  A    between atoms: C_19  and  C_21
REMARK                            x       y       z     vdW  Elec       q    Type
REMARK                         _______ _______ _______ _____ _____    ______ ____
ROOT
ATOM      1  C   UNL     1      48.761  10.298  15.794  0.00  0.00    +0.000 C 
ATOM      2  C   UNL     1      48.563   8.901  15.274  0.00  0.00    +0.000 A 
ATOM      3  C   UNL     1      48.002   8.742  13.991  0.00  0.00    +0.000 A 
ATOM      4  C   UNL     1      47.763   7.475  13.442  0.00  0.00    +0.000 A 
ATOM      5  C   UNL     1      48.136   6.349  14.183  0.00  0.00    +0.000 A 
ATOM      6  C   UNL     1      48.687   6.491  15.463  0.00  0.00    +0.000 A 
ATOM      7  C   UNL     1      48.883   7.759  16.041  0.00  0.00    +0.000 A 
ENDROOT
BRANCH   4   8
ATOM      8  C   UNL     1      47.108   7.345  12.091  0.00  0.00    +0.000 C 
BRANCH   8   9
ATOM      9  N   UNL     1      46.433   6.086  11.920  0.00  0.00    +0.000 N 
ATOM     10  C   UNL     1      45.124   5.907  12.310  0.00  0.00    +0.000 C 
ATOM     11  O   UNL     1      44.444   6.788  12.822  0.00  0.00    +0.000 OA
ATOM     12  H   UNL     1      46.882   5.301  11.458  0.00  0.00    +0.000 HD
BRANCH  10  13
ATOM     13  C   UNL     1      44.614   4.550  12.054  0.00  0.00    +0.000 A 
ATOM     14  C   UNL     1      44.256   3.992  10.796  0.00  0.00    +0.000 A 
ATOM     15  C   UNL     1      43.819   2.720  11.069  0.00  0.00    +0.000 A 
ATOM     16  N   UNL     1      43.924   2.572  12.419  0.00  0.00    +0.000 N 
ATOM     17  N   UNL     1      44.419   3.653  13.046  0.00  0.00    +0.000 NA
ATOM     18  H   UNL     1      43.677   1.761  12.978  0.00  0.00    +0.000 HD
ENDBRANCH  10  13
ENDBRANCH   8   9
ENDBRANCH   4   8
BRANCH   7  19
ATOM     19  C   UNL     1      49.453   7.839  17.444  0.00  0.00    +0.000 C 
BRANCH  19  20
ATOM     20  N   UNL     1      50.465   6.835  17.655  0.00  0.00    +0.000 N 
ATOM     21  C   UNL     1      50.300   5.790  18.530  0.00  0.00    +0.000 C 
ATOM     22  O   UNL     1      49.263   5.627  19.168  0.00  0.00    +0.000 OA
ATOM     23  H   UNL     1      51.403   7.082  17.358  0.00  0.00    +0.000 HD
BRANCH  21  24
ATOM     24  C   UNL     1      51.410   4.824  18.606  0.00  0.00    +0.000 A 
ATOM     25  C   UNL     1      52.593   5.167  19.249  0.00  0.00    +0.000 A 
ATOM     26  S   UNL     1      53.711   3.878  19.353  0.00  0.00    +0.000 S 
ATOM     27  C   UNL     1      52.674   2.835  18.498  0.00  0.00    +0.000 A 
ATOM     28  N   UNL     1      53.022   1.543  18.252  0.00  0.00    +0.000 NA
ATOM     29  C   UNL     1      52.143   0.871  17.583  0.00  0.00    +0.000 A 
ATOM     30  N   UNL     1      50.957   1.380  17.123  0.00  0.00    +0.000 N 
ATOM     31  C   UNL     1      50.577   2.682  17.326  0.00  0.00    +0.000 A 
ATOM     32  O   UNL     1      49.529   3.117  16.862  0.00  0.00    +0.000 OA
ATOM     33  C   UNL     1      51.503   3.467  18.118  0.00  0.00    +0.000 A 
ATOM     34  H   UNL     1      50.321   0.811  16.584  0.00  0.00    +0.000 HD
ENDBRANCH  21  24
ENDBRANCH  19  20
ENDBRANCH   7  19
TORSDOF 6
ENDMDL
MODEL 9
REMARK VINA RESULT:    -6.441      4.259      9.677
REMARK INTER + INTRA:          -9.638
REMARK INTER:                  -8.559
REMARK INTRA:                  -1.079
REMARK UNBOUND:                -0.938
REMARK  Name = 
REMARK  7 active torsions:
REMARK  status: ('A' for Active; 'I' for Inactive)
REMARK    1  A    between atoms: C_1  and  C_2
REMARK    2  A    between atoms: C_4  and  C_5
REMARK    3  A    between atoms: C_5  and  N_6
REMARK    4  A    between atoms: C_7  and  C_9
REMARK    5  A    between atoms: C_16  and  C_17
REMARK    6  A    between atoms: C_17  and  N_18
REMARK    7  A    between atoms: C_19  and  C_21
REMARK                            x       y       z     vdW  Elec       q    Type
REMARK                         _______ _______ _______ _____ _____    ______ ____
ROOT
ATOM      1  C   UNL     1      49.181   1.752  16.469  0.00  0.00    +0.000 C 
ATOM      2  C   UNL     1      49.608   2.963  17.251  0.00  0.00    +0.000 A 
ATOM      3  C   UNL     1      50.916   2.989  17.776  0.00  0.00    +0.000 A 
ATOM      4  C   UNL     1      51.385   4.069  18.536  0.00  0.00    +0.000 A 
ATOM      5  C   UNL     1      50.535   5.161  18.733  0.00  0.00    +0.000 A 
ATOM      6  C   UNL     1      49.229   5.146  18.225  0.00  0.00    +0.000 A 
ATOM      7  C   UNL     1      48.735   4.043  17.505  0.00  0.00    +0.000 A 
ENDROOT
BRANCH   4   8
ATOM      8  C   UNL     1      52.771   4.035  19.129  0.00  0.00    +0.000 C 
BRANCH   8   9
ATOM      9  N   UNL     1      53.241   2.696  19.362  0.00  0.00    +0.000 N 
ATOM     10  C   UNL     1      54.155   2.093  18.526  0.00  0.00    +0.000 C 
ATOM     11  O   UNL     1      54.631   2.638  17.538  0.00  0.00    +0.000 OA
ATOM     12  H   UNL     1      52.956   2.169  20.182  0.00  0.00    +0.000 HD
BRANCH  10  13
ATOM     13  C   UNL     1      54.509   0.722  18.933  0.00  0.00    +0.000 A 
ATOM     14  C   UNL     1      54.594  -0.424  18.096  0.00  0.00    +0.000 A 
ATOM     15  C   UNL     1      54.932  -1.462  18.928  0.00  0.00    +0.000 A 
ATOM     16  N   UNL     1      55.030  -0.922  20.175  0.00  0.00    +0.000 N 
ATOM     17  N   UNL     1      54.798   0.401  20.213  0.00  0.00    +0.000 NA
ATOM     18  H   UNL     1      55.250  -1.398  21.045  0.00  0.00    +0.000 HD
ENDBRANCH  10  13
ENDBRANCH   8   9
ENDBRANCH   4   8
BRANCH   7  19
ATOM     19  C   UNL     1      47.301   4.079  17.012  0.00  0.00    +0.000 C 
BRANCH  19  20
ATOM     20  N   UNL     1      47.166   4.934  15.859  0.00  0.00    +0.000 N 
ATOM     21  C   UNL     1      47.163   4.449  14.575  0.00  0.00    +0.000 C 
ATOM     22  O   UNL     1      47.246   3.249  14.327  0.00  0.00    +0.000 OA
ATOM     23  H   UNL     1      47.360   5.917  16.012  0.00  0.00    +0.000 HD
BRANCH  21  24
ATOM     24  C   UNL     1      46.977   5.445  13.505  0.00  0.00    +0.000 A 
ATOM     25  C   UNL     1      45.939   5.304  12.591  0.00  0.00    +0.000 A 
ATOM     26  S   UNL     1      45.800   6.620  11.509  0.00  0.00    +0.000 S 
ATOM     27  C   UNL     1      47.151   7.397  12.191  0.00  0.00    +0.000 A 
ATOM     28  N   UNL     1      47.573   8.608  11.734  0.00  0.00    +0.000 NA
ATOM     29  C   UNL     1      48.616   9.073  12.338  0.00  0.00    +0.000 A 
ATOM     30  N   UNL     1      49.287   8.428  13.344  0.00  0.00    +0.000 N 
ATOM     31  C   UNL     1      48.913   7.197  13.820  0.00  0.00    +0.000 A 
ATOM     32  O   UNL     1      49.562   6.629  14.691  0.00  0.00    +0.000 OA
ATOM     33  C   UNL     1      47.714   6.653  13.213  0.00  0.00    +0.000 A 
ATOM     34  H   UNL     1      50.113   8.833  13.761  0.00  0.00    +0.000 HD
ENDBRANCH  21  24
ENDBRANCH  19  20
ENDBRANCH   7  19
TORSDOF 6
ENDMDL
