MODEL 1
REMARK VINA RESULT:    -7.355      0.000      0.000
REMARK INTER + INTRA:         -12.546
REMARK INTER:                 -11.009
REMARK INTRA:                  -1.537
REMARK UNBOUND:                -1.537
REMARK  Name = 
REMARK  9 active torsions:
REMARK  status: ('A' for Active; 'I' for Inactive)
REMARK    1  A    between atoms: C_2  and  C_21
REMARK    2  A    between atoms: N_3  and  C_4
REMARK    3  A    between atoms: C_4  and  C_5
REMARK    4  A    between atoms: C_8  and  C_9
REMARK    5  A    between atoms: C_9  and  N_10
REMARK    6  A    between atoms: N_10  and  CA_11
REMARK    7  A    between atoms: CA_11  and  C_12
REMARK    8  A    between atoms: CA_11  and  C_14
REMARK    9  A    between atoms: C_12  and  O_13
REMARK                            x       y       z     vdW  Elec       q    Type
REMARK                         _______ _______ _______ _____ _____    ______ ____
ROOT
ATOM      1  C   UNL     1      47.611   7.626  12.973  0.00  0.00    +0.000 A 
ATOM      2  C   UNL     1      46.471   8.438  12.994  0.00  0.00    +0.000 A 
ATOM      3  C   UNL     1      45.247   7.961  12.515  0.00  0.00    +0.000 A 
ATOM      4  C   UNL     1      45.137   6.657  12.015  0.00  0.00    +0.000 A 
ATOM      5  C   UNL     1      46.274   5.836  12.017  0.00  0.00    +0.000 A 
ATOM      6  C   UNL     1      47.498   6.313  12.497  0.00  0.00    +0.000 A 
ENDROOT
BRANCH   1   7
ATOM      7  C   UNL     1      48.924   8.143  13.500  0.00  0.00    +0.000 C 
BRANCH   7  10
ATOM      8  O   UNL     1      48.177   9.124  16.035  0.00  0.00    +0.000 OA
ATOM      9  C   UNL     1      48.779   8.058  15.961  0.00  0.00    +0.000 C 
ATOM     10  N   UNL     1      49.240   7.550  14.774  0.00  0.00    +0.000 N 
ATOM     11  H   UNL     1      49.564   6.591  14.743  0.00  0.00    +0.000 HD
BRANCH   9  12
ATOM     12  C   UNL     1      49.104   7.278  17.161  0.00  0.00    +0.000 A 
ATOM     13  C   UNL     1      49.714   7.898  18.244  0.00  0.00    +0.000 A 
ATOM     14  S   UNL     1      50.044   6.841  19.542  0.00  0.00    +0.000 S 
ATOM     15  C   UNL     1      49.338   5.528  18.723  0.00  0.00    +0.000 A 
ATOM     16  N   UNL     1      49.265   4.299  19.306  0.00  0.00    +0.000 NA
ATOM     17  C   UNL     1      48.664   3.405  18.592  0.00  0.00    +0.000 A 
ATOM     18  N   UNL     1      48.137   3.626  17.347  0.00  0.00    +0.000 N 
ATOM     19  C   UNL     1      48.257   4.827  16.689  0.00  0.00    +0.000 A 
ATOM     20  O   UNL     1      47.894   4.946  15.524  0.00  0.00    +0.000 OA
ATOM     21  C   UNL     1      48.882   5.880  17.467  0.00  0.00    +0.000 A 
ATOM     22  H   UNL     1      47.706   2.875  16.828  0.00  0.00    +0.000 HD
ENDBRANCH   9  12
ENDBRANCH   7  10
ENDBRANCH   1   7
BRANCH   4  23
ATOM     23  C   UNL     1      43.808   6.126  11.529  0.00  0.00    +0.000 C 
BRANCH  23  24
ATOM     24  N   UNL     1      43.927   5.459  10.234  0.00  0.00    +0.000 NA
ATOM     25  H   UNL     1      44.811   5.687   9.789  0.00  0.00    +0.000 HD
BRANCH  24  26
ATOM     26  CA  UNL     1      43.691   3.997  10.289  0.00  0.00    +0.000 C 
BRANCH  26  27
ATOM     27  C   UNL     1      44.928   3.236   9.721  0.00  0.00    +0.000 C 
ATOM     28  C   UNL     1      45.430   3.779   8.388  0.00  0.00    +0.000 C 
ATOM     29  C   UNL     1      46.306   2.652   7.875  0.00  0.00    +0.000 C 
ATOM     30  C   UNL     1      45.673   1.390   8.439  0.00  0.00    +0.000 C 
ATOM     31  N   UNL     1      44.647   1.825   9.390  0.00  0.00    +0.000 NA
ATOM     32  H   UNL     1      44.688   1.253  10.234  0.00  0.00    +0.000 HD
ENDBRANCH  26  27
BRANCH  26  33
ATOM     33  C   UNL     1      43.363   3.481  11.714  0.00  0.00    +0.000 C 
BRANCH  33  34
ATOM     34  O   UNL     1      42.936   2.119  11.698  0.00  0.00    +0.000 OA
ATOM     35  H   UNL     1      42.068   2.098  11.263  0.00  0.00    +0.000 HD
ENDBRANCH  33  34
ENDBRANCH  26  33
ENDBRANCH  24  26
ENDBRANCH  23  24
ENDBRANCH   4  23
TORSDOF 9
ENDMDL
MODEL 2
REMARK VINA RESULT:    -6.951      2.225      2.570
REMARK INTER + INTRA:         -11.943
REMARK INTER:                 -10.619
REMARK INTRA:                  -1.324
REMARK UNBOUND:                -1.537
REMARK  Name = 
REMARK  9 active torsions:
REMARK  status: ('A' for Active; 'I' for Inactive)
REMARK    1  A    between atoms: C_2  and  C_21
REMARK    2  A    between atoms: N_3  and  C_4
REMARK    3  A    between atoms: C_4  and  C_5
REMARK    4  A    between atoms: C_8  and  C_9
REMARK    5  A    between atoms: C_9  and  N_10
REMARK    6  A    between atoms: N_10  and  CA_11
REMARK    7  A    between atoms: CA_11  and  C_12
REMARK    8  A    between atoms: CA_11  and  C_14
REMARK    9  A    between atoms: C_12  and  O_13
REMARK                            x       y       z     vdW  Elec       q    Type
REMARK                         _______ _______ _______ _____ _____    ______ ____
ROOT
ATOM      1  C   UNL     1      47.820   7.369  12.695  0.00  0.00    +0.000 A 
ATOM      2  C   UNL     1      46.795   8.236  12.299  0.00  0.00    +0.000 A 
ATOM      3  C   UNL     1      45.508   7.751  12.048  0.00  0.00    +0.000 A 
ATOM      4  C   UNL     1      45.219   6.389  12.200  0.00  0.00    +0.000 A 
ATOM      5  C   UNL     1      46.240   5.525  12.621  0.00  0.00    +0.000 A 
ATOM      6  C   UNL     1      47.527   6.011  12.873  0.00  0.00    +0.000 A 
ENDROOT
BRANCH   1   7
ATOM      7  C   UNL     1      49.202   7.901  12.974  0.00  0.00    +0.000 C 
BRANCH   7  10
ATOM      8  O   UNL     1      49.145   8.444  15.739  0.00  0.00    +0.000 OA
ATOM      9  C   UNL     1      49.717   7.435  15.341  0.00  0.00    +0.000 C 
ATOM     10  N   UNL     1      49.851   7.138  14.009  0.00  0.00    +0.000 N 
ATOM     11  H   UNL     1      50.166   6.214  13.741  0.00  0.00    +0.000 HD
BRANCH   9  12
ATOM     12  C   UNL     1      50.358   6.500  16.273  0.00  0.00    +0.000 A 
ATOM     13  C   UNL     1      49.576   5.685  17.081  0.00  0.00    +0.000 A 
ATOM     14  S   UNL     1      50.481   4.680  18.121  0.00  0.00    +0.000 S 
ATOM     15  C   UNL     1      51.951   5.262  17.494  0.00  0.00    +0.000 A 
ATOM     16  N   UNL     1      53.143   4.781  17.943  0.00  0.00    +0.000 NA
ATOM     17  C   UNL     1      54.178   5.277  17.349  0.00  0.00    +0.000 A 
ATOM     18  N   UNL     1      54.130   6.216  16.353  0.00  0.00    +0.000 N 
ATOM     19  C   UNL     1      52.955   6.788  15.923  0.00  0.00    +0.000 A 
ATOM     20  O   UNL     1      52.963   7.720  15.129  0.00  0.00    +0.000 OA
ATOM     21  C   UNL     1      51.758   6.229  16.525  0.00  0.00    +0.000 A 
ATOM     22  H   UNL     1      54.978   6.586  15.951  0.00  0.00    +0.000 HD
ENDBRANCH   9  12
ENDBRANCH   7  10
ENDBRANCH   1   7
BRANCH   4  23
ATOM     23  C   UNL     1      43.820   5.866  11.964  0.00  0.00    +0.000 C 
BRANCH  23  24
ATOM     24  N   UNL     1      43.634   5.404  10.590  0.00  0.00    +0.000 NA
ATOM     25  H   UNL     1      44.313   5.835   9.968  0.00  0.00    +0.000 HD
BRANCH  24  26
ATOM     26  CA  UNL     1      43.609   3.928  10.451  0.00  0.00    +0.000 C 
BRANCH  26  27
ATOM     27  C   UNL     1      44.891   3.441   9.710  0.00  0.00    +0.000 C 
ATOM     28  C   UNL     1      45.034   3.989   8.294  0.00  0.00    +0.000 C 
ATOM     29  C   UNL     1      46.069   3.067   7.680  0.00  0.00    +0.000 C 
ATOM     30  C   UNL     1      45.858   1.734   8.383  0.00  0.00    +0.000 C 
ATOM     31  N   UNL     1      44.916   1.984   9.477  0.00  0.00    +0.000 NA
ATOM     32  H   UNL     1      45.225   1.500  10.322  0.00  0.00    +0.000 HD
ENDBRANCH  26  27
BRANCH  26  33
ATOM     33  C   UNL     1      43.468   3.186  11.805  0.00  0.00    +0.000 C 
BRANCH  33  34
ATOM     34  O   UNL     1      43.008   1.848  11.630  0.00  0.00    +0.000 OA
ATOM     35  H   UNL     1      42.045   1.891  11.511  0.00  0.00    +0.000 HD
ENDBRANCH  33  34
ENDBRANCH  26  33
ENDBRANCH  24  26
ENDBRANCH  23  24
ENDBRANCH   4  23
TORSDOF 9
ENDMDL
MODEL 3
REMARK VINA RESULT:    -6.857      3.378      4.248
REMARK INTER + INTRA:         -11.801
REMARK INTER:                 -10.768
REMARK INTRA:                  -1.034
REMARK UNBOUND:                -1.537
REMARK  Name = 
REMARK  9 active torsions:
REMARK  status: ('A' for Active; 'I' for Inactive)
REMARK    1  A    between atoms: C_2  and  C_21
REMARK    2  A    between atoms: N_3  and  C_4
REMARK    3  A    between atoms: C_4  and  C_5
REMARK    4  A    between atoms: C_8  and  C_9
REMARK    5  A    between atoms: C_9  and  N_10
REMARK    6  A    between atoms: N_10  and  CA_11
REMARK    7  A    between atoms: CA_11  and  C_12
REMARK    8  A    between atoms: CA_11  and  C_14
REMARK    9  A    between atoms: C_12  and  O_13
REMARK                            x       y       z     vdW  Elec       q    Type
REMARK                         _______ _______ _______ _____ _____    ______ ____
ROOT
ATOM      1  C   UNL     1      48.144   5.165  16.220  0.00  0.00    +0.000 A 
ATOM      2  C   UNL     1      48.524   6.266  15.444  0.00  0.00    +0.000 A 
ATOM      3  C   UNL     1      47.972   6.468  14.176  0.00  0.00    +0.000 A 
ATOM      4  C   UNL     1      47.020   5.578  13.663  0.00  0.00    +0.000 A 
ATOM      5  C   UNL     1      46.622   4.489  14.452  0.00  0.00    +0.000 A 
ATOM      6  C   UNL     1      47.173   4.288  15.721  0.00  0.00    +0.000 A 
ENDROOT
BRANCH   1   7
ATOM      7  C   UNL     1      48.736   4.959  17.590  0.00  0.00    +0.000 C 
BRANCH   7  10
ATOM      8  O   UNL     1      50.596   4.835  19.704  0.00  0.00    +0.000 OA
ATOM      9  C   UNL     1      50.923   4.423  18.597  0.00  0.00    +0.000 C 
ATOM     10  N   UNL     1      50.103   4.515  17.502  0.00  0.00    +0.000 N 
ATOM     11  H   UNL     1      50.344   4.000  16.663  0.00  0.00    +0.000 HD
BRANCH   9  12
ATOM     12  C   UNL     1      52.254   3.854  18.355  0.00  0.00    +0.000 A 
ATOM     13  C   UNL     1      53.388   4.608  18.627  0.00  0.00    +0.000 A 
ATOM     14  S   UNL     1      54.849   3.806  18.264  0.00  0.00    +0.000 S 
ATOM     15  C   UNL     1      54.020   2.402  17.777  0.00  0.00    +0.000 A 
ATOM     16  N   UNL     1      54.700   1.296  17.365  0.00  0.00    +0.000 NA
ATOM     17  C   UNL     1      53.948   0.288  17.068  0.00  0.00    +0.000 A 
ATOM     18  N   UNL     1      52.580   0.287  17.138  0.00  0.00    +0.000 N 
ATOM     19  C   UNL     1      51.850   1.403  17.472  0.00  0.00    +0.000 A 
ATOM     20  O   UNL     1      50.627   1.403  17.391  0.00  0.00    +0.000 OA
ATOM     21  C   UNL     1      52.649   2.550  17.862  0.00  0.00    +0.000 A 
ATOM     22  H   UNL     1      52.050  -0.526  16.862  0.00  0.00    +0.000 HD
ENDBRANCH   9  12
ENDBRANCH   7  10
ENDBRANCH   1   7
BRANCH   4  23
ATOM     23  C   UNL     1      46.395   5.813  12.306  0.00  0.00    +0.000 C 
BRANCH  23  24
ATOM     24  N   UNL     1      45.239   4.948  12.081  0.00  0.00    +0.000 NA
ATOM     25  H   UNL     1      44.777   4.725  12.957  0.00  0.00    +0.000 HD
BRANCH  24  26
ATOM     26  CA  UNL     1      44.290   5.467  11.067  0.00  0.00    +0.000 C 
BRANCH  26  27
ATOM     27  C   UNL     1      44.180   4.465   9.878  0.00  0.00    +0.000 C 
ATOM     28  C   UNL     1      44.571   3.035  10.234  0.00  0.00    +0.000 C 
ATOM     29  C   UNL     1      44.785   2.396   8.876  0.00  0.00    +0.000 C 
ATOM     30  C   UNL     1      45.267   3.536   7.991  0.00  0.00    +0.000 C 
ATOM     31  N   UNL     1      45.104   4.767   8.768  0.00  0.00    +0.000 NA
ATOM     32  H   UNL     1      44.715   5.504   8.178  0.00  0.00    +0.000 HD
ENDBRANCH  26  27
BRANCH  26  33
ATOM     33  C   UNL     1      42.881   5.764  11.640  0.00  0.00    +0.000 C 
BRANCH  33  34
ATOM     34  O   UNL     1      42.813   5.501  13.041  0.00  0.00    +0.000 OA
ATOM     35  H   UNL     1      42.961   6.347  13.496  0.00  0.00    +0.000 HD
ENDBRANCH  33  34
ENDBRANCH  26  33
ENDBRANCH  24  26
ENDBRANCH  23  24
ENDBRANCH   4  23
TORSDOF 9
ENDMDL
MODEL 4
REMARK VINA RESULT:    -6.567      1.728      2.526
REMARK INTER + INTRA:         -11.368
REMARK INTER:                 -10.474
REMARK INTRA:                  -0.894
REMARK UNBOUND:                -1.537
REMARK  Name = 
REMARK  9 active torsions:
REMARK  status: ('A' for Active; 'I' for Inactive)
REMARK    1  A    between atoms: C_2  and  C_21
REMARK    2  A    between atoms: N_3  and  C_4
REMARK    3  A    between atoms: C_4  and  C_5
REMARK    4  A    between atoms: C_8  and  C_9
REMARK    5  A    between atoms: C_9  and  N_10
REMARK    6  A    between atoms: N_10  and  CA_11
REMARK    7  A    between atoms: CA_11  and  C_12
REMARK    8  A    between atoms: CA_11  and  C_14
REMARK    9  A    between atoms: C_12  and  O_13
REMARK                            x       y       z     vdW  Elec       q    Type
REMARK                         _______ _______ _______ _____ _____    ______ ____
ROOT
ATOM      1  C   UNL     1      46.703   6.895  12.777  0.00  0.00    +0.000 A 
ATOM      2  C   UNL     1      47.001   6.548  11.454  0.00  0.00    +0.000 A 
ATOM      3  C   UNL     1      46.028   5.974  10.632  0.00  0.00    +0.000 A 
ATOM      4  C   UNL     1      44.733   5.744  11.114  0.00  0.00    +0.000 A 
ATOM      5  C   UNL     1      44.429   6.115  12.432  0.00  0.00    +0.000 A 
ATOM      6  C   UNL     1      45.402   6.691  13.254  0.00  0.00    +0.000 A 
ENDROOT
BRANCH   1   7
ATOM      7  C   UNL     1      47.754   7.524  13.654  0.00  0.00    +0.000 C 
BRANCH   7  10
ATOM      8  O   UNL     1      50.132   6.886  15.026  0.00  0.00    +0.000 OA
ATOM      9  C   UNL     1      49.054   6.623  15.547  0.00  0.00    +0.000 C 
ATOM     10  N   UNL     1      47.856   6.836  14.915  0.00  0.00    +0.000 N 
ATOM     11  H   UNL     1      46.999   6.776  15.452  0.00  0.00    +0.000 HD
BRANCH   9  12
ATOM     12  C   UNL     1      48.977   5.999  16.874  0.00  0.00    +0.000 A 
ATOM     13  C   UNL     1      48.565   4.678  16.993  0.00  0.00    +0.000 A 
ATOM     14  S   UNL     1      48.508   4.121  18.604  0.00  0.00    +0.000 S 
ATOM     15  C   UNL     1      49.080   5.610  19.197  0.00  0.00    +0.000 A 
ATOM     16  N   UNL     1      49.290   5.798  20.529  0.00  0.00    +0.000 NA
ATOM     17  C   UNL     1      49.768   6.959  20.835  0.00  0.00    +0.000 A 
ATOM     18  N   UNL     1      50.048   7.951  19.933  0.00  0.00    +0.000 N 
ATOM     19  C   UNL     1      49.778   7.833  18.589  0.00  0.00    +0.000 A 
ATOM     20  O   UNL     1      49.915   8.789  17.835  0.00  0.00    +0.000 OA
ATOM     21  C   UNL     1      49.285   6.529  18.186  0.00  0.00    +0.000 A 
ATOM     22  H   UNL     1      50.392   8.848  20.241  0.00  0.00    +0.000 HD
ENDBRANCH   9  12
ENDBRANCH   7  10
ENDBRANCH   1   7
BRANCH   4  23
ATOM     23  C   UNL     1      43.668   5.154  10.217  0.00  0.00    +0.000 C 
BRANCH  23  24
ATOM     24  N   UNL     1      44.231   4.619   8.980  0.00  0.00    +0.000 NA
ATOM     25  H   UNL     1      45.100   5.090   8.744  0.00  0.00    +0.000 HD
BRANCH  24  26
ATOM     26  CA  UNL     1      44.377   3.144   8.976  0.00  0.00    +0.000 C 
BRANCH  26  27
ATOM     27  C   UNL     1      45.807   2.751   8.493  0.00  0.00    +0.000 C 
ATOM     28  C   UNL     1      46.144   3.246   7.091  0.00  0.00    +0.000 C 
ATOM     29  C   UNL     1      47.348   2.402   6.717  0.00  0.00    +0.000 C 
ATOM     30  C   UNL     1      47.137   1.089   7.455  0.00  0.00    +0.000 C 
ATOM     31  N   UNL     1      46.001   1.295   8.358  0.00  0.00    +0.000 NA
ATOM     32  H   UNL     1      46.200   0.882   9.270  0.00  0.00    +0.000 HD
ENDBRANCH  26  27
BRANCH  26  33
ATOM     33  C   UNL     1      44.090   2.495  10.355  0.00  0.00    +0.000 C 
BRANCH  33  34
ATOM     34  O   UNL     1      45.249   2.483  11.186  0.00  0.00    +0.000 OA
ATOM     35  H   UNL     1      45.161   1.723  11.786  0.00  0.00    +0.000 HD
ENDBRANCH  33  34
ENDBRANCH  26  33
ENDBRANCH  24  26
ENDBRANCH  23  24
ENDBRANCH   4  23
TORSDOF 9
ENDMDL
MODEL 5
REMARK VINA RESULT:    -6.564      3.166      7.815
REMARK INTER + INTRA:         -11.363
REMARK INTER:                 -10.261
REMARK INTRA:                  -1.102
REMARK UNBOUND:                -1.537
REMARK  Name = 
REMARK  9 active torsions:
REMARK  status: ('A' for Active; 'I' for Inactive)
REMARK    1  A    between atoms: C_2  and  C_21
REMARK    2  A    between atoms: N_3  and  C_4
REMARK    3  A    between atoms: C_4  and  C_5
REMARK    4  A    between atoms: C_8  and  C_9
REMARK    5  A    between atoms: C_9  and  N_10
REMARK    6  A    between atoms: N_10  and  CA_11
REMARK    7  A    between atoms: CA_11  and  C_12
REMARK    8  A    between atoms: CA_11  and  C_14
REMARK    9  A    between atoms: C_12  and  O_13
REMARK                            x       y       z     vdW  Elec       q    Type
REMARK                         _______ _______ _______ _____ _____    ______ ____
ROOT
ATOM      1  C   UNL     1      48.402   7.943  13.749  0.00  0.00    +0.000 A 
ATOM      2  C   UNL     1      48.862   6.732  14.280  0.00  0.00    +0.000 A 
ATOM      3  C   UNL     1      49.017   6.571  15.659  0.00  0.00    +0.000 A 
ATOM      4  C   UNL     1      48.704   7.617  16.538  0.00  0.00    +0.000 A 
ATOM      5  C   UNL     1      48.220   8.821  16.007  0.00  0.00    +0.000 A 
ATOM      6  C   UNL     1      48.064   8.981  14.627  0.00  0.00    +0.000 A 
ENDROOT
BRANCH   1   7
ATOM      7  C   UNL     1      48.228   8.105  12.262  0.00  0.00    +0.000 C 
BRANCH   7  10
ATOM      8  O   UNL     1      45.433   7.844  12.004  0.00  0.00    +0.000 OA
ATOM      9  C   UNL     1      46.159   6.965  11.550  0.00  0.00    +0.000 C 
ATOM     10  N   UNL     1      47.521   6.983  11.698  0.00  0.00    +0.000 N 
ATOM     11  H   UNL     1      48.083   6.340  11.153  0.00  0.00    +0.000 HD
BRANCH   9  12
ATOM     12  C   UNL     1      45.603   5.793  10.864  0.00  0.00    +0.000 A 
ATOM     13  C   UNL     1      45.849   5.603   9.511  0.00  0.00    +0.000 A 
ATOM     14  S   UNL     1      45.109   4.206   8.869  0.00  0.00    +0.000 S 
ATOM     15  C   UNL     1      44.475   3.778  10.388  0.00  0.00    +0.000 A 
ATOM     16  N   UNL     1      43.744   2.640  10.545  0.00  0.00    +0.000 NA
ATOM     17  C   UNL     1      43.363   2.413  11.759  0.00  0.00    +0.000 A 
ATOM     18  N   UNL     1      43.640   3.224  12.828  0.00  0.00    +0.000 N 
ATOM     19  C   UNL     1      44.305   4.420  12.703  0.00  0.00    +0.000 A 
ATOM     20  O   UNL     1      44.414   5.182  13.657  0.00  0.00    +0.000 OA
ATOM     21  C   UNL     1      44.798   4.699  11.366  0.00  0.00    +0.000 A 
ATOM     22  H   UNL     1      43.286   3.004  13.747  0.00  0.00    +0.000 HD
ENDBRANCH   9  12
ENDBRANCH   7  10
ENDBRANCH   1   7
BRANCH   4  23
ATOM     23  C   UNL     1      48.837   7.435  18.033  0.00  0.00    +0.000 C 
BRANCH  23  24
ATOM     24  N   UNL     1      47.598   6.951  18.637  0.00  0.00    +0.000 NA
ATOM     25  H   UNL     1      46.808   7.110  18.018  0.00  0.00    +0.000 HD
BRANCH  24  26
ATOM     26  CA  UNL     1      47.667   5.545  19.103  0.00  0.00    +0.000 C 
BRANCH  26  27
ATOM     27  C   UNL     1      48.277   4.643  17.987  0.00  0.00    +0.000 C 
ATOM     28  C   UNL     1      47.298   3.631  17.404  0.00  0.00    +0.000 C 
ATOM     29  C   UNL     1      48.211   2.648  16.698  0.00  0.00    +0.000 C 
ATOM     30  C   UNL     1      49.496   2.670  17.512  0.00  0.00    +0.000 C 
ATOM     31  N   UNL     1      49.367   3.772  18.468  0.00  0.00    +0.000 NA
ATOM     32  H   UNL     1      50.241   4.298  18.516  0.00  0.00    +0.000 HD
ENDBRANCH  26  27
BRANCH  26  33
ATOM     33  C   UNL     1      48.470   5.373  20.418  0.00  0.00    +0.000 C 
BRANCH  33  34
ATOM     34  O   UNL     1      48.174   4.134  21.060  0.00  0.00    +0.000 OA
ATOM     35  H   UNL     1      48.967   3.577  20.982  0.00  0.00    +0.000 HD
ENDBRANCH  33  34
ENDBRANCH  26  33
ENDBRANCH  24  26
ENDBRANCH  23  24
ENDBRANCH   4  23
TORSDOF 9
ENDMDL
MODEL 6
REMARK VINA RESULT:    -6.508      3.471      5.102
REMARK INTER + INTRA:         -11.279
REMARK INTER:                 -10.068
REMARK INTRA:                  -1.211
REMARK UNBOUND:                -1.537
REMARK  Name = 
REMARK  9 active torsions:
REMARK  status: ('A' for Active; 'I' for Inactive)
REMARK    1  A    between atoms: C_2  and  C_21
REMARK    2  A    between atoms: N_3  and  C_4
REMARK    3  A    between atoms: C_4  and  C_5
REMARK    4  A    between atoms: C_8  and  C_9
REMARK    5  A    between atoms: C_9  and  N_10
REMARK    6  A    between atoms: N_10  and  CA_11
REMARK    7  A    between atoms: CA_11  and  C_12
REMARK    8  A    between atoms: CA_11  and  C_14
REMARK    9  A    between atoms: C_12  and  O_13
REMARK                            x       y       z     vdW  Elec       q    Type
REMARK                         _______ _______ _______ _____ _____    ______ ____
ROOT
ATOM      1  C   UNL     1      47.985   6.818  13.917  0.00  0.00    +0.000 A 
ATOM      2  C   UNL     1      47.406   5.544  13.899  0.00  0.00    +0.000 A 
ATOM      3  C   UNL     1      46.282   5.283  13.110  0.00  0.00    +0.000 A 
ATOM      4  C   UNL     1      45.721   6.290  12.315  0.00  0.00    +0.000 A 
ATOM      5  C   UNL     1      46.317   7.560  12.314  0.00  0.00    +0.000 A 
ATOM      6  C   UNL     1      47.442   7.820  13.102  0.00  0.00    +0.000 A 
ENDROOT
BRANCH   1   7
ATOM      7  C   UNL     1      49.203   7.088  14.761  0.00  0.00    +0.000 C 
BRANCH   7  10
ATOM      8  O   UNL     1      50.523   9.575  14.633  0.00  0.00    +0.000 OA
ATOM      9  C   UNL     1      50.966   8.631  13.988  0.00  0.00    +0.000 C 
ATOM     10  N   UNL     1      50.341   7.412  13.940  0.00  0.00    +0.000 N 
ATOM     11  H   UNL     1      50.837   6.620  13.548  0.00  0.00    +0.000 HD
BRANCH   9  12
ATOM     12  C   UNL     1      52.173   8.765  13.164  0.00  0.00    +0.000 A 
ATOM     13  C   UNL     1      53.322   9.325  13.708  0.00  0.00    +0.000 A 
ATOM     14  S   UNL     1      54.621   9.429  12.608  0.00  0.00    +0.000 S 
ATOM     15  C   UNL     1      53.711   8.683  11.379  0.00  0.00    +0.000 A 
ATOM     16  N   UNL     1      54.256   8.439  10.155  0.00  0.00    +0.000 NA
ATOM     17  C   UNL     1      53.469   7.827   9.332  0.00  0.00    +0.000 A 
ATOM     18  N   UNL     1      52.186   7.444   9.619  0.00  0.00    +0.000 N 
ATOM     19  C   UNL     1      51.569   7.739  10.812  0.00  0.00    +0.000 A 
ATOM     20  O   UNL     1      50.379   7.502  10.980  0.00  0.00    +0.000 OA
ATOM     21  C   UNL     1      52.426   8.384  11.790  0.00  0.00    +0.000 A 
ATOM     22  H   UNL     1      51.613   6.996   8.920  0.00  0.00    +0.000 HD
ENDBRANCH   9  12
ENDBRANCH   7  10
ENDBRANCH   1   7
BRANCH   4  23
ATOM     23  C   UNL     1      44.526   6.003  11.434  0.00  0.00    +0.000 C 
BRANCH  23  24
ATOM     24  N   UNL     1      44.923   5.481  10.128  0.00  0.00    +0.000 NA
ATOM     25  H   UNL     1      45.932   5.376  10.072  0.00  0.00    +0.000 HD
BRANCH  24  26
ATOM     26  CA  UNL     1      44.211   4.241   9.736  0.00  0.00    +0.000 C 
BRANCH  26  27
ATOM     27  C   UNL     1      44.881   3.619   8.473  0.00  0.00    +0.000 C 
ATOM     28  C   UNL     1      45.590   2.296   8.736  0.00  0.00    +0.000 C 
ATOM     29  C   UNL     1      46.476   2.141   7.515  0.00  0.00    +0.000 C 
ATOM     30  C   UNL     1      46.813   3.566   7.105  0.00  0.00    +0.000 C 
ATOM     31  N   UNL     1      45.971   4.446   7.920  0.00  0.00    +0.000 NA
ATOM     32  H   UNL     1      45.585   5.194   7.342  0.00  0.00    +0.000 HD
ENDBRANCH  26  27
BRANCH  26  33
ATOM     33  C   UNL     1      44.143   3.187  10.871  0.00  0.00    +0.000 C 
BRANCH  33  34
ATOM     34  O   UNL     1      42.812   3.018  11.357  0.00  0.00    +0.000 OA
ATOM     35  H   UNL     1      42.465   3.906  11.548  0.00  0.00    +0.000 HD
ENDBRANCH  33  34
ENDBRANCH  26  33
ENDBRANCH  24  26
ENDBRANCH  23  24
ENDBRANCH   4  23
TORSDOF 9
ENDMDL
MODEL 7
REMARK VINA RESULT:    -6.427      2.901      8.021
REMARK INTER + INTRA:         -11.158
REMARK INTER:                  -9.333
REMARK INTRA:                  -1.825
REMARK UNBOUND:                -1.537
REMARK  Name = 
REMARK  9 active torsions:
REMARK  status: ('A' for Active; 'I' for Inactive)
REMARK    1  A    between atoms: C_2  and  C_21
REMARK    2  A    between atoms: N_3  and  C_4
REMARK    3  A    between atoms: C_4  and  C_5
REMARK    4  A    between atoms: C_8  and  C_9
REMARK    5  A    between atoms: C_9  and  N_10
REMARK    6  A    between atoms: N_10  and  CA_11
REMARK    7  A    between atoms: CA_11  and  C_12
REMARK    8  A    between atoms: CA_11  and  C_14
REMARK    9  A    between atoms: C_12  and  O_13
REMARK                            x       y       z     vdW  Elec       q    Type
REMARK                         _______ _______ _______ _____ _____    ______ ____
ROOT
ATOM      1  C   UNL     1      48.521   7.959  13.472  0.00  0.00    +0.000 A 
ATOM      2  C   UNL     1      49.669   7.287  13.908  0.00  0.00    +0.000 A 
ATOM      3  C   UNL     1      50.120   7.425  15.224  0.00  0.00    +0.000 A 
ATOM      4  C   UNL     1      49.424   8.230  16.134  0.00  0.00    +0.000 A 
ATOM      5  C   UNL     1      48.260   8.883  15.704  0.00  0.00    +0.000 A 
ATOM      6  C   UNL     1      47.809   8.744  14.388  0.00  0.00    +0.000 A 
ENDROOT
BRANCH   1   7
ATOM      7  C   UNL     1      48.036   7.797  12.055  0.00  0.00    +0.000 C 
BRANCH   7  10
ATOM      8  O   UNL     1      45.223   7.662  12.171  0.00  0.00    +0.000 OA
ATOM      9  C   UNL     1      45.859   6.644  11.920  0.00  0.00    +0.000 C 
ATOM     10  N   UNL     1      47.230   6.611  11.917  0.00  0.00    +0.000 N 
ATOM     11  H   UNL     1      47.701   5.804  11.527  0.00  0.00    +0.000 HD
BRANCH   9  12
ATOM     12  C   UNL     1      45.187   5.365  11.664  0.00  0.00    +0.000 A 
ATOM     13  C   UNL     1      44.471   4.745  12.679  0.00  0.00    +0.000 A 
ATOM     14  S   UNL     1      43.777   3.256  12.219  0.00  0.00    +0.000 S 
ATOM     15  C   UNL     1      44.365   3.411  10.630  0.00  0.00    +0.000 A 
ATOM     16  N   UNL     1      44.095   2.465   9.689  0.00  0.00    +0.000 NA
ATOM     17  C   UNL     1      44.564   2.731   8.514  0.00  0.00    +0.000 A 
ATOM     18  N   UNL     1      45.285   3.852   8.197  0.00  0.00    +0.000 N 
ATOM     19  C   UNL     1      45.648   4.793   9.132  0.00  0.00    +0.000 A 
ATOM     20  O   UNL     1      46.407   5.710   8.839  0.00  0.00    +0.000 OA
ATOM     21  C   UNL     1      45.105   4.566  10.458  0.00  0.00    +0.000 A 
ATOM     22  H   UNL     1      45.650   3.985   7.266  0.00  0.00    +0.000 HD
ENDBRANCH   9  12
ENDBRANCH   7  10
ENDBRANCH   1   7
BRANCH   4  23
ATOM     23  C   UNL     1      49.888   8.354  17.568  0.00  0.00    +0.000 C 
BRANCH  23  24
ATOM     24  N   UNL     1      50.048   7.049  18.205  0.00  0.00    +0.000 NA
ATOM     25  H   UNL     1      50.654   7.115  19.018  0.00  0.00    +0.000 HD
BRANCH  24  26
ATOM     26  CA  UNL     1      48.766   6.374  18.519  0.00  0.00    +0.000 C 
BRANCH  26  27
ATOM     27  C   UNL     1      48.701   4.993  17.798  0.00  0.00    +0.000 C 
ATOM     28  C   UNL     1      47.840   4.991  16.539  0.00  0.00    +0.000 C 
ATOM     29  C   UNL     1      47.604   3.513  16.296  0.00  0.00    +0.000 C 
ATOM     30  C   UNL     1      47.615   2.892  17.684  0.00  0.00    +0.000 C 
ATOM     31  N   UNL     1      48.060   3.938  18.607  0.00  0.00    +0.000 NA
ATOM     32  H   UNL     1      48.730   3.554  19.275  0.00  0.00    +0.000 HD
ENDBRANCH  26  27
BRANCH  26  33
ATOM     33  C   UNL     1      48.526   6.188  20.039  0.00  0.00    +0.000 C 
BRANCH  33  34
ATOM     34  O   UNL     1      47.142   6.023  20.340  0.00  0.00    +0.000 OA
ATOM     35  H   UNL     1      47.071   5.267  20.947  0.00  0.00    +0.000 HD
ENDBRANCH  33  34
ENDBRANCH  26  33
ENDBRANCH  24  26
ENDBRANCH  23  24
ENDBRANCH   4  23
TORSDOF 9
ENDMDL
MODEL 8
REMARK VINA RESULT:    -6.377      3.241      4.080
REMARK INTER + INTRA:         -11.083
REMARK INTER:                 -10.078
REMARK INTRA:                  -1.004
REMARK UNBOUND:                -1.537
REMARK  Name = 
REMARK  9 active torsions:
REMARK  status: ('A' for Active; 'I' for Inactive)
REMARK    1  A    between atoms: C_2  and  C_21
REMARK    2  A    between atoms: N_3  and  C_4
REMARK    3  A    between atoms: C_4  and  C_5
REMARK    4  A    between atoms: C_8  and  C_9
REMARK    5  A    between atoms: C_9  and  N_10
REMARK    6  A    between atoms: N_10  and  CA_11
REMARK    7  A    between atoms: CA_11  and  C_12
REMARK    8  A    between atoms: CA_11  and  C_14
REMARK    9  A    between atoms: C_12  and  O_13
REMARK                            x       y       z     vdW  Elec       q    Type
REMARK                         _______ _______ _______ _____ _____    ______ ____
ROOT
ATOM      1  C   UNL     1      48.468   6.388  15.528  0.00  0.00    +0.000 A 
ATOM      2  C   UNL     1      48.505   7.408  14.570  0.00  0.00    +0.000 A 
ATOM      3  C   UNL     1      47.805   7.282  13.367  0.00  0.00    +0.000 A 
ATOM      4  C   UNL     1      47.044   6.137  13.102  0.00  0.00    +0.000 A 
ATOM      5  C   UNL     1      46.987   5.126  14.073  0.00  0.00    +0.000 A 
ATOM      6  C   UNL     1      47.687   5.253  15.277  0.00  0.00    +0.000 A 
ENDROOT
BRANCH   1   7
ATOM      7  C   UNL     1      49.217   6.535  16.827  0.00  0.00    +0.000 C 
BRANCH   7  10
ATOM      8  O   UNL     1      49.091   4.406  18.669  0.00  0.00    +0.000 OA
ATOM      9  C   UNL     1      50.016   4.445  17.865  0.00  0.00    +0.000 C 
ATOM     10  N   UNL     1      50.188   5.483  16.987  0.00  0.00    +0.000 N 
ATOM     11  H   UNL     1      50.852   5.381  16.229  0.00  0.00    +0.000 HD
BRANCH   9  12
ATOM     12  C   UNL     1      51.047   3.401  17.833  0.00  0.00    +0.000 A 
ATOM     13  C   UNL     1      50.716   2.114  17.430  0.00  0.00    +0.000 A 
ATOM     14  S   UNL     1      52.026   1.022  17.477  0.00  0.00    +0.000 S 
ATOM     15  C   UNL     1      53.095   2.243  17.990  0.00  0.00    +0.000 A 
ATOM     16  N   UNL     1      54.414   1.975  18.196  0.00  0.00    +0.000 NA
ATOM     17  C   UNL     1      55.120   3.002  18.540  0.00  0.00    +0.000 A 
ATOM     18  N   UNL     1      54.625   4.269  18.704  0.00  0.00    +0.000 N 
ATOM     19  C   UNL     1      53.289   4.569  18.584  0.00  0.00    +0.000 A 
ATOM     20  O   UNL     1      52.866   5.682  18.871  0.00  0.00    +0.000 OA
ATOM     21  C   UNL     1      52.459   3.459  18.151  0.00  0.00    +0.000 A 
ATOM     22  H   UNL     1      55.226   5.022  19.004  0.00  0.00    +0.000 HD
ENDBRANCH   9  12
ENDBRANCH   7  10
ENDBRANCH   1   7
BRANCH   4  23
ATOM     23  C   UNL     1      46.257   6.012  11.818  0.00  0.00    +0.000 C 
BRANCH  23  24
ATOM     24  N   UNL     1      45.187   5.024  11.926  0.00  0.00    +0.000 NA
ATOM     25  H   UNL     1      44.877   4.929  12.889  0.00  0.00    +0.000 HD
BRANCH  24  26
ATOM     26  CA  UNL     1      44.055   5.261  10.998  0.00  0.00    +0.000 C 
BRANCH  26  27
ATOM     27  C   UNL     1      44.131   4.265   9.800  0.00  0.00    +0.000 C 
ATOM     28  C   UNL     1      44.777   2.928  10.146  0.00  0.00    +0.000 C 
ATOM     29  C   UNL     1      45.106   2.352   8.782  0.00  0.00    +0.000 C 
ATOM     30  C   UNL     1      45.373   3.568   7.908  0.00  0.00    +0.000 C 
ATOM     31  N   UNL     1      44.986   4.741   8.696  0.00  0.00    +0.000 NA
ATOM     32  H   UNL     1      44.469   5.400   8.111  0.00  0.00    +0.000 HD
ENDBRANCH  26  27
BRANCH  26  33
ATOM     33  C   UNL     1      42.668   5.158  11.682  0.00  0.00    +0.000 C 
BRANCH  33  34
ATOM     34  O   UNL     1      42.017   6.425  11.751  0.00  0.00    +0.000 OA
ATOM     35  H   UNL     1      42.112   6.745  12.664  0.00  0.00    +0.000 HD
ENDBRANCH  33  34
ENDBRANCH  26  33
ENDBRANCH  24  26
ENDBRANCH  23  24
ENDBRANCH   4  23
TORSDOF 9
ENDMDL
MODEL 9
REMARK VINA RESULT:    -6.248      4.273      9.603
REMARK INTER + INTRA:         -10.890
REMARK INTER:                 -10.059
REMARK INTRA:                  -0.832
REMARK UNBOUND:                -1.537
REMARK  Name = 
REMARK  9 active torsions:
REMARK  status: ('A' for Active; 'I' for Inactive)
REMARK    1  A    between atoms: C_2  and  C_21
REMARK    2  A    between atoms: N_3  and  C_4
REMARK    3  A    between atoms: C_4  and  C_5
REMARK    4  A    between atoms: C_8  and  C_9
REMARK    5  A    between atoms: C_9  and  N_10
REMARK    6  A    between atoms: N_10  and  CA_11
REMARK    7  A    between atoms: CA_11  and  C_12
REMARK    8  A    between atoms: CA_11  and  C_14
REMARK    9  A    between atoms: C_12  and  O_13
REMARK                            x       y       z     vdW  Elec       q    Type
REMARK                         _______ _______ _______ _____ _____    ______ ____
ROOT
ATOM      1  C   UNL     1      48.584   3.463  17.220  0.00  0.00    +0.000 A 
ATOM      2  C   UNL     1      49.128   4.671  17.675  0.00  0.00    +0.000 A 
ATOM      3  C   UNL     1      50.480   4.759  18.017  0.00  0.00    +0.000 A 
ATOM      4  C   UNL     1      51.319   3.642  17.901  0.00  0.00    +0.000 A 
ATOM      5  C   UNL     1      50.778   2.440  17.422  0.00  0.00    +0.000 A 
ATOM      6  C   UNL     1      49.426   2.353  17.079  0.00  0.00    +0.000 A 
ENDROOT
BRANCH   1   7
ATOM      7  C   UNL     1      47.128   3.379  16.843  0.00  0.00    +0.000 C 
BRANCH   7  10
ATOM      8  O   UNL     1      47.304   3.103  14.044  0.00  0.00    +0.000 OA
ATOM      9  C   UNL     1      46.841   4.137  14.513  0.00  0.00    +0.000 C 
ATOM     10  N   UNL     1      46.789   4.377  15.862  0.00  0.00    +0.000 N 
ATOM     11  H   UNL     1      46.236   5.156  16.201  0.00  0.00    +0.000 HD
BRANCH   9  12
ATOM     12  C   UNL     1      46.365   5.223  13.649  0.00  0.00    +0.000 A 
ATOM     13  C   UNL     1      47.175   6.327  13.416  0.00  0.00    +0.000 A 
ATOM     14  S   UNL     1      46.457   7.505  12.412  0.00  0.00    +0.000 S 
ATOM     15  C   UNL     1      45.057   6.559  12.212  0.00  0.00    +0.000 A 
ATOM     16  N   UNL     1      44.032   6.986  11.424  0.00  0.00    +0.000 NA
ATOM     17  C   UNL     1      43.051   6.150  11.324  0.00  0.00    +0.000 A 
ATOM     18  N   UNL     1      42.999   4.930  11.946  0.00  0.00    +0.000 N 
ATOM     19  C   UNL     1      43.974   4.493  12.812  0.00  0.00    +0.000 A 
ATOM     20  O   UNL     1      43.828   3.460  13.454  0.00  0.00    +0.000 OA
ATOM     21  C   UNL     1      45.122   5.375  12.922  0.00  0.00    +0.000 A 
ATOM     22  H   UNL     1      42.189   4.336  11.850  0.00  0.00    +0.000 HD
ENDBRANCH   9  12
ENDBRANCH   7  10
ENDBRANCH   1   7
BRANCH   4  23
ATOM     23  C   UNL     1      52.789   3.743  18.237  0.00  0.00    +0.000 C 
BRANCH  23  24
ATOM     24  N   UNL     1      53.133   2.960  19.422  0.00  0.00    +0.000 NA
ATOM     25  H   UNL     1      52.566   2.119  19.479  0.00  0.00    +0.000 HD
BRANCH  24  26
ATOM     26  CA  UNL     1      54.581   2.665  19.546  0.00  0.00    +0.000 C 
BRANCH  26  27
ATOM     27  C   UNL     1      54.937   1.390  18.722  0.00  0.00    +0.000 C 
ATOM     28  C   UNL     1      55.245   1.667  17.255  0.00  0.00    +0.000 C 
ATOM     29  C   UNL     1      55.132   0.293  16.622  0.00  0.00    +0.000 C 
ATOM     30  C   UNL     1      54.090  -0.429  17.463  0.00  0.00    +0.000 C 
ATOM     31  N   UNL     1      53.824   0.426  18.623  0.00  0.00    +0.000 NA
ATOM     32  H   UNL     1      53.774  -0.140  19.471  0.00  0.00    +0.000 HD
ENDBRANCH  26  27
BRANCH  26  33
ATOM     33  C   UNL     1      55.488   3.844  19.112  0.00  0.00    +0.000 C 
BRANCH  33  34
ATOM     34  O   UNL     1      55.435   4.924  20.043  0.00  0.00    +0.000 OA
ATOM     35  H   UNL     1      54.937   4.608  20.816  0.00  0.00    +0.000 HD
ENDBRANCH  33  34
ENDBRANCH  26  33
ENDBRANCH  24  26
ENDBRANCH  23  24
ENDBRANCH   4  23
TORSDOF 9
ENDMDL
