MODEL 1
REMARK VINA RESULT:    -7.839      0.000      0.000
REMARK INTER + INTRA:         -10.862
REMARK INTER:                 -10.360
REMARK INTRA:                  -0.503
REMARK UNBOUND:                -0.503
REMARK  Name = 
REMARK  6 active torsions:
REMARK  status: ('A' for Active; 'I' for Inactive)
REMARK    1  A    between atoms: N_1  and  C_2
REMARK    2  A    between atoms: C_2  and  C_3
REMARK    3  A    between atoms: C_6  and  S_7
REMARK    4  A    between atoms: S_7  and  C_8
REMARK    5  A    between atoms: C_8  and  C_9
REMARK    6  A    between atoms: C_13  and  C_14
REMARK                            x       y       z     vdW  Elec       q    Type
REMARK                         _______ _______ _______ _____ _____    ______ ____
ROOT
ATOM      1  C   UNL     1      44.082   4.923  10.910  0.00  0.00    +0.000 C 
ENDROOT
BRANCH   1   2
ATOM      2  C   UNL     1      45.221   5.344  11.801  0.00  0.00    +0.000 A 
ATOM      3  C   UNL     1      45.927   6.520  11.568  0.00  0.00    +0.000 A 
ATOM      4  N   UNL     1      46.980   6.933  12.311  0.00  0.00    +0.000 NA
ATOM      5  C   UNL     1      47.344   6.144  13.351  0.00  0.00    +0.000 A 
ATOM      6  C   UNL     1      46.687   4.969  13.694  0.00  0.00    +0.000 A 
ATOM      7  C   UNL     1      45.613   4.563  12.898  0.00  0.00    +0.000 A 
BRANCH   6   8
ATOM      8  C   UNL     1      47.169   4.193  14.854  0.00  0.00    +0.000 C 
ATOM      9  N   UNL     1      47.191   4.825  16.068  0.00  0.00    +0.000 N 
ATOM     10  O   UNL     1      47.562   3.040  14.737  0.00  0.00    +0.000 OA
ATOM     11  H   UNL     1      47.125   5.828  16.160  0.00  0.00    +0.000 HD
ATOM     12  H   UNL     1      47.623   4.315  16.830  0.00  0.00    +0.000 HD
ENDBRANCH   6   8
ENDBRANCH   1   2
BRANCH   1  13
ATOM     13  S   UNL     1      44.065   3.116  10.660  0.00  0.00    +0.000 S 
BRANCH  13  17
ATOM     14  C   UNL     1      46.594   2.765   6.810  0.00  0.00    +0.000 A 
ATOM     15  C   UNL     1      46.352   1.627   7.590  0.00  0.00    +0.000 A 
ATOM     16  C   UNL     1      45.592   1.706   8.764  0.00  0.00    +0.000 A 
ATOM     17  C   UNL     1      45.066   2.930   9.189  0.00  0.00    +0.000 A 
ATOM     18  C   UNL     1      45.287   4.063   8.398  0.00  0.00    +0.000 A 
ATOM     19  C   UNL     1      46.045   3.984   7.223  0.00  0.00    +0.000 A 
BRANCH  14  20
ATOM     20  C   UNL     1      47.456   2.688   5.575  0.00  0.00    +0.000 C 
BRANCH  20  21
ATOM     21  N   UNL     1      48.548   1.732   5.725  0.00  0.00    +0.000 NA
ATOM     22  H   UNL     1      48.234   0.817   5.408  0.00  0.00    +0.000 HD
ATOM     23  H   UNL     1      48.761   1.634   6.716  0.00  0.00    +0.000 HD
ENDBRANCH  20  21
ENDBRANCH  14  20
ENDBRANCH  13  17
ENDBRANCH   1  13
TORSDOF 6
ENDMDL
MODEL 2
REMARK VINA RESULT:    -7.585      2.549      6.344
REMARK INTER + INTRA:         -10.527
REMARK INTER:                 -10.128
REMARK INTRA:                  -0.399
REMARK UNBOUND:                -0.503
REMARK  Name = 
REMARK  6 active torsions:
REMARK  status: ('A' for Active; 'I' for Inactive)
REMARK    1  A    between atoms: N_1  and  C_2
REMARK    2  A    between atoms: C_2  and  C_3
REMARK    3  A    between atoms: C_6  and  S_7
REMARK    4  A    between atoms: S_7  and  C_8
REMARK    5  A    between atoms: C_8  and  C_9
REMARK    6  A    between atoms: C_13  and  C_14
REMARK                            x       y       z     vdW  Elec       q    Type
REMARK                         _______ _______ _______ _____ _____    ______ ____
ROOT
ATOM      1  C   UNL     1      43.834   3.005  10.601  0.00  0.00    +0.000 C 
ENDROOT
BRANCH   1   2
ATOM      2  C   UNL     1      44.795   3.123   9.447  0.00  0.00    +0.000 A 
ATOM      3  C   UNL     1      45.035   4.346   8.826  0.00  0.00    +0.000 A 
ATOM      4  N   UNL     1      45.858   4.509   7.765  0.00  0.00    +0.000 NA
ATOM      5  C   UNL     1      46.488   3.402   7.301  0.00  0.00    +0.000 A 
ATOM      6  C   UNL     1      46.348   2.141   7.867  0.00  0.00    +0.000 A 
ATOM      7  C   UNL     1      45.479   2.004   8.953  0.00  0.00    +0.000 A 
BRANCH   6   8
ATOM      8  C   UNL     1      47.091   1.008   7.280  0.00  0.00    +0.000 C 
ATOM      9  N   UNL     1      46.754  -0.250   7.699  0.00  0.00    +0.000 N 
ATOM     10  O   UNL     1      47.995   1.183   6.472  0.00  0.00    +0.000 OA
ATOM     11  H   UNL     1      46.210  -0.418   8.533  0.00  0.00    +0.000 HD
ATOM     12  H   UNL     1      47.343  -1.005   7.368  0.00  0.00    +0.000 HD
ENDBRANCH   6   8
ENDBRANCH   1   2
BRANCH   1  13
ATOM     13  S   UNL     1      43.320   4.646  11.210  0.00  0.00    +0.000 S 
BRANCH  13  17
ATOM     14  C   UNL     1      47.133   6.229  13.284  0.00  0.00    +0.000 A 
ATOM     15  C   UNL     1      46.734   4.900  13.480  0.00  0.00    +0.000 A 
ATOM     16  C   UNL     1      45.580   4.395  12.867  0.00  0.00    +0.000 A 
ATOM     17  C   UNL     1      44.793   5.214  12.051  0.00  0.00    +0.000 A 
ATOM     18  C   UNL     1      45.203   6.535  11.835  0.00  0.00    +0.000 A 
ATOM     19  C   UNL     1      46.358   7.039  12.446  0.00  0.00    +0.000 A 
BRANCH  14  20
ATOM     20  C   UNL     1      48.346   6.784  13.986  0.00  0.00    +0.000 C 
BRANCH  20  21
ATOM     21  N   UNL     1      49.524   6.798  13.124  0.00  0.00    +0.000 NA
ATOM     22  H   UNL     1      49.372   7.461  12.367  0.00  0.00    +0.000 HD
ATOM     23  H   UNL     1      49.619   5.882  12.688  0.00  0.00    +0.000 HD
ENDBRANCH  20  21
ENDBRANCH  14  20
ENDBRANCH  13  17
ENDBRANCH   1  13
TORSDOF 6
ENDMDL
MODEL 3
REMARK VINA RESULT:    -7.544      1.957      2.706
REMARK INTER + INTRA:         -10.473
REMARK INTER:                  -9.916
REMARK INTRA:                  -0.557
REMARK UNBOUND:                -0.503
REMARK  Name = 
REMARK  6 active torsions:
REMARK  status: ('A' for Active; 'I' for Inactive)
REMARK    1  A    between atoms: N_1  and  C_2
REMARK    2  A    between atoms: C_2  and  C_3
REMARK    3  A    between atoms: C_6  and  S_7
REMARK    4  A    between atoms: S_7  and  C_8
REMARK    5  A    between atoms: C_8  and  C_9
REMARK    6  A    between atoms: C_13  and  C_14
REMARK                            x       y       z     vdW  Elec       q    Type
REMARK                         _______ _______ _______ _____ _____    ______ ____
ROOT
ATOM      1  C   UNL     1      44.326   3.591  12.203  0.00  0.00    +0.000 C 
ENDROOT
BRANCH   1   2
ATOM      2  C   UNL     1      45.430   4.477  12.717  0.00  0.00    +0.000 A 
ATOM      3  C   UNL     1      46.566   3.944  13.319  0.00  0.00    +0.000 A 
ATOM      4  N   UNL     1      47.574   4.688  13.831  0.00  0.00    +0.000 NA
ATOM      5  C   UNL     1      47.456   6.035  13.728  0.00  0.00    +0.000 A 
ATOM      6  C   UNL     1      46.383   6.669  13.115  0.00  0.00    +0.000 A 
ATOM      7  C   UNL     1      45.352   5.873  12.610  0.00  0.00    +0.000 A 
BRANCH   6   8
ATOM      8  C   UNL     1      46.365   8.145  13.055  0.00  0.00    +0.000 C 
ATOM      9  N   UNL     1      46.841   8.824  14.143  0.00  0.00    +0.000 N 
ATOM     10  O   UNL     1      45.918   8.743  12.084  0.00  0.00    +0.000 OA
ATOM     11  H   UNL     1      46.973   8.386  15.043  0.00  0.00    +0.000 HD
ATOM     12  H   UNL     1      46.723   9.831  14.129  0.00  0.00    +0.000 HD
ENDBRANCH   6   8
ENDBRANCH   1   2
BRANCH   1  13
ATOM     13  S   UNL     1      43.616   4.243  10.654  0.00  0.00    +0.000 S 
BRANCH  13  17
ATOM     14  C   UNL     1      46.524   2.432   7.554  0.00  0.00    +0.000 A 
ATOM     15  C   UNL     1      46.330   3.820   7.600  0.00  0.00    +0.000 A 
ATOM     16  C   UNL     1      45.451   4.394   8.528  0.00  0.00    +0.000 A 
ATOM     17  C   UNL     1      44.738   3.591   9.422  0.00  0.00    +0.000 A 
ATOM     18  C   UNL     1      44.948   2.208   9.393  0.00  0.00    +0.000 A 
ATOM     19  C   UNL     1      45.828   1.633   8.467  0.00  0.00    +0.000 A 
BRANCH  14  20
ATOM     20  C   UNL     1      47.430   1.812   6.521  0.00  0.00    +0.000 C 
BRANCH  20  21
ATOM     21  N   UNL     1      48.674   2.557   6.361  0.00  0.00    +0.000 NA
ATOM     22  H   UNL     1      48.607   3.137   5.527  0.00  0.00    +0.000 HD
ATOM     23  H   UNL     1      49.430   1.896   6.189  0.00  0.00    +0.000 HD
ENDBRANCH  20  21
ENDBRANCH  14  20
ENDBRANCH  13  17
ENDBRANCH   1  13
TORSDOF 6
ENDMDL
MODEL 4
REMARK VINA RESULT:    -7.351      3.010      6.698
REMARK INTER + INTRA:         -10.217
REMARK INTER:                  -9.858
REMARK INTRA:                  -0.358
REMARK UNBOUND:                -0.503
REMARK  Name = 
REMARK  6 active torsions:
REMARK  status: ('A' for Active; 'I' for Inactive)
REMARK    1  A    between atoms: N_1  and  C_2
REMARK    2  A    between atoms: C_2  and  C_3
REMARK    3  A    between atoms: C_6  and  S_7
REMARK    4  A    between atoms: S_7  and  C_8
REMARK    5  A    between atoms: C_8  and  C_9
REMARK    6  A    between atoms: C_13  and  C_14
REMARK                            x       y       z     vdW  Elec       q    Type
REMARK                         _______ _______ _______ _____ _____    ______ ____
ROOT
ATOM      1  C   UNL     1      43.892   3.047  10.533  0.00  0.00    +0.000 C 
ENDROOT
BRANCH   1   2
ATOM      2  C   UNL     1      44.867   3.146   9.389  0.00  0.00    +0.000 A 
ATOM      3  C   UNL     1      45.141   4.363   8.773  0.00  0.00    +0.000 A 
ATOM      4  N   UNL     1      45.978   4.510   7.720  0.00  0.00    +0.000 NA
ATOM      5  C   UNL     1      46.589   3.390   7.261  0.00  0.00    +0.000 A 
ATOM      6  C   UNL     1      46.415   2.132   7.824  0.00  0.00    +0.000 A 
ATOM      7  C   UNL     1      45.532   2.012   8.901  0.00  0.00    +0.000 A 
BRANCH   6   8
ATOM      8  C   UNL     1      47.139   0.983   7.243  0.00  0.00    +0.000 C 
ATOM      9  N   UNL     1      46.791  -0.266   7.680  0.00  0.00    +0.000 N 
ATOM     10  O   UNL     1      48.037   1.138   6.425  0.00  0.00    +0.000 OA
ATOM     11  H   UNL     1      46.254  -0.418   8.521  0.00  0.00    +0.000 HD
ATOM     12  H   UNL     1      47.369  -1.032   7.353  0.00  0.00    +0.000 HD
ENDBRANCH   6   8
ENDBRANCH   1   2
BRANCH   1  13
ATOM     13  S   UNL     1      44.725   3.276  12.139  0.00  0.00    +0.000 S 
BRANCH  13  17
ATOM     14  C   UNL     1      45.432   7.836  12.387  0.00  0.00    +0.000 A 
ATOM     15  C   UNL     1      44.255   7.344  11.805  0.00  0.00    +0.000 A 
ATOM     16  C   UNL     1      44.018   5.966  11.714  0.00  0.00    +0.000 A 
ATOM     17  C   UNL     1      44.959   5.050  12.193  0.00  0.00    +0.000 A 
ATOM     18  C   UNL     1      46.123   5.539  12.795  0.00  0.00    +0.000 A 
ATOM     19  C   UNL     1      46.360   6.917  12.889  0.00  0.00    +0.000 A 
BRANCH  14  20
ATOM     20  C   UNL     1      45.709   9.317  12.438  0.00  0.00    +0.000 C 
BRANCH  20  21
ATOM     21  N   UNL     1      44.485  10.102  12.557  0.00  0.00    +0.000 NA
ATOM     22  H   UNL     1      43.737   9.629  12.053  0.00  0.00    +0.000 HD
ATOM     23  H   UNL     1      44.625  10.996  12.089  0.00  0.00    +0.000 HD
ENDBRANCH  20  21
ENDBRANCH  14  20
ENDBRANCH  13  17
ENDBRANCH   1  13
TORSDOF 6
ENDMDL
MODEL 5
REMARK VINA RESULT:    -7.289      1.452      2.146
REMARK INTER + INTRA:         -10.135
REMARK INTER:                  -9.585
REMARK INTRA:                  -0.550
REMARK UNBOUND:                -0.503
REMARK  Name = 
REMARK  6 active torsions:
REMARK  status: ('A' for Active; 'I' for Inactive)
REMARK    1  A    between atoms: N_1  and  C_2
REMARK    2  A    between atoms: C_2  and  C_3
REMARK    3  A    between atoms: C_6  and  S_7
REMARK    4  A    between atoms: S_7  and  C_8
REMARK    5  A    between atoms: C_8  and  C_9
REMARK    6  A    between atoms: C_13  and  C_14
REMARK                            x       y       z     vdW  Elec       q    Type
REMARK                         _______ _______ _______ _____ _____    ______ ____
ROOT
ATOM      1  C   UNL     1      44.494   5.668  10.986  0.00  0.00    +0.000 C 
ENDROOT
BRANCH   1   2
ATOM      2  C   UNL     1      45.483   5.441  12.099  0.00  0.00    +0.000 A 
ATOM      3  C   UNL     1      45.246   4.501  13.098  0.00  0.00    +0.000 A 
ATOM      4  N   UNL     1      46.077   4.277  14.142  0.00  0.00    +0.000 NA
ATOM      5  C   UNL     1      47.213   5.016  14.191  0.00  0.00    +0.000 A 
ATOM      6  C   UNL     1      47.564   5.954  13.229  0.00  0.00    +0.000 A 
ATOM      7  C   UNL     1      46.677   6.172  12.172  0.00  0.00    +0.000 A 
BRANCH   6   8
ATOM      8  C   UNL     1      48.832   6.695  13.383  0.00  0.00    +0.000 C 
ATOM      9  N   UNL     1      49.342   7.308  12.271  0.00  0.00    +0.000 N 
ATOM     10  O   UNL     1      49.424   6.739  14.454  0.00  0.00    +0.000 OA
ATOM     11  H   UNL     1      49.032   7.085  11.337  0.00  0.00    +0.000 HD
ATOM     12  H   UNL     1      50.263   7.720  12.370  0.00  0.00    +0.000 HD
ENDBRANCH   6   8
ENDBRANCH   1   2
BRANCH   1  13
ATOM     13  S   UNL     1      43.690   4.110  10.482  0.00  0.00    +0.000 S 
BRANCH  13  17
ATOM     14  C   UNL     1      46.739   2.487   7.414  0.00  0.00    +0.000 A 
ATOM     15  C   UNL     1      46.047   1.596   8.247  0.00  0.00    +0.000 A 
ATOM     16  C   UNL     1      45.120   2.062   9.188  0.00  0.00    +0.000 A 
ATOM     17  C   UNL     1      44.874   3.431   9.325  0.00  0.00    +0.000 A 
ATOM     18  C   UNL     1      45.546   4.320   8.478  0.00  0.00    +0.000 A 
ATOM     19  C   UNL     1      46.471   3.855   7.535  0.00  0.00    +0.000 A 
BRANCH  14  20
ATOM     20  C   UNL     1      47.774   1.987   6.438  0.00  0.00    +0.000 C 
BRANCH  20  21
ATOM     21  N   UNL     1      47.950   2.894   5.309  0.00  0.00    +0.000 NA
ATOM     22  H   UNL     1      48.447   2.406   4.567  0.00  0.00    +0.000 HD
ATOM     23  H   UNL     1      48.552   3.663   5.599  0.00  0.00    +0.000 HD
ENDBRANCH  20  21
ENDBRANCH  14  20
ENDBRANCH  13  17
ENDBRANCH   1  13
TORSDOF 6
ENDMDL
MODEL 6
REMARK VINA RESULT:    -7.232      2.674      6.655
REMARK INTER + INTRA:         -10.060
REMARK INTER:                  -9.518
REMARK INTRA:                  -0.541
REMARK UNBOUND:                -0.503
REMARK  Name = 
REMARK  6 active torsions:
REMARK  status: ('A' for Active; 'I' for Inactive)
REMARK    1  A    between atoms: N_1  and  C_2
REMARK    2  A    between atoms: C_2  and  C_3
REMARK    3  A    between atoms: C_6  and  S_7
REMARK    4  A    between atoms: S_7  and  C_8
REMARK    5  A    between atoms: C_8  and  C_9
REMARK    6  A    between atoms: C_13  and  C_14
REMARK                            x       y       z     vdW  Elec       q    Type
REMARK                         _______ _______ _______ _____ _____    ______ ____
ROOT
ATOM      1  C   UNL     1      44.022   4.478   9.231  0.00  0.00    +0.000 C 
ENDROOT
BRANCH   1   2
ATOM      2  C   UNL     1      44.866   3.359   8.680  0.00  0.00    +0.000 A 
ATOM      3  C   UNL     1      44.802   2.074   9.210  0.00  0.00    +0.000 A 
ATOM      4  N   UNL     1      45.559   1.038   8.783  0.00  0.00    +0.000 NA
ATOM      5  C   UNL     1      46.419   1.285   7.763  0.00  0.00    +0.000 A 
ATOM      6  C   UNL     1      46.538   2.521   7.139  0.00  0.00    +0.000 A 
ATOM      7  C   UNL     1      45.752   3.574   7.614  0.00  0.00    +0.000 A 
BRANCH   6   8
ATOM      8  C   UNL     1      47.504   2.671   6.032  0.00  0.00    +0.000 C 
ATOM      9  N   UNL     1      48.826   2.469   6.321  0.00  0.00    +0.000 N 
ATOM     10  O   UNL     1      47.146   2.992   4.907  0.00  0.00    +0.000 OA
ATOM     11  H   UNL     1      49.182   2.460   7.265  0.00  0.00    +0.000 HD
ATOM     12  H   UNL     1      49.483   2.680   5.578  0.00  0.00    +0.000 HD
ENDBRANCH   6   8
ENDBRANCH   1   2
BRANCH   1  13
ATOM     13  S   UNL     1      43.625   4.209  10.991  0.00  0.00    +0.000 S 
BRANCH  13  17
ATOM     14  C   UNL     1      47.321   6.142  12.978  0.00  0.00    +0.000 A 
ATOM     15  C   UNL     1      46.728   5.013  13.560  0.00  0.00    +0.000 A 
ATOM     16  C   UNL     1      45.604   4.410  12.980  0.00  0.00    +0.000 A 
ATOM     17  C   UNL     1      45.042   4.931  11.811  0.00  0.00    +0.000 A 
ATOM     18  C   UNL     1      45.648   6.043  11.215  0.00  0.00    +0.000 A 
ATOM     19  C   UNL     1      46.773   6.645  11.793  0.00  0.00    +0.000 A 
BRANCH  14  20
ATOM     20  C   UNL     1      48.499   6.820  13.631  0.00  0.00    +0.000 C 
BRANCH  20  21
ATOM     21  N   UNL     1      49.695   6.770  12.798  0.00  0.00    +0.000 NA
ATOM     22  H   UNL     1      49.633   5.966  12.177  0.00  0.00    +0.000 HD
ATOM     23  H   UNL     1      50.503   6.607  13.398  0.00  0.00    +0.000 HD
ENDBRANCH  20  21
ENDBRANCH  14  20
ENDBRANCH  13  17
ENDBRANCH   1  13
TORSDOF 6
ENDMDL
MODEL 7
REMARK VINA RESULT:    -6.304      2.997      7.188
REMARK INTER + INTRA:          -8.834
REMARK INTER:                  -8.369
REMARK INTRA:                  -0.465
REMARK UNBOUND:                -0.503
REMARK  Name = 
REMARK  6 active torsions:
REMARK  status: ('A' for Active; 'I' for Inactive)
REMARK    1  A    between atoms: N_1  and  C_2
REMARK    2  A    between atoms: C_2  and  C_3
REMARK    3  A    between atoms: C_6  and  S_7
REMARK    4  A    between atoms: S_7  and  C_8
REMARK    5  A    between atoms: C_8  and  C_9
REMARK    6  A    between atoms: C_13  and  C_14
REMARK                            x       y       z     vdW  Elec       q    Type
REMARK                         _______ _______ _______ _____ _____    ______ ____
ROOT
ATOM      1  C   UNL     1      45.903   7.402  12.173  0.00  0.00    +0.000 C 
ENDROOT
BRANCH   1   2
ATOM      2  C   UNL     1      45.171   6.354  11.376  0.00  0.00    +0.000 A 
ATOM      3  C   UNL     1      43.864   5.990  11.684  0.00  0.00    +0.000 A 
ATOM      4  N   UNL     1      43.168   5.032  11.029  0.00  0.00    +0.000 NA
ATOM      5  C   UNL     1      43.797   4.410  10.002  0.00  0.00    +0.000 A 
ATOM      6  C   UNL     1      45.087   4.720   9.588  0.00  0.00    +0.000 A 
ATOM      7  C   UNL     1      45.784   5.703  10.295  0.00  0.00    +0.000 A 
BRANCH   6   8
ATOM      8  C   UNL     1      45.668   3.980   8.450  0.00  0.00    +0.000 C 
ATOM      9  N   UNL     1      45.471   2.626   8.413  0.00  0.00    +0.000 N 
ATOM     10  O   UNL     1      46.326   4.545   7.586  0.00  0.00    +0.000 OA
ATOM     11  H   UNL     1      45.166   2.099   9.218  0.00  0.00    +0.000 HD
ATOM     12  H   UNL     1      45.965   2.122   7.686  0.00  0.00    +0.000 HD
ENDBRANCH   6   8
ENDBRANCH   1   2
BRANCH   1  13
ATOM     13  S   UNL     1      47.681   7.016  12.306  0.00  0.00    +0.000 S 
BRANCH  13  17
ATOM     14  C   UNL     1      47.761   4.703  16.304  0.00  0.00    +0.000 A 
ATOM     15  C   UNL     1      48.512   5.878  16.164  0.00  0.00    +0.000 A 
ATOM     16  C   UNL     1      48.508   6.597  14.962  0.00  0.00    +0.000 A 
ATOM     17  C   UNL     1      47.762   6.148  13.868  0.00  0.00    +0.000 A 
ATOM     18  C   UNL     1      46.994   4.988  14.013  0.00  0.00    +0.000 A 
ATOM     19  C   UNL     1      46.995   4.270  15.216  0.00  0.00    +0.000 A 
BRANCH  14  20
ATOM     20  C   UNL     1      47.808   3.903  17.582  0.00  0.00    +0.000 C 
BRANCH  20  21
ATOM     21  N   UNL     1      46.719   2.936  17.666  0.00  0.00    +0.000 NA
ATOM     22  H   UNL     1      46.408   2.704  16.724  0.00  0.00    +0.000 HD
ATOM     23  H   UNL     1      45.926   3.378  18.128  0.00  0.00    +0.000 HD
ENDBRANCH  20  21
ENDBRANCH  14  20
ENDBRANCH  13  17
ENDBRANCH   1  13
TORSDOF 6
ENDMDL
MODEL 8
REMARK VINA RESULT:    -6.263      3.081      4.029
REMARK INTER + INTRA:          -8.780
REMARK INTER:                  -8.336
REMARK INTRA:                  -0.444
REMARK UNBOUND:                -0.503
REMARK  Name = 
REMARK  6 active torsions:
REMARK  status: ('A' for Active; 'I' for Inactive)
REMARK    1  A    between atoms: N_1  and  C_2
REMARK    2  A    between atoms: C_2  and  C_3
REMARK    3  A    between atoms: C_6  and  S_7
REMARK    4  A    between atoms: S_7  and  C_8
REMARK    5  A    between atoms: C_8  and  C_9
REMARK    6  A    between atoms: C_13  and  C_14
REMARK                            x       y       z     vdW  Elec       q    Type
REMARK                         _______ _______ _______ _____ _____    ______ ____
ROOT
ATOM      1  C   UNL     1      45.637   5.354  11.953  0.00  0.00    +0.000 C 
ENDROOT
BRANCH   1   2
ATOM      2  C   UNL     1      45.621   6.860  11.957  0.00  0.00    +0.000 A 
ATOM      3  C   UNL     1      46.648   7.594  12.543  0.00  0.00    +0.000 A 
ATOM      4  N   UNL     1      46.673   8.945  12.610  0.00  0.00    +0.000 NA
ATOM      5  C   UNL     1      45.629   9.606  12.052  0.00  0.00    +0.000 A 
ATOM      6  C   UNL     1      44.571   8.974  11.411  0.00  0.00    +0.000 A 
ATOM      7  C   UNL     1      44.568   7.578  11.372  0.00  0.00    +0.000 A 
BRANCH   6   8
ATOM      8  C   UNL     1      43.491   9.800  10.833  0.00  0.00    +0.000 C 
ATOM      9  N   UNL     1      42.263   9.214  10.685  0.00  0.00    +0.000 N 
ATOM     10  O   UNL     1      43.688  10.952  10.471  0.00  0.00    +0.000 OA
ATOM     11  H   UNL     1      42.128   8.215  10.727  0.00  0.00    +0.000 HD
ATOM     12  H   UNL     1      41.565   9.758  10.191  0.00  0.00    +0.000 HD
ENDBRANCH   6   8
ENDBRANCH   1   2
BRANCH   1  13
ATOM     13  S   UNL     1      44.243   4.676  10.991  0.00  0.00    +0.000 S 
BRANCH  13  17
ATOM     14  C   UNL     1      46.403   2.597   7.475  0.00  0.00    +0.000 A 
ATOM     15  C   UNL     1      45.790   1.824   8.472  0.00  0.00    +0.000 A 
ATOM     16  C   UNL     1      45.132   2.429   9.551  0.00  0.00    +0.000 A 
ATOM     17  C   UNL     1      45.083   3.822   9.662  0.00  0.00    +0.000 A 
ATOM     18  C   UNL     1      45.673   4.595   8.656  0.00  0.00    +0.000 A 
ATOM     19  C   UNL     1      46.329   3.991   7.576  0.00  0.00    +0.000 A 
BRANCH  14  20
ATOM     20  C   UNL     1      47.154   1.944   6.343  0.00  0.00    +0.000 C 
BRANCH  20  21
ATOM     21  N   UNL     1      47.537   2.902   5.311  0.00  0.00    +0.000 NA
ATOM     22  H   UNL     1      47.498   2.443   4.403  0.00  0.00    +0.000 HD
ATOM     23  H   UNL     1      48.510   3.167   5.457  0.00  0.00    +0.000 HD
ENDBRANCH  20  21
ENDBRANCH  14  20
ENDBRANCH  13  17
ENDBRANCH   1  13
TORSDOF 6
ENDMDL
MODEL 9
REMARK VINA RESULT:    -6.046      2.991      7.282
REMARK INTER + INTRA:          -8.493
REMARK INTER:                  -8.146
REMARK INTRA:                  -0.347
REMARK UNBOUND:                -0.503
REMARK  Name = 
REMARK  6 active torsions:
REMARK  status: ('A' for Active; 'I' for Inactive)
REMARK    1  A    between atoms: N_1  and  C_2
REMARK    2  A    between atoms: C_2  and  C_3
REMARK    3  A    between atoms: C_6  and  S_7
REMARK    4  A    between atoms: S_7  and  C_8
REMARK    5  A    between atoms: C_8  and  C_9
REMARK    6  A    between atoms: C_13  and  C_14
REMARK                            x       y       z     vdW  Elec       q    Type
REMARK                         _______ _______ _______ _____ _____    ______ ____
ROOT
ATOM      1  C   UNL     1      44.983   5.459   9.519  0.00  0.00    +0.000 C 
ENDROOT
BRANCH   1   2
ATOM      2  C   UNL     1      45.298   4.083   8.995  0.00  0.00    +0.000 A 
ATOM      3  C   UNL     1      44.699   2.947   9.532  0.00  0.00    +0.000 A 
ATOM      4  N   UNL     1      44.968   1.684   9.129  0.00  0.00    +0.000 NA
ATOM      5  C   UNL     1      45.870   1.539   8.127  0.00  0.00    +0.000 A 
ATOM      6  C   UNL     1      46.499   2.605   7.496  0.00  0.00    +0.000 A 
ATOM      7  C   UNL     1      46.211   3.895   7.947  0.00  0.00    +0.000 A 
BRANCH   6   8
ATOM      8  C   UNL     1      47.459   2.325   6.410  0.00  0.00    +0.000 C 
ATOM      9  N   UNL     1      47.399   3.120   5.297  0.00  0.00    +0.000 N 
ATOM     10  O   UNL     1      48.260   1.402   6.482  0.00  0.00    +0.000 OA
ATOM     11  H   UNL     1      46.605   3.708   5.091  0.00  0.00    +0.000 HD
ATOM     12  H   UNL     1      47.991   2.848   4.521  0.00  0.00    +0.000 HD
ENDBRANCH   6   8
ENDBRANCH   1   2
BRANCH   1  13
ATOM     13  S   UNL     1      44.698   5.436  11.321  0.00  0.00    +0.000 S 
BRANCH  13  17
ATOM     14  C   UNL     1      47.573   8.711  12.854  0.00  0.00    +0.000 A 
ATOM     15  C   UNL     1      48.055   7.699  12.012  0.00  0.00    +0.000 A 
ATOM     16  C   UNL     1      47.206   6.692  11.536  0.00  0.00    +0.000 A 
ATOM     17  C   UNL     1      45.857   6.669  11.902  0.00  0.00    +0.000 A 
ATOM     18  C   UNL     1      45.368   7.692  12.722  0.00  0.00    +0.000 A 
ATOM     19  C   UNL     1      46.217   8.701  13.197  0.00  0.00    +0.000 A 
BRANCH  14  20
ATOM     20  C   UNL     1      48.500   9.764  13.406  0.00  0.00    +0.000 C 
BRANCH  20  21
ATOM     21  N   UNL     1      48.222  10.063  14.807  0.00  0.00    +0.000 NA
ATOM     22  H   UNL     1      48.956   9.658  15.384  0.00  0.00    +0.000 HD
ATOM     23  H   UNL     1      47.357   9.596  15.074  0.00  0.00    +0.000 HD
ENDBRANCH  20  21
ENDBRANCH  14  20
ENDBRANCH  13  17
ENDBRANCH   1  13
TORSDOF 6
ENDMDL
