MODEL 1
REMARK VINA RESULT:    -6.941      0.000      0.000
REMARK INTER + INTRA:         -11.510
REMARK INTER:                 -10.593
REMARK INTRA:                  -0.917
REMARK UNBOUND:                -0.917
REMARK  Name = 
REMARK  13 active torsions:
REMARK  status: ('A' for Active; 'I' for Inactive)
REMARK    1  A    between atoms: C_1  and  N_2
REMARK    2  A    between atoms: N_2  and  C_3
REMARK    3  A    between atoms: N_2  and  C_4
REMARK    4  A    between atoms: C_4  and  C_5
REMARK    5  A    between atoms: C_5  and  N_6
REMARK    6  A    between atoms: C_7  and  C_9
REMARK    7  A    between atoms: C_12  and  N_13
REMARK    8  A    between atoms: N_13  and  C_14
REMARK    9  A    between atoms: C_14  and  C_15
REMARK   10  A    between atoms: C_15  and  C_16
REMARK   11  A    between atoms: C_15  and  C_17
REMARK   12  A    between atoms: C_15  and  C_18
REMARK   13  A    between atoms: C_22  and  C_23
REMARK                            x       y       z     vdW  Elec       q    Type
REMARK                         _______ _______ _______ _____ _____    ______ ____
ROOT
ATOM      1  N   UNL     1      46.917   5.250  15.234  0.00  0.00    +0.000 N 
ATOM      2  H   UNL     1      46.739   6.242  15.341  0.00  0.00    +0.000 HD
ENDROOT
BRANCH   1   6
ATOM      3  C   UNL     1      45.243   4.020  11.686  0.00  0.00    +0.000 A 
ATOM      4  C   UNL     1      45.849   3.108  12.538  0.00  0.00    +0.000 A 
ATOM      5  N   UNL     1      46.440   3.470  13.712  0.00  0.00    +0.000 NA
ATOM      6  C   UNL     1      46.394   4.783  14.022  0.00  0.00    +0.000 A 
ATOM      7  C   UNL     1      45.731   5.679  13.169  0.00  0.00    +0.000 A 
ATOM      8  N   UNL     1      45.173   5.345  11.978  0.00  0.00    +0.000 NA
BRANCH   3  10
ATOM      9  N   UNL     1      45.136   4.146   9.258  0.00  0.00    +0.000 N 
ATOM     10  C   UNL     1      44.645   3.556  10.406  0.00  0.00    +0.000 C 
ATOM     11  O   UNL     1      43.777   2.689  10.398  0.00  0.00    +0.000 OA
ATOM     12  H   UNL     1      45.949   4.760   9.334  0.00  0.00    +0.000 HD
BRANCH   9  13
ATOM     13  C   UNL     1      44.683   3.724   7.951  0.00  0.00    +0.000 C 
BRANCH  13  14
ATOM     14  C   UNL     1      45.807   3.207   7.036  0.00  0.00    +0.000 C 
BRANCH  14  16
ATOM     15  C   UNL     1      46.317   1.013   7.969  0.00  0.00    +0.000 C 
ATOM     16  N   UNL     1      46.824   2.361   7.698  0.00  0.00    +0.000 NA
ATOM     17  C   UNL     1      48.014   2.263   6.842  0.00  0.00    +0.000 C 
ENDBRANCH  14  16
ENDBRANCH  13  14
ENDBRANCH   9  13
ENDBRANCH   3  10
ENDBRANCH   1   6
BRANCH   1  18
ATOM     18  C   UNL     1      48.312   4.886  15.520  0.00  0.00    +0.000 C 
BRANCH  18  19
ATOM     19  C   UNL     1      48.485   4.300  16.972  0.00  0.00    +0.000 C 
ATOM     20  C   UNL     1      47.802   5.300  17.942  0.00  0.00    +0.000 C 
ATOM     21  C   UNL     1      47.705   2.962  17.059  0.00  0.00    +0.000 C 
BRANCH  19  22
ATOM     22  C   UNL     1      49.944   4.106  17.439  0.00  0.00    +0.000 A 
ATOM     23  C   UNL     1      50.713   5.151  17.983  0.00  0.00    +0.000 A 
ATOM     24  C   UNL     1      52.020   4.942  18.432  0.00  0.00    +0.000 A 
ATOM     25  C   UNL     1      52.586   3.672  18.376  0.00  0.00    +0.000 A 
ATOM     26  C   UNL     1      51.844   2.606  17.867  0.00  0.00    +0.000 A 
ATOM     27  C   UNL     1      50.548   2.832  17.376  0.00  0.00    +0.000 A 
BRANCH  26  28
ATOM     28  C   UNL     1      52.460   1.254  17.881  0.00  0.00    +0.000 C 
ATOM     29  N   UNL     1      51.629   0.187  18.094  0.00  0.00    +0.000 N 
ATOM     30  O   UNL     1      53.668   1.093  17.763  0.00  0.00    +0.000 OA
ATOM     31  H   UNL     1      50.694   0.297  18.456  0.00  0.00    +0.000 HD
ATOM     32  H   UNL     1      52.086  -0.703  18.245  0.00  0.00    +0.000 HD
ENDBRANCH  26  28
ENDBRANCH  19  22
ENDBRANCH  18  19
ENDBRANCH   1  18
TORSDOF 9
ENDMDL
MODEL 2
REMARK VINA RESULT:    -6.928      1.873      2.677
REMARK INTER + INTRA:         -11.490
REMARK INTER:                 -10.509
REMARK INTRA:                  -0.981
REMARK UNBOUND:                -0.917
REMARK  Name = 
REMARK  13 active torsions:
REMARK  status: ('A' for Active; 'I' for Inactive)
REMARK    1  A    between atoms: C_1  and  N_2
REMARK    2  A    between atoms: N_2  and  C_3
REMARK    3  A    between atoms: N_2  and  C_4
REMARK    4  A    between atoms: C_4  and  C_5
REMARK    5  A    between atoms: C_5  and  N_6
REMARK    6  A    between atoms: C_7  and  C_9
REMARK    7  A    between atoms: C_12  and  N_13
REMARK    8  A    between atoms: N_13  and  C_14
REMARK    9  A    between atoms: C_14  and  C_15
REMARK   10  A    between atoms: C_15  and  C_16
REMARK   11  A    between atoms: C_15  and  C_17
REMARK   12  A    between atoms: C_15  and  C_18
REMARK   13  A    between atoms: C_22  and  C_23
REMARK                            x       y       z     vdW  Elec       q    Type
REMARK                         _______ _______ _______ _____ _____    ______ ____
ROOT
ATOM      1  N   UNL     1      48.004   7.524  14.482  0.00  0.00    +0.000 N 
ATOM      2  H   UNL     1      47.981   8.373  13.929  0.00  0.00    +0.000 HD
ENDROOT
BRANCH   1   6
ATOM      3  C   UNL     1      45.735   4.652  12.611  0.00  0.00    +0.000 A 
ATOM      4  C   UNL     1      46.678   4.299  13.565  0.00  0.00    +0.000 A 
ATOM      5  N   UNL     1      47.472   5.211  14.194  0.00  0.00    +0.000 NA
ATOM      6  C   UNL     1      47.283   6.503  13.850  0.00  0.00    +0.000 A 
ATOM      7  C   UNL     1      46.288   6.840  12.920  0.00  0.00    +0.000 A 
ATOM      8  N   UNL     1      45.516   5.943  12.253  0.00  0.00    +0.000 NA
BRANCH   3  10
ATOM      9  N   UNL     1      45.066   3.503  10.572  0.00  0.00    +0.000 N 
ATOM     10  C   UNL     1      44.925   3.598  11.943  0.00  0.00    +0.000 C 
ATOM     11  O   UNL     1      44.193   2.861  12.596  0.00  0.00    +0.000 OA
ATOM     12  H   UNL     1      45.791   4.058  10.116  0.00  0.00    +0.000 HD
BRANCH   9  13
ATOM     13  C   UNL     1      44.384   2.469   9.824  0.00  0.00    +0.000 C 
BRANCH  13  14
ATOM     14  C   UNL     1      45.300   1.681   8.869  0.00  0.00    +0.000 C 
BRANCH  14  16
ATOM     15  C   UNL     1      47.178   1.656   7.315  0.00  0.00    +0.000 C 
ATOM     16  N   UNL     1      46.303   2.490   8.143  0.00  0.00    +0.000 NA
ATOM     17  C   UNL     1      45.617   3.466   7.285  0.00  0.00    +0.000 C 
ENDBRANCH  14  16
ENDBRANCH  13  14
ENDBRANCH   9  13
ENDBRANCH   3  10
ENDBRANCH   1   6
BRANCH   1  18
ATOM     18  C   UNL     1      49.358   7.175  14.937  0.00  0.00    +0.000 C 
BRANCH  18  19
ATOM     19  C   UNL     1      49.513   7.317  16.498  0.00  0.00    +0.000 C 
ATOM     20  C   UNL     1      50.979   7.748  16.765  0.00  0.00    +0.000 C 
ATOM     21  C   UNL     1      48.594   8.470  16.980  0.00  0.00    +0.000 C 
BRANCH  19  22
ATOM     22  C   UNL     1      49.240   6.032  17.311  0.00  0.00    +0.000 A 
ATOM     23  C   UNL     1      48.414   6.015  18.448  0.00  0.00    +0.000 A 
ATOM     24  C   UNL     1      48.154   4.833  19.147  0.00  0.00    +0.000 A 
ATOM     25  C   UNL     1      48.690   3.626  18.707  0.00  0.00    +0.000 A 
ATOM     26  C   UNL     1      49.493   3.601  17.566  0.00  0.00    +0.000 A 
ATOM     27  C   UNL     1      49.787   4.799  16.896  0.00  0.00    +0.000 A 
BRANCH  26  28
ATOM     28  C   UNL     1      49.996   2.285  17.093  0.00  0.00    +0.000 C 
ATOM     29  N   UNL     1      50.964   1.676  17.846  0.00  0.00    +0.000 N 
ATOM     30  O   UNL     1      49.608   1.782  16.047  0.00  0.00    +0.000 OA
ATOM     31  H   UNL     1      51.490   2.171  18.549  0.00  0.00    +0.000 HD
ATOM     32  H   UNL     1      51.394   0.859  17.431  0.00  0.00    +0.000 HD
ENDBRANCH  26  28
ENDBRANCH  19  22
ENDBRANCH  18  19
ENDBRANCH   1  18
TORSDOF 9
ENDMDL
MODEL 3
REMARK VINA RESULT:    -6.900      1.582      2.290
REMARK INTER + INTRA:         -11.448
REMARK INTER:                 -10.475
REMARK INTRA:                  -0.973
REMARK UNBOUND:                -0.917
REMARK  Name = 
REMARK  13 active torsions:
REMARK  status: ('A' for Active; 'I' for Inactive)
REMARK    1  A    between atoms: C_1  and  N_2
REMARK    2  A    between atoms: N_2  and  C_3
REMARK    3  A    between atoms: N_2  and  C_4
REMARK    4  A    between atoms: C_4  and  C_5
REMARK    5  A    between atoms: C_5  and  N_6
REMARK    6  A    between atoms: C_7  and  C_9
REMARK    7  A    between atoms: C_12  and  N_13
REMARK    8  A    between atoms: N_13  and  C_14
REMARK    9  A    between atoms: C_14  and  C_15
REMARK   10  A    between atoms: C_15  and  C_16
REMARK   11  A    between atoms: C_15  and  C_17
REMARK   12  A    between atoms: C_15  and  C_18
REMARK   13  A    between atoms: C_22  and  C_23
REMARK                            x       y       z     vdW  Elec       q    Type
REMARK                         _______ _______ _______ _____ _____    ______ ____
ROOT
ATOM      1  N   UNL     1      48.424   6.643  15.424  0.00  0.00    +0.000 N 
ATOM      2  H   UNL     1      49.365   6.635  15.047  0.00  0.00    +0.000 HD
ENDROOT
BRANCH   1   6
ATOM      3  C   UNL     1      45.930   4.455  12.996  0.00  0.00    +0.000 A 
ATOM      4  C   UNL     1      46.356   5.720  12.619  0.00  0.00    +0.000 A 
ATOM      5  N   UNL     1      47.161   6.495  13.400  0.00  0.00    +0.000 NA
ATOM      6  C   UNL     1      47.547   5.956  14.576  0.00  0.00    +0.000 A 
ATOM      7  C   UNL     1      47.145   4.654  14.913  0.00  0.00    +0.000 A 
ATOM      8  N   UNL     1      46.311   3.884  14.168  0.00  0.00    +0.000 NA
BRANCH   3  10
ATOM      9  N   UNL     1      45.096   3.982  10.759  0.00  0.00    +0.000 N 
ATOM     10  C   UNL     1      45.027   3.680  12.105  0.00  0.00    +0.000 C 
ATOM     11  O   UNL     1      44.282   2.819  12.563  0.00  0.00    +0.000 OA
ATOM     12  H   UNL     1      45.833   4.612  10.438  0.00  0.00    +0.000 HD
BRANCH   9  13
ATOM     13  C   UNL     1      44.318   3.245   9.788  0.00  0.00    +0.000 C 
BRANCH  13  14
ATOM     14  C   UNL     1      45.069   2.060   9.154  0.00  0.00    +0.000 C 
BRANCH  14  16
ATOM     15  C   UNL     1      46.768   1.255   7.601  0.00  0.00    +0.000 C 
ATOM     16  N   UNL     1      46.202   2.427   8.275  0.00  0.00    +0.000 NA
ATOM     17  C   UNL     1      45.744   3.388   7.262  0.00  0.00    +0.000 C 
ENDBRANCH  14  16
ENDBRANCH  13  14
ENDBRANCH   9  13
ENDBRANCH   3  10
ENDBRANCH   1   6
BRANCH   1  18
ATOM     18  C   UNL     1      48.375   6.272  16.846  0.00  0.00    +0.000 C 
BRANCH  18  19
ATOM     19  C   UNL     1      49.710   6.633  17.598  0.00  0.00    +0.000 C 
ATOM     20  C   UNL     1      50.471   7.642  16.699  0.00  0.00    +0.000 C 
ATOM     21  C   UNL     1      49.349   7.366  18.916  0.00  0.00    +0.000 C 
BRANCH  19  22
ATOM     22  C   UNL     1      50.653   5.444  17.882  0.00  0.00    +0.000 A 
ATOM     23  C   UNL     1      51.776   5.549  18.722  0.00  0.00    +0.000 A 
ATOM     24  C   UNL     1      52.595   4.449  18.992  0.00  0.00    +0.000 A 
ATOM     25  C   UNL     1      52.295   3.202  18.452  0.00  0.00    +0.000 A 
ATOM     26  C   UNL     1      51.173   3.054  17.635  0.00  0.00    +0.000 A 
ATOM     27  C   UNL     1      50.381   4.173  17.331  0.00  0.00    +0.000 A 
BRANCH  26  28
ATOM     28  C   UNL     1      50.851   1.695  17.128  0.00  0.00    +0.000 C 
ATOM     29  N   UNL     1      51.469   0.635  17.736  0.00  0.00    +0.000 N 
ATOM     30  O   UNL     1      50.107   1.521  16.171  0.00  0.00    +0.000 OA
ATOM     31  H   UNL     1      52.274   0.752  18.332  0.00  0.00    +0.000 HD
ATOM     32  H   UNL     1      51.350  -0.262  17.283  0.00  0.00    +0.000 HD
ENDBRANCH  26  28
ENDBRANCH  19  22
ENDBRANCH  18  19
ENDBRANCH   1  18
TORSDOF 9
ENDMDL
MODEL 4
REMARK VINA RESULT:    -6.862      4.642      8.507
REMARK INTER + INTRA:         -11.390
REMARK INTER:                 -10.309
REMARK INTRA:                  -1.080
REMARK UNBOUND:                -0.917
REMARK  Name = 
REMARK  13 active torsions:
REMARK  status: ('A' for Active; 'I' for Inactive)
REMARK    1  A    between atoms: C_1  and  N_2
REMARK    2  A    between atoms: N_2  and  C_3
REMARK    3  A    between atoms: N_2  and  C_4
REMARK    4  A    between atoms: C_4  and  C_5
REMARK    5  A    between atoms: C_5  and  N_6
REMARK    6  A    between atoms: C_7  and  C_9
REMARK    7  A    between atoms: C_12  and  N_13
REMARK    8  A    between atoms: N_13  and  C_14
REMARK    9  A    between atoms: C_14  and  C_15
REMARK   10  A    between atoms: C_15  and  C_16
REMARK   11  A    between atoms: C_15  and  C_17
REMARK   12  A    between atoms: C_15  and  C_18
REMARK   13  A    between atoms: C_22  and  C_23
REMARK                            x       y       z     vdW  Elec       q    Type
REMARK                         _______ _______ _______ _____ _____    ______ ____
ROOT
ATOM      1  N   UNL     1      45.024   4.911  13.199  0.00  0.00    +0.000 N 
ATOM      2  H   UNL     1      44.859   4.910  14.199  0.00  0.00    +0.000 HD
ENDROOT
BRANCH   1   6
ATOM      3  C   UNL     1      48.356   7.196  12.443  0.00  0.00    +0.000 A 
ATOM      4  C   UNL     1      47.117   7.561  11.937  0.00  0.00    +0.000 A 
ATOM      5  N   UNL     1      45.989   6.822  12.137  0.00  0.00    +0.000 NA
ATOM      6  C   UNL     1      46.132   5.706  12.882  0.00  0.00    +0.000 A 
ATOM      7  C   UNL     1      47.386   5.385  13.426  0.00  0.00    +0.000 A 
ATOM      8  N   UNL     1      48.528   6.085  13.204  0.00  0.00    +0.000 NA
BRANCH   3  10
ATOM      9  N   UNL     1      50.622   7.386  11.577  0.00  0.00    +0.000 N 
ATOM     10  C   UNL     1      49.550   8.035  12.157  0.00  0.00    +0.000 C 
ATOM     11  O   UNL     1      49.552   9.234  12.419  0.00  0.00    +0.000 OA
ATOM     12  H   UNL     1      50.499   6.421  11.266  0.00  0.00    +0.000 HD
BRANCH   9  13
ATOM     13  C   UNL     1      51.811   8.112  11.187  0.00  0.00    +0.000 C 
BRANCH  13  14
ATOM     14  C   UNL     1      52.416   7.650   9.849  0.00  0.00    +0.000 C 
BRANCH  14  16
ATOM     15  C   UNL     1      52.543  10.058   9.491  0.00  0.00    +0.000 C 
ATOM     16  N   UNL     1      52.852   8.735   8.942  0.00  0.00    +0.000 NA
ATOM     17  C   UNL     1      54.301   8.634   8.719  0.00  0.00    +0.000 C 
ENDBRANCH  14  16
ENDBRANCH  13  14
ENDBRANCH   9  13
ENDBRANCH   3  10
ENDBRANCH   1   6
BRANCH   1  18
ATOM     18  C   UNL     1      45.007   3.561  12.617  0.00  0.00    +0.000 C 
BRANCH  18  19
ATOM     19  C   UNL     1      44.119   3.487  11.319  0.00  0.00    +0.000 C 
ATOM     20  C   UNL     1      43.356   2.137  11.375  0.00  0.00    +0.000 C 
ATOM     21  C   UNL     1      43.062   4.621  11.381  0.00  0.00    +0.000 C 
BRANCH  19  22
ATOM     22  C   UNL     1      44.892   3.541   9.983  0.00  0.00    +0.000 A 
ATOM     23  C   UNL     1      45.155   4.744   9.306  0.00  0.00    +0.000 A 
ATOM     24  C   UNL     1      45.887   4.771   8.116  0.00  0.00    +0.000 A 
ATOM     25  C   UNL     1      46.404   3.594   7.585  0.00  0.00    +0.000 A 
ATOM     26  C   UNL     1      46.185   2.383   8.243  0.00  0.00    +0.000 A 
ATOM     27  C   UNL     1      45.410   2.358   9.413  0.00  0.00    +0.000 A 
BRANCH  26  28
ATOM     28  C   UNL     1      46.805   1.156   7.677  0.00  0.00    +0.000 C 
ATOM     29  N   UNL     1      47.798   1.325   6.750  0.00  0.00    +0.000 N 
ATOM     30  O   UNL     1      46.415   0.036   7.980  0.00  0.00    +0.000 OA
ATOM     31  H   UNL     1      47.957   2.207   6.286  0.00  0.00    +0.000 HD
ATOM     32  H   UNL     1      48.102   0.486   6.273  0.00  0.00    +0.000 HD
ENDBRANCH  26  28
ENDBRANCH  19  22
ENDBRANCH  18  19
ENDBRANCH   1  18
TORSDOF 9
ENDMDL
MODEL 5
REMARK VINA RESULT:    -6.535      2.480      3.293
REMARK INTER + INTRA:         -10.891
REMARK INTER:                 -10.004
REMARK INTRA:                  -0.887
REMARK UNBOUND:                -0.917
REMARK  Name = 
REMARK  13 active torsions:
REMARK  status: ('A' for Active; 'I' for Inactive)
REMARK    1  A    between atoms: C_1  and  N_2
REMARK    2  A    between atoms: N_2  and  C_3
REMARK    3  A    between atoms: N_2  and  C_4
REMARK    4  A    between atoms: C_4  and  C_5
REMARK    5  A    between atoms: C_5  and  N_6
REMARK    6  A    between atoms: C_7  and  C_9
REMARK    7  A    between atoms: C_12  and  N_13
REMARK    8  A    between atoms: N_13  and  C_14
REMARK    9  A    between atoms: C_14  and  C_15
REMARK   10  A    between atoms: C_15  and  C_16
REMARK   11  A    between atoms: C_15  and  C_17
REMARK   12  A    between atoms: C_15  and  C_18
REMARK   13  A    between atoms: C_22  and  C_23
REMARK                            x       y       z     vdW  Elec       q    Type
REMARK                         _______ _______ _______ _____ _____    ______ ____
ROOT
ATOM      1  N   UNL     1      47.181   7.637  14.002  0.00  0.00    +0.000 N 
ATOM      2  H   UNL     1      46.843   8.586  13.884  0.00  0.00    +0.000 HD
ENDROOT
BRANCH   1   6
ATOM      3  C   UNL     1      45.148   4.884  11.724  0.00  0.00    +0.000 A 
ATOM      4  C   UNL     1      45.343   6.179  11.265  0.00  0.00    +0.000 A 
ATOM      5  N   UNL     1      45.986   7.135  11.994  0.00  0.00    +0.000 NA
ATOM      6  C   UNL     1      46.451   6.750  13.201  0.00  0.00    +0.000 A 
ATOM      7  C   UNL     1      46.287   5.421  13.622  0.00  0.00    +0.000 A 
ATOM      8  N   UNL     1      45.614   4.467  12.929  0.00  0.00    +0.000 NA
BRANCH   3  10
ATOM      9  N   UNL     1      45.168   2.905  10.308  0.00  0.00    +0.000 N 
ATOM     10  C   UNL     1      44.409   3.904  10.886  0.00  0.00    +0.000 C 
ATOM     11  O   UNL     1      43.193   3.992  10.742  0.00  0.00    +0.000 OA
ATOM     12  H   UNL     1      46.148   2.817  10.580  0.00  0.00    +0.000 HD
BRANCH   9  13
ATOM     13  C   UNL     1      44.549   1.853   9.532  0.00  0.00    +0.000 C 
BRANCH  13  14
ATOM     14  C   UNL     1      45.417   1.340   8.369  0.00  0.00    +0.000 C 
BRANCH  14  16
ATOM     15  C   UNL     1      47.564   1.520   7.228  0.00  0.00    +0.000 C 
ATOM     16  N   UNL     1      46.515   2.241   7.953  0.00  0.00    +0.000 NA
ATOM     17  C   UNL     1      45.977   3.301   7.091  0.00  0.00    +0.000 C 
ENDBRANCH  14  16
ENDBRANCH  13  14
ENDBRANCH   9  13
ENDBRANCH   3  10
ENDBRANCH   1   6
BRANCH   1  18
ATOM     18  C   UNL     1      48.645   7.537  13.913  0.00  0.00    +0.000 C 
BRANCH  18  19
ATOM     19  C   UNL     1      49.343   7.814  15.297  0.00  0.00    +0.000 C 
ATOM     20  C   UNL     1      50.679   8.537  14.988  0.00  0.00    +0.000 C 
ATOM     21  C   UNL     1      48.458   8.799  16.106  0.00  0.00    +0.000 C 
BRANCH  19  22
ATOM     22  C   UNL     1      49.664   6.560  16.139  0.00  0.00    +0.000 A 
ATOM     23  C   UNL     1      50.957   6.275  16.613  0.00  0.00    +0.000 A 
ATOM     24  C   UNL     1      51.216   5.152  17.403  0.00  0.00    +0.000 A 
ATOM     25  C   UNL     1      50.181   4.296  17.768  0.00  0.00    +0.000 A 
ATOM     26  C   UNL     1      48.881   4.562  17.338  0.00  0.00    +0.000 A 
ATOM     27  C   UNL     1      48.635   5.666  16.506  0.00  0.00    +0.000 A 
BRANCH  26  28
ATOM     28  C   UNL     1      47.793   3.660  17.798  0.00  0.00    +0.000 C 
ATOM     29  N   UNL     1      48.040   2.894  18.906  0.00  0.00    +0.000 N 
ATOM     30  O   UNL     1      46.736   3.558  17.189  0.00  0.00    +0.000 OA
ATOM     31  H   UNL     1      48.972   2.753  19.266  0.00  0.00    +0.000 HD
ATOM     32  H   UNL     1      47.348   2.186  19.114  0.00  0.00    +0.000 HD
ENDBRANCH  26  28
ENDBRANCH  19  22
ENDBRANCH  18  19
ENDBRANCH   1  18
TORSDOF 9
ENDMDL
MODEL 6
REMARK VINA RESULT:    -6.480      2.932      9.557
REMARK INTER + INTRA:         -10.806
REMARK INTER:                  -9.889
REMARK INTRA:                  -0.916
REMARK UNBOUND:                -0.917
REMARK  Name = 
REMARK  13 active torsions:
REMARK  status: ('A' for Active; 'I' for Inactive)
REMARK    1  A    between atoms: C_1  and  N_2
REMARK    2  A    between atoms: N_2  and  C_3
REMARK    3  A    between atoms: N_2  and  C_4
REMARK    4  A    between atoms: C_4  and  C_5
REMARK    5  A    between atoms: C_5  and  N_6
REMARK    6  A    between atoms: C_7  and  C_9
REMARK    7  A    between atoms: C_12  and  N_13
REMARK    8  A    between atoms: N_13  and  C_14
REMARK    9  A    between atoms: C_14  and  C_15
REMARK   10  A    between atoms: C_15  and  C_16
REMARK   11  A    between atoms: C_15  and  C_17
REMARK   12  A    between atoms: C_15  and  C_18
REMARK   13  A    between atoms: C_22  and  C_23
REMARK                            x       y       z     vdW  Elec       q    Type
REMARK                         _______ _______ _______ _____ _____    ______ ____
ROOT
ATOM      1  N   UNL     1      45.901   3.820  13.211  0.00  0.00    +0.000 N 
ATOM      2  H   UNL     1      46.459   3.543  12.411  0.00  0.00    +0.000 HD
ENDROOT
BRANCH   1   6
ATOM      3  C   UNL     1      48.404   5.468  16.025  0.00  0.00    +0.000 A 
ATOM      4  C   UNL     1      47.714   4.293  16.290  0.00  0.00    +0.000 A 
ATOM      5  N   UNL     1      46.854   3.722  15.400  0.00  0.00    +0.000 NA
ATOM      6  C   UNL     1      46.713   4.357  14.217  0.00  0.00    +0.000 A 
ATOM      7  C   UNL     1      47.459   5.515  13.953  0.00  0.00    +0.000 A 
ATOM      8  N   UNL     1      48.289   6.121  14.840  0.00  0.00    +0.000 NA
BRANCH   3  10
ATOM      9  N   UNL     1      48.700   6.864  17.996  0.00  0.00    +0.000 N 
ATOM     10  C   UNL     1      49.302   6.050  17.057  0.00  0.00    +0.000 C 
ATOM     11  O   UNL     1      50.503   5.795  17.059  0.00  0.00    +0.000 OA
ATOM     12  H   UNL     1      47.681   6.921  18.011  0.00  0.00    +0.000 HD
BRANCH   9  13
ATOM     13  C   UNL     1      49.461   7.428  19.090  0.00  0.00    +0.000 C 
BRANCH  13  14
ATOM     14  C   UNL     1      49.528   8.966  19.078  0.00  0.00    +0.000 C 
BRANCH  14  16
ATOM     15  C   UNL     1      47.576  10.427  19.087  0.00  0.00    +0.000 C 
ATOM     16  N   UNL     1      48.494   9.638  18.261  0.00  0.00    +0.000 NA
ATOM     17  C   UNL     1      49.141  10.523  17.283  0.00  0.00    +0.000 C 
ENDBRANCH  14  16
ENDBRANCH  13  14
ENDBRANCH   9  13
ENDBRANCH   3  10
ENDBRANCH   1   6
BRANCH   1  18
ATOM     18  C   UNL     1      44.723   4.614  12.836  0.00  0.00    +0.000 C 
BRANCH  18  19
ATOM     19  C   UNL     1      43.979   4.016  11.584  0.00  0.00    +0.000 C 
ATOM     20  C   UNL     1      43.603   2.554  11.943  0.00  0.00    +0.000 C 
ATOM     21  C   UNL     1      42.655   4.798  11.378  0.00  0.00    +0.000 C 
BRANCH  19  22
ATOM     22  C   UNL     1      44.799   3.988  10.276  0.00  0.00    +0.000 A 
ATOM     23  C   UNL     1      45.291   5.154   9.663  0.00  0.00    +0.000 A 
ATOM     24  C   UNL     1      46.061   5.101   8.498  0.00  0.00    +0.000 A 
ATOM     25  C   UNL     1      46.388   3.874   7.929  0.00  0.00    +0.000 A 
ATOM     26  C   UNL     1      45.940   2.694   8.525  0.00  0.00    +0.000 A 
ATOM     27  C   UNL     1      45.128   2.757   9.669  0.00  0.00    +0.000 A 
BRANCH  26  28
ATOM     28  C   UNL     1      46.361   1.402   7.923  0.00  0.00    +0.000 C 
ATOM     29  N   UNL     1      47.198   1.457   6.841  0.00  0.00    +0.000 N 
ATOM     30  O   UNL     1      45.940   0.329   8.335  0.00  0.00    +0.000 OA
ATOM     31  H   UNL     1      47.347   2.307   6.318  0.00  0.00    +0.000 HD
ATOM     32  H   UNL     1      47.353   0.581   6.360  0.00  0.00    +0.000 HD
ENDBRANCH  26  28
ENDBRANCH  19  22
ENDBRANCH  18  19
ENDBRANCH   1  18
TORSDOF 9
ENDMDL
MODEL 7
REMARK VINA RESULT:    -6.352      2.520      9.475
REMARK INTER + INTRA:         -10.611
REMARK INTER:                  -9.587
REMARK INTRA:                  -1.023
REMARK UNBOUND:                -0.917
REMARK  Name = 
REMARK  13 active torsions:
REMARK  status: ('A' for Active; 'I' for Inactive)
REMARK    1  A    between atoms: C_1  and  N_2
REMARK    2  A    between atoms: N_2  and  C_3
REMARK    3  A    between atoms: N_2  and  C_4
REMARK    4  A    between atoms: C_4  and  C_5
REMARK    5  A    between atoms: C_5  and  N_6
REMARK    6  A    between atoms: C_7  and  C_9
REMARK    7  A    between atoms: C_12  and  N_13
REMARK    8  A    between atoms: N_13  and  C_14
REMARK    9  A    between atoms: C_14  and  C_15
REMARK   10  A    between atoms: C_15  and  C_16
REMARK   11  A    between atoms: C_15  and  C_17
REMARK   12  A    between atoms: C_15  and  C_18
REMARK   13  A    between atoms: C_22  and  C_23
REMARK                            x       y       z     vdW  Elec       q    Type
REMARK                         _______ _______ _______ _____ _____    ______ ____
ROOT
ATOM      1  N   UNL     1      46.088   4.138  12.962  0.00  0.00    +0.000 N 
ATOM      2  H   UNL     1      46.625   4.335  12.125  0.00  0.00    +0.000 HD
ENDROOT
BRANCH   1   6
ATOM      3  C   UNL     1      48.354   5.250  16.207  0.00  0.00    +0.000 A 
ATOM      4  C   UNL     1      47.604   4.083  16.233  0.00  0.00    +0.000 A 
ATOM      5  N   UNL     1      46.817   3.685  15.193  0.00  0.00    +0.000 NA
ATOM      6  C   UNL     1      46.814   4.487  14.107  0.00  0.00    +0.000 A 
ATOM      7  C   UNL     1      47.621   5.636  14.085  0.00  0.00    +0.000 A 
ATOM      8  N   UNL     1      48.379   6.070  15.125  0.00  0.00    +0.000 NA
BRANCH   3  10
ATOM      9  N   UNL     1      49.954   4.642  17.937  0.00  0.00    +0.000 N 
ATOM     10  C   UNL     1      49.166   5.636  17.391  0.00  0.00    +0.000 C 
ATOM     11  O   UNL     1      49.128   6.781  17.831  0.00  0.00    +0.000 OA
ATOM     12  H   UNL     1      50.036   3.754  17.438  0.00  0.00    +0.000 HD
BRANCH   9  13
ATOM     13  C   UNL     1      50.841   4.918  19.046  0.00  0.00    +0.000 C 
BRANCH  13  14
ATOM     14  C   UNL     1      52.335   4.883  18.676  0.00  0.00    +0.000 C 
BRANCH  14  16
ATOM     15  C   UNL     1      52.859   6.621  17.050  0.00  0.00    +0.000 C 
ATOM     16  N   UNL     1      52.963   6.204  18.450  0.00  0.00    +0.000 NA
ATOM     17  C   UNL     1      52.309   7.208  19.301  0.00  0.00    +0.000 C 
ENDBRANCH  14  16
ENDBRANCH  13  14
ENDBRANCH   9  13
ENDBRANCH   3  10
ENDBRANCH   1   6
BRANCH   1  18
ATOM     18  C   UNL     1      44.710   4.643  12.889  0.00  0.00    +0.000 C 
BRANCH  18  19
ATOM     19  C   UNL     1      43.937   4.077  11.639  0.00  0.00    +0.000 C 
ATOM     20  C   UNL     1      43.516   2.627  11.992  0.00  0.00    +0.000 C 
ATOM     21  C   UNL     1      42.638   4.904  11.449  0.00  0.00    +0.000 C 
BRANCH  19  22
ATOM     22  C   UNL     1      44.746   4.031  10.325  0.00  0.00    +0.000 A 
ATOM     23  C   UNL     1      45.226   5.189   9.687  0.00  0.00    +0.000 A 
ATOM     24  C   UNL     1      45.986   5.119   8.517  0.00  0.00    +0.000 A 
ATOM     25  C   UNL     1      46.315   3.885   7.967  0.00  0.00    +0.000 A 
ATOM     26  C   UNL     1      45.879   2.713   8.587  0.00  0.00    +0.000 A 
ATOM     27  C   UNL     1      45.077   2.791   9.737  0.00  0.00    +0.000 A 
BRANCH  26  28
ATOM     28  C   UNL     1      46.302   1.413   8.004  0.00  0.00    +0.000 C 
ATOM     29  N   UNL     1      47.190   1.452   6.962  0.00  0.00    +0.000 N 
ATOM     30  O   UNL     1      45.841   0.348   8.395  0.00  0.00    +0.000 OA
ATOM     31  H   UNL     1      47.379   2.299   6.448  0.00  0.00    +0.000 HD
ATOM     32  H   UNL     1      47.350   0.572   6.488  0.00  0.00    +0.000 HD
ENDBRANCH  26  28
ENDBRANCH  19  22
ENDBRANCH  18  19
ENDBRANCH   1  18
TORSDOF 9
ENDMDL
MODEL 8
REMARK VINA RESULT:    -6.305      2.265      9.619
REMARK INTER + INTRA:         -10.540
REMARK INTER:                  -9.653
REMARK INTRA:                  -0.887
REMARK UNBOUND:                -0.917
REMARK  Name = 
REMARK  13 active torsions:
REMARK  status: ('A' for Active; 'I' for Inactive)
REMARK    1  A    between atoms: C_1  and  N_2
REMARK    2  A    between atoms: N_2  and  C_3
REMARK    3  A    between atoms: N_2  and  C_4
REMARK    4  A    between atoms: C_4  and  C_5
REMARK    5  A    between atoms: C_5  and  N_6
REMARK    6  A    between atoms: C_7  and  C_9
REMARK    7  A    between atoms: C_12  and  N_13
REMARK    8  A    between atoms: N_13  and  C_14
REMARK    9  A    between atoms: C_14  and  C_15
REMARK   10  A    between atoms: C_15  and  C_16
REMARK   11  A    between atoms: C_15  and  C_17
REMARK   12  A    between atoms: C_15  and  C_18
REMARK   13  A    between atoms: C_22  and  C_23
REMARK                            x       y       z     vdW  Elec       q    Type
REMARK                         _______ _______ _______ _____ _____    ______ ____
ROOT
ATOM      1  N   UNL     1      45.859   4.434  13.716  0.00  0.00    +0.000 N 
ATOM      2  H   UNL     1      46.158   3.705  13.077  0.00  0.00    +0.000 HD
ENDROOT
BRANCH   1   6
ATOM      3  C   UNL     1      48.703   4.955  16.638  0.00  0.00    +0.000 A 
ATOM      4  C   UNL     1      47.777   3.925  16.725  0.00  0.00    +0.000 A 
ATOM      5  N   UNL     1      46.800   3.728  15.796  0.00  0.00    +0.000 NA
ATOM      6  C   UNL     1      46.784   4.587  14.756  0.00  0.00    +0.000 A 
ATOM      7  C   UNL     1      47.761   5.590  14.663  0.00  0.00    +0.000 A 
ATOM      8  N   UNL     1      48.717   5.828  15.598  0.00  0.00    +0.000 NA
BRANCH   3  10
ATOM      9  N   UNL     1      51.020   5.335  17.279  0.00  0.00    +0.000 N 
ATOM     10  C   UNL     1      49.722   5.129  17.706  0.00  0.00    +0.000 C 
ATOM     11  O   UNL     1      49.401   5.099  18.890  0.00  0.00    +0.000 OA
ATOM     12  H   UNL     1      51.188   5.481  16.283  0.00  0.00    +0.000 HD
BRANCH   9  13
ATOM     13  C   UNL     1      52.084   5.589  18.226  0.00  0.00    +0.000 C 
BRANCH  13  14
ATOM     14  C   UNL     1      53.206   4.535  18.202  0.00  0.00    +0.000 C 
BRANCH  14  16
ATOM     15  C   UNL     1      53.059   2.104  18.090  0.00  0.00    +0.000 C 
ATOM     16  N   UNL     1      52.917   3.287  18.943  0.00  0.00    +0.000 NA
ATOM     17  C   UNL     1      53.837   3.170  20.083  0.00  0.00    +0.000 C 
ENDBRANCH  14  16
ENDBRANCH  13  14
ENDBRANCH   9  13
ENDBRANCH   3  10
ENDBRANCH   1   6
BRANCH   1  18
ATOM     18  C   UNL     1      45.450   5.665  13.025  0.00  0.00    +0.000 C 
BRANCH  18  19
ATOM     19  C   UNL     1      44.243   5.421  12.044  0.00  0.00    +0.000 C 
ATOM     20  C   UNL     1      43.030   5.011  12.920  0.00  0.00    +0.000 C 
ATOM     21  C   UNL     1      43.887   6.765  11.357  0.00  0.00    +0.000 C 
BRANCH  19  22
ATOM     22  C   UNL     1      44.461   4.315  10.988  0.00  0.00    +0.000 A 
ATOM     23  C   UNL     1      43.844   3.054  11.070  0.00  0.00    +0.000 A 
ATOM     24  C   UNL     1      44.029   2.082  10.083  0.00  0.00    +0.000 A 
ATOM     25  C   UNL     1      44.815   2.356   8.968  0.00  0.00    +0.000 A 
ATOM     26  C   UNL     1      45.421   3.607   8.839  0.00  0.00    +0.000 A 
ATOM     27  C   UNL     1      45.268   4.562   9.857  0.00  0.00    +0.000 A 
BRANCH  26  28
ATOM     28  C   UNL     1      46.202   3.882   7.605  0.00  0.00    +0.000 C 
ATOM     29  N   UNL     1      46.112   2.970   6.588  0.00  0.00    +0.000 N 
ATOM     30  O   UNL     1      46.941   4.854   7.511  0.00  0.00    +0.000 OA
ATOM     31  H   UNL     1      45.737   2.044   6.728  0.00  0.00    +0.000 HD
ATOM     32  H   UNL     1      46.760   3.100   5.822  0.00  0.00    +0.000 HD
ENDBRANCH  26  28
ENDBRANCH  19  22
ENDBRANCH  18  19
ENDBRANCH   1  18
TORSDOF 9
ENDMDL
MODEL 9
REMARK VINA RESULT:    -6.241      2.688      4.002
REMARK INTER + INTRA:         -10.442
REMARK INTER:                  -9.274
REMARK INTRA:                  -1.168
REMARK UNBOUND:                -0.917
REMARK  Name = 
REMARK  13 active torsions:
REMARK  status: ('A' for Active; 'I' for Inactive)
REMARK    1  A    between atoms: C_1  and  N_2
REMARK    2  A    between atoms: N_2  and  C_3
REMARK    3  A    between atoms: N_2  and  C_4
REMARK    4  A    between atoms: C_4  and  C_5
REMARK    5  A    between atoms: C_5  and  N_6
REMARK    6  A    between atoms: C_7  and  C_9
REMARK    7  A    between atoms: C_12  and  N_13
REMARK    8  A    between atoms: N_13  and  C_14
REMARK    9  A    between atoms: C_14  and  C_15
REMARK   10  A    between atoms: C_15  and  C_16
REMARK   11  A    between atoms: C_15  and  C_17
REMARK   12  A    between atoms: C_15  and  C_18
REMARK   13  A    between atoms: C_22  and  C_23
REMARK                            x       y       z     vdW  Elec       q    Type
REMARK                         _______ _______ _______ _____ _____    ______ ____
ROOT
ATOM      1  N   UNL     1      49.933   8.534  14.820  0.00  0.00    +0.000 N 
ATOM      2  H   UNL     1      50.268   9.386  14.384  0.00  0.00    +0.000 HD
ENDROOT
BRANCH   1   6
ATOM      3  C   UNL     1      46.745   6.981  12.740  0.00  0.00    +0.000 A 
ATOM      4  C   UNL     1      47.924   6.261  12.872  0.00  0.00    +0.000 A 
ATOM      5  N   UNL     1      49.017   6.744  13.529  0.00  0.00    +0.000 NA
ATOM      6  C   UNL     1      48.891   7.973  14.072  0.00  0.00    +0.000 A 
ATOM      7  C   UNL     1      47.672   8.660  13.969  0.00  0.00    +0.000 A 
ATOM      8  N   UNL     1      46.587   8.215  13.285  0.00  0.00    +0.000 NA
BRANCH   3  10
ATOM      9  N   UNL     1      45.569   5.025  11.897  0.00  0.00    +0.000 N 
ATOM     10  C   UNL     1      45.604   6.403  11.982  0.00  0.00    +0.000 C 
ATOM     11  O   UNL     1      44.752   7.129  11.482  0.00  0.00    +0.000 OA
ATOM     12  H   UNL     1      46.235   4.484  12.450  0.00  0.00    +0.000 HD
BRANCH   9  13
ATOM     13  C   UNL     1      44.468   4.346  11.247  0.00  0.00    +0.000 C 
BRANCH  13  14
ATOM     14  C   UNL     1      44.832   2.960  10.685  0.00  0.00    +0.000 C 
BRANCH  14  16
ATOM     15  C   UNL     1      44.636   4.042   8.509  0.00  0.00    +0.000 C 
ATOM     16  N   UNL     1      44.570   2.774   9.241  0.00  0.00    +0.000 NA
ATOM     17  C   UNL     1      45.558   1.843   8.680  0.00  0.00    +0.000 C 
ENDBRANCH  14  16
ENDBRANCH  13  14
ENDBRANCH   9  13
ENDBRANCH   3  10
ENDBRANCH   1   6
BRANCH   1  18
ATOM     18  C   UNL     1      51.021   7.622  15.201  0.00  0.00    +0.000 C 
BRANCH  18  19
ATOM     19  C   UNL     1      50.941   7.206  16.718  0.00  0.00    +0.000 C 
ATOM     20  C   UNL     1      52.355   7.423  17.318  0.00  0.00    +0.000 C 
ATOM     21  C   UNL     1      49.974   8.177  17.444  0.00  0.00    +0.000 C 
BRANCH  19  22
ATOM     22  C   UNL     1      50.533   5.740  16.982  0.00  0.00    +0.000 A 
ATOM     23  C   UNL     1      51.427   4.784  17.496  0.00  0.00    +0.000 A 
ATOM     24  C   UNL     1      51.025   3.472  17.760  0.00  0.00    +0.000 A 
ATOM     25  C   UNL     1      49.706   3.086  17.544  0.00  0.00    +0.000 A 
ATOM     26  C   UNL     1      48.784   4.015  17.059  0.00  0.00    +0.000 A 
ATOM     27  C   UNL     1      49.205   5.319  16.753  0.00  0.00    +0.000 A 
BRANCH  26  28
ATOM     28  C   UNL     1      47.371   3.582  16.900  0.00  0.00    +0.000 C 
ATOM     29  N   UNL     1      46.876   2.704  17.827  0.00  0.00    +0.000 N 
ATOM     30  O   UNL     1      46.685   3.946  15.954  0.00  0.00    +0.000 OA
ATOM     31  H   UNL     1      47.475   2.184  18.450  0.00  0.00    +0.000 HD
ATOM     32  H   UNL     1      45.967   2.311  17.619  0.00  0.00    +0.000 HD
ENDBRANCH  26  28
ENDBRANCH  19  22
ENDBRANCH  18  19
ENDBRANCH   1  18
TORSDOF 9
ENDMDL
