MODEL 1
REMARK VINA RESULT:    -7.649      0.000      0.000
REMARK INTER + INTRA:         -10.061
REMARK INTER:                  -9.661
REMARK INTRA:                  -0.399
REMARK UNBOUND:                -0.399
REMARK  Name = 
REMARK  5 active torsions:
REMARK  status: ('A' for Active; 'I' for Inactive)
REMARK    1  A    between atoms: N_1  and  C_2
REMARK    2  A    between atoms: C_2  and  C_3
REMARK    3  A    between atoms: C_3  and  C_4
REMARK    4  A    between atoms: C_8  and  C_9
REMARK    5  A    between atoms: C_9  and  N_10
REMARK                            x       y       z     vdW  Elec       q    Type
REMARK                         _______ _______ _______ _____ _____    ______ ____
ROOT
ATOM      1  C   UNL     1      45.413   4.820  12.889  0.00  0.00    +0.000 A 
ATOM      2  C   UNL     1      44.223   5.474  13.230  0.00  0.00    +0.000 A 
ATOM      3  C   UNL     1      43.033   5.156  12.577  0.00  0.00    +0.000 A 
ATOM      4  C   UNL     1      43.025   4.201  11.559  0.00  0.00    +0.000 A 
ATOM      5  C   UNL     1      44.210   3.555  11.181  0.00  0.00    +0.000 A 
ATOM      6  C   UNL     1      45.394   3.854  11.875  0.00  0.00    +0.000 A 
ENDROOT
BRANCH   1   7
ATOM      7  C   UNL     1      46.702   5.154  13.599  0.00  0.00    +0.000 C 
BRANCH   7   8
ATOM      8  C   UNL     1      46.845   4.396  14.922  0.00  0.00    +0.000 C 
BRANCH   8   9
ATOM      9  N   UNL     1      47.566   3.138  14.730  0.00  0.00    +0.000 NA
ATOM     10  H   UNL     1      47.436   2.549  15.551  0.00  0.00    +0.000 HD
ATOM     11  H   UNL     1      48.565   3.322  14.667  0.00  0.00    +0.000 HD
ENDBRANCH   8   9
ENDBRANCH   7   8
ENDBRANCH   1   7
BRANCH   5  12
ATOM     12  C   UNL     1      44.234   2.592  10.021  0.00  0.00    +0.000 C 
BRANCH  12  13
ATOM     13  N   UNL     1      45.107   3.055   8.944  0.00  0.00    +0.000 N 
ATOM     14  C   UNL     1      45.289   4.378   8.616  0.00  0.00    +0.000 A 
ATOM     15  C   UNL     1      46.271   4.450   7.653  0.00  0.00    +0.000 A 
ATOM     16  C   UNL     1      46.712   3.126   7.384  0.00  0.00    +0.000 A 
ATOM     17  C   UNL     1      47.683   2.579   6.538  0.00  0.00    +0.000 A 
ATOM     18  N   UNL     1      47.889   1.240   6.489  0.00  0.00    +0.000 NA
ATOM     19  C   UNL     1      47.133   0.443   7.270  0.00  0.00    +0.000 A 
ATOM     20  C   UNL     1      46.147   0.883   8.139  0.00  0.00    +0.000 A 
ATOM     21  C   UNL     1      45.956   2.267   8.192  0.00  0.00    +0.000 A 
ENDBRANCH  12  13
ENDBRANCH   5  12
TORSDOF 5
ENDMDL
MODEL 2
REMARK VINA RESULT:    -7.599      1.580      6.018
REMARK INTER + INTRA:          -9.997
REMARK INTER:                  -9.409
REMARK INTRA:                  -0.588
REMARK UNBOUND:                -0.399
REMARK  Name = 
REMARK  5 active torsions:
REMARK  status: ('A' for Active; 'I' for Inactive)
REMARK    1  A    between atoms: N_1  and  C_2
REMARK    2  A    between atoms: C_2  and  C_3
REMARK    3  A    between atoms: C_3  and  C_4
REMARK    4  A    between atoms: C_8  and  C_9
REMARK    5  A    between atoms: C_9  and  N_10
REMARK                            x       y       z     vdW  Elec       q    Type
REMARK                         _______ _______ _______ _____ _____    ______ ____
ROOT
ATOM      1  C   UNL     1      46.016   3.362   7.935  0.00  0.00    +0.000 A 
ATOM      2  C   UNL     1      45.685   2.022   8.163  0.00  0.00    +0.000 A 
ATOM      3  C   UNL     1      44.766   1.682   9.155  0.00  0.00    +0.000 A 
ATOM      4  C   UNL     1      44.187   2.677   9.945  0.00  0.00    +0.000 A 
ATOM      5  C   UNL     1      44.526   4.023   9.754  0.00  0.00    +0.000 A 
ATOM      6  C   UNL     1      45.421   4.355   8.725  0.00  0.00    +0.000 A 
ENDROOT
BRANCH   1   7
ATOM      7  C   UNL     1      47.004   3.736   6.858  0.00  0.00    +0.000 C 
BRANCH   7   8
ATOM      8  C   UNL     1      47.060   2.691   5.739  0.00  0.00    +0.000 C 
BRANCH   8   9
ATOM      9  N   UNL     1      48.351   2.004   5.728  0.00  0.00    +0.000 NA
ATOM     10  H   UNL     1      49.088   2.674   5.945  0.00  0.00    +0.000 HD
ATOM     11  H   UNL     1      48.548   1.659   4.791  0.00  0.00    +0.000 HD
ENDBRANCH   8   9
ENDBRANCH   7   8
ENDBRANCH   1   7
BRANCH   5  12
ATOM     12  C   UNL     1      43.982   5.097  10.661  0.00  0.00    +0.000 C 
BRANCH  12  13
ATOM     13  N   UNL     1      45.043   5.772  11.407  0.00  0.00    +0.000 N 
ATOM     14  C   UNL     1      45.304   7.119  11.324  0.00  0.00    +0.000 A 
ATOM     15  C   UNL     1      46.272   7.427  12.253  0.00  0.00    +0.000 A 
ATOM     16  C   UNL     1      46.615   6.228  12.934  0.00  0.00    +0.000 A 
ATOM     17  C   UNL     1      47.500   5.921  13.975  0.00  0.00    +0.000 A 
ATOM     18  N   UNL     1      47.621   4.651  14.433  0.00  0.00    +0.000 NA
ATOM     19  C   UNL     1      46.873   3.686  13.862  0.00  0.00    +0.000 A 
ATOM     20  C   UNL     1      45.972   3.884  12.828  0.00  0.00    +0.000 A 
ATOM     21  C   UNL     1      45.844   5.200  12.375  0.00  0.00    +0.000 A 
ENDBRANCH  12  13
ENDBRANCH   5  12
TORSDOF 5
ENDMDL
MODEL 3
REMARK VINA RESULT:    -6.600      1.842      3.527
REMARK INTER + INTRA:          -8.735
REMARK INTER:                  -8.145
REMARK INTRA:                  -0.590
REMARK UNBOUND:                -0.399
REMARK  Name = 
REMARK  5 active torsions:
REMARK  status: ('A' for Active; 'I' for Inactive)
REMARK    1  A    between atoms: N_1  and  C_2
REMARK    2  A    between atoms: C_2  and  C_3
REMARK    3  A    between atoms: C_3  and  C_4
REMARK    4  A    between atoms: C_8  and  C_9
REMARK    5  A    between atoms: C_9  and  N_10
REMARK                            x       y       z     vdW  Elec       q    Type
REMARK                         _______ _______ _______ _____ _____    ______ ____
ROOT
ATOM      1  C   UNL     1      46.994   6.580  13.371  0.00  0.00    +0.000 A 
ATOM      2  C   UNL     1      47.417   7.877  13.061  0.00  0.00    +0.000 A 
ATOM      3  C   UNL     1      46.635   8.698  12.249  0.00  0.00    +0.000 A 
ATOM      4  C   UNL     1      45.436   8.222  11.718  0.00  0.00    +0.000 A 
ATOM      5  C   UNL     1      45.007   6.916  11.991  0.00  0.00    +0.000 A 
ATOM      6  C   UNL     1      45.782   6.113  12.843  0.00  0.00    +0.000 A 
ENDROOT
BRANCH   1   7
ATOM      7  C   UNL     1      47.831   5.690  14.256  0.00  0.00    +0.000 C 
BRANCH   7   8
ATOM      8  C   UNL     1      47.002   4.577  14.904  0.00  0.00    +0.000 C 
BRANCH   8   9
ATOM      9  N   UNL     1      47.414   3.263  14.411  0.00  0.00    +0.000 NA
ATOM     10  H   UNL     1      46.787   2.554  14.789  0.00  0.00    +0.000 HD
ATOM     11  H   UNL     1      48.341   3.039  14.764  0.00  0.00    +0.000 HD
ENDBRANCH   8   9
ENDBRANCH   7   8
ENDBRANCH   1   7
BRANCH   5  12
ATOM     12  C   UNL     1      43.763   6.357  11.348  0.00  0.00    +0.000 C 
BRANCH  12  13
ATOM     13  N   UNL     1      43.863   4.915  11.126  0.00  0.00    +0.000 N 
ATOM     14  C   UNL     1      43.189   3.974  11.869  0.00  0.00    +0.000 A 
ATOM     15  C   UNL     1      43.413   2.739  11.303  0.00  0.00    +0.000 A 
ATOM     16  C   UNL     1      44.249   2.928  10.169  0.00  0.00    +0.000 A 
ATOM     17  C   UNL     1      44.784   2.068   9.203  0.00  0.00    +0.000 A 
ATOM     18  N   UNL     1      45.572   2.544   8.208  0.00  0.00    +0.000 NA
ATOM     19  C   UNL     1      45.835   3.866   8.170  0.00  0.00    +0.000 A 
ATOM     20  C   UNL     1      45.357   4.799   9.077  0.00  0.00    +0.000 A 
ATOM     21  C   UNL     1      44.532   4.298  10.088  0.00  0.00    +0.000 A 
ENDBRANCH  12  13
ENDBRANCH   5  12
TORSDOF 5
ENDMDL
MODEL 4
REMARK VINA RESULT:    -6.051      2.980      6.449
REMARK INTER + INTRA:          -8.043
REMARK INTER:                  -7.504
REMARK INTRA:                  -0.539
REMARK UNBOUND:                -0.399
REMARK  Name = 
REMARK  5 active torsions:
REMARK  status: ('A' for Active; 'I' for Inactive)
REMARK    1  A    between atoms: N_1  and  C_2
REMARK    2  A    between atoms: C_2  and  C_3
REMARK    3  A    between atoms: C_3  and  C_4
REMARK    4  A    between atoms: C_8  and  C_9
REMARK    5  A    between atoms: C_9  and  N_10
REMARK                            x       y       z     vdW  Elec       q    Type
REMARK                         _______ _______ _______ _____ _____    ______ ____
ROOT
ATOM      1  C   UNL     1      44.988   4.112   9.551  0.00  0.00    +0.000 A 
ATOM      2  C   UNL     1      44.364   2.883   9.793  0.00  0.00    +0.000 A 
ATOM      3  C   UNL     1      43.741   2.638  11.016  0.00  0.00    +0.000 A 
ATOM      4  C   UNL     1      43.758   3.609  12.019  0.00  0.00    +0.000 A 
ATOM      5  C   UNL     1      44.403   4.835  11.809  0.00  0.00    +0.000 A 
ATOM      6  C   UNL     1      44.990   5.086  10.559  0.00  0.00    +0.000 A 
ENDROOT
BRANCH   1   7
ATOM      7  C   UNL     1      45.656   4.386   8.226  0.00  0.00    +0.000 C 
BRANCH   7   8
ATOM      8  C   UNL     1      46.227   3.113   7.594  0.00  0.00    +0.000 C 
BRANCH   8   9
ATOM      9  N   UNL     1      47.489   3.389   6.908  0.00  0.00    +0.000 NA
ATOM     10  H   UNL     1      48.236   3.457   7.598  0.00  0.00    +0.000 HD
ATOM     11  H   UNL     1      47.439   4.296   6.452  0.00  0.00    +0.000 HD
ENDBRANCH   8   9
ENDBRANCH   7   8
ENDBRANCH   1   7
BRANCH   5  12
ATOM     12  C   UNL     1      44.512   5.854  12.915  0.00  0.00    +0.000 C 
BRANCH  12  13
ATOM     13  N   UNL     1      45.841   6.461  12.971  0.00  0.00    +0.000 N 
ATOM     14  C   UNL     1      46.992   5.766  13.253  0.00  0.00    +0.000 A 
ATOM     15  C   UNL     1      48.060   6.620  13.089  0.00  0.00    +0.000 A 
ATOM     16  C   UNL     1      47.547   7.883  12.688  0.00  0.00    +0.000 A 
ATOM     17  C   UNL     1      48.135   9.110  12.358  0.00  0.00    +0.000 A 
ATOM     18  N   UNL     1      47.372  10.172  12.002  0.00  0.00    +0.000 NA
ATOM     19  C   UNL     1      46.032  10.026  11.978  0.00  0.00    +0.000 A 
ATOM     20  C   UNL     1      45.353   8.858  12.289  0.00  0.00    +0.000 A 
ATOM     21  C   UNL     1      46.152   7.765  12.638  0.00  0.00    +0.000 A 
ENDBRANCH  12  13
ENDBRANCH   5  12
TORSDOF 5
ENDMDL
MODEL 5
REMARK VINA RESULT:    -5.829      3.658      5.356
REMARK INTER + INTRA:          -7.762
REMARK INTER:                  -7.133
REMARK INTRA:                  -0.629
REMARK UNBOUND:                -0.399
REMARK  Name = 
REMARK  5 active torsions:
REMARK  status: ('A' for Active; 'I' for Inactive)
REMARK    1  A    between atoms: N_1  and  C_2
REMARK    2  A    between atoms: C_2  and  C_3
REMARK    3  A    between atoms: C_3  and  C_4
REMARK    4  A    between atoms: C_8  and  C_9
REMARK    5  A    between atoms: C_9  and  N_10
REMARK                            x       y       z     vdW  Elec       q    Type
REMARK                         _______ _______ _______ _____ _____    ______ ____
ROOT
ATOM      1  C   UNL     1      47.818   4.696  16.190  0.00  0.00    +0.000 A 
ATOM      2  C   UNL     1      48.459   5.769  16.819  0.00  0.00    +0.000 A 
ATOM      3  C   UNL     1      48.754   6.930  16.105  0.00  0.00    +0.000 A 
ATOM      4  C   UNL     1      48.434   7.020  14.749  0.00  0.00    +0.000 A 
ATOM      5  C   UNL     1      47.818   5.946  14.092  0.00  0.00    +0.000 A 
ATOM      6  C   UNL     1      47.489   4.799  14.832  0.00  0.00    +0.000 A 
ENDROOT
BRANCH   1   7
ATOM      7  C   UNL     1      47.490   3.441  16.960  0.00  0.00    +0.000 C 
BRANCH   7   8
ATOM      8  C   UNL     1      48.740   2.614  17.276  0.00  0.00    +0.000 C 
BRANCH   8   9
ATOM      9  N   UNL     1      49.226   1.923  16.081  0.00  0.00    +0.000 NA
ATOM     10  H   UNL     1      48.881   2.405  15.253  0.00  0.00    +0.000 HD
ATOM     11  H   UNL     1      48.837   0.984  16.047  0.00  0.00    +0.000 HD
ENDBRANCH   8   9
ENDBRANCH   7   8
ENDBRANCH   1   7
BRANCH   5  12
ATOM     12  C   UNL     1      47.553   5.993  12.608  0.00  0.00    +0.000 C 
BRANCH  12  13
ATOM     13  N   UNL     1      46.139   6.216  12.312  0.00  0.00    +0.000 N 
ATOM     14  C   UNL     1      45.575   7.458  12.141  0.00  0.00    +0.000 A 
ATOM     15  C   UNL     1      44.267   7.285  11.748  0.00  0.00    +0.000 A 
ATOM     16  C   UNL     1      44.019   5.888  11.669  0.00  0.00    +0.000 A 
ATOM     17  C   UNL     1      42.908   5.117  11.308  0.00  0.00    +0.000 A 
ATOM     18  N   UNL     1      42.965   3.763  11.328  0.00  0.00    +0.000 NA
ATOM     19  C   UNL     1      44.115   3.171  11.708  0.00  0.00    +0.000 A 
ATOM     20  C   UNL     1      45.268   3.841  12.084  0.00  0.00    +0.000 A 
ATOM     21  C   UNL     1      45.202   5.237  12.044  0.00  0.00    +0.000 A 
ENDBRANCH  12  13
ENDBRANCH   5  12
TORSDOF 5
ENDMDL
MODEL 6
REMARK VINA RESULT:    -5.706      4.032      5.931
REMARK INTER + INTRA:          -7.606
REMARK INTER:                  -7.059
REMARK INTRA:                  -0.547
REMARK UNBOUND:                -0.399
REMARK  Name = 
REMARK  5 active torsions:
REMARK  status: ('A' for Active; 'I' for Inactive)
REMARK    1  A    between atoms: N_1  and  C_2
REMARK    2  A    between atoms: C_2  and  C_3
REMARK    3  A    between atoms: C_3  and  C_4
REMARK    4  A    between atoms: C_8  and  C_9
REMARK    5  A    between atoms: C_9  and  N_10
REMARK                            x       y       z     vdW  Elec       q    Type
REMARK                         _______ _______ _______ _____ _____    ______ ____
ROOT
ATOM      1  C   UNL     1      44.562  10.271  11.470  0.00  0.00    +0.000 A 
ATOM      2  C   UNL     1      45.680  11.106  11.577  0.00  0.00    +0.000 A 
ATOM      3  C   UNL     1      46.919  10.581  11.943  0.00  0.00    +0.000 A 
ATOM      4  C   UNL     1      47.047   9.222  12.230  0.00  0.00    +0.000 A 
ATOM      5  C   UNL     1      45.935   8.372  12.158  0.00  0.00    +0.000 A 
ATOM      6  C   UNL     1      44.702   8.905  11.748  0.00  0.00    +0.000 A 
ENDROOT
BRANCH   1   7
ATOM      7  C   UNL     1      43.221  10.832  11.066  0.00  0.00    +0.000 C 
BRANCH   7   8
ATOM      8  C   UNL     1      42.302   9.759  10.474  0.00  0.00    +0.000 C 
BRANCH   8   9
ATOM      9  N   UNL     1      41.061   9.651  11.242  0.00  0.00    +0.000 NA
ATOM     10  H   UNL     1      40.513  10.501  11.112  0.00  0.00    +0.000 HD
ATOM     11  H   UNL     1      41.276   9.601  12.235  0.00  0.00    +0.000 HD
ENDBRANCH   8   9
ENDBRANCH   7   8
ENDBRANCH   1   7
BRANCH   5  12
ATOM     12  C   UNL     1      46.038   6.922  12.557  0.00  0.00    +0.000 C 
BRANCH  12  13
ATOM     13  N   UNL     1      45.641   6.026  11.471  0.00  0.00    +0.000 N 
ATOM     14  C   UNL     1      46.115   6.119  10.185  0.00  0.00    +0.000 A 
ATOM     15  C   UNL     1      45.635   5.045   9.471  0.00  0.00    +0.000 A 
ATOM     16  C   UNL     1      44.841   4.260  10.351  0.00  0.00    +0.000 A 
ATOM     17  C   UNL     1      44.128   3.064  10.211  0.00  0.00    +0.000 A 
ATOM     18  N   UNL     1      43.442   2.536  11.254  0.00  0.00    +0.000 NA
ATOM     19  C   UNL     1      43.457   3.191  12.433  0.00  0.00    +0.000 A 
ATOM     20  C   UNL     1      44.129   4.379  12.675  0.00  0.00    +0.000 A 
ATOM     21  C   UNL     1      44.845   4.905  11.596  0.00  0.00    +0.000 A 
ENDBRANCH  12  13
ENDBRANCH   5  12
TORSDOF 5
ENDMDL
MODEL 7
REMARK VINA RESULT:    -5.705      3.018      4.536
REMARK INTER + INTRA:          -7.604
REMARK INTER:                  -7.008
REMARK INTRA:                  -0.597
REMARK UNBOUND:                -0.399
REMARK  Name = 
REMARK  5 active torsions:
REMARK  status: ('A' for Active; 'I' for Inactive)
REMARK    1  A    between atoms: N_1  and  C_2
REMARK    2  A    between atoms: C_2  and  C_3
REMARK    3  A    between atoms: C_3  and  C_4
REMARK    4  A    between atoms: C_8  and  C_9
REMARK    5  A    between atoms: C_9  and  N_10
REMARK                            x       y       z     vdW  Elec       q    Type
REMARK                         _______ _______ _______ _____ _____    ______ ____
ROOT
ATOM      1  C   UNL     1      47.860   8.054  12.253  0.00  0.00    +0.000 A 
ATOM      2  C   UNL     1      48.489   7.228  13.192  0.00  0.00    +0.000 A 
ATOM      3  C   UNL     1      47.859   6.070  13.646  0.00  0.00    +0.000 A 
ATOM      4  C   UNL     1      46.584   5.739  13.185  0.00  0.00    +0.000 A 
ATOM      5  C   UNL     1      45.923   6.566  12.267  0.00  0.00    +0.000 A 
ATOM      6  C   UNL     1      46.584   7.707  11.787  0.00  0.00    +0.000 A 
ENDROOT
BRANCH   1   7
ATOM      7  C   UNL     1      48.540   9.304  11.752  0.00  0.00    +0.000 C 
BRANCH   7   8
ATOM      8  C   UNL     1      48.807  10.306  12.879  0.00  0.00    +0.000 C 
BRANCH   8   9
ATOM      9  N   UNL     1      50.238  10.401  13.168  0.00  0.00    +0.000 NA
ATOM     10  H   UNL     1      50.439  11.321  13.558  0.00  0.00    +0.000 HD
ATOM     11  H   UNL     1      50.767  10.339  12.301  0.00  0.00    +0.000 HD
ENDBRANCH   8   9
ENDBRANCH   7   8
ENDBRANCH   1   7
BRANCH   5  12
ATOM     12  C   UNL     1      44.509   6.271  11.835  0.00  0.00    +0.000 C 
BRANCH  12  13
ATOM     13  N   UNL     1      44.336   4.871  11.449  0.00  0.00    +0.000 N 
ATOM     14  C   UNL     1      43.601   3.960  12.170  0.00  0.00    +0.000 A 
ATOM     15  C   UNL     1      43.545   2.788  11.450  0.00  0.00    +0.000 A 
ATOM     16  C   UNL     1      44.267   2.987  10.242  0.00  0.00    +0.000 A 
ATOM     17  C   UNL     1      44.534   2.184   9.127  0.00  0.00    +0.000 A 
ATOM     18  N   UNL     1      45.273   2.655   8.093  0.00  0.00    +0.000 NA
ATOM     19  C   UNL     1      45.751   3.913   8.162  0.00  0.00    +0.000 A 
ATOM     20  C   UNL     1      45.546   4.786   9.218  0.00  0.00    +0.000 A 
ATOM     21  C   UNL     1      44.768   4.295  10.271  0.00  0.00    +0.000 A 
ENDBRANCH  12  13
ENDBRANCH   5  12
TORSDOF 5
ENDMDL
MODEL 8
REMARK VINA RESULT:    -5.630      2.775      4.534
REMARK INTER + INTRA:          -7.511
REMARK INTER:                  -6.950
REMARK INTRA:                  -0.561
REMARK UNBOUND:                -0.399
REMARK  Name = 
REMARK  5 active torsions:
REMARK  status: ('A' for Active; 'I' for Inactive)
REMARK    1  A    between atoms: N_1  and  C_2
REMARK    2  A    between atoms: C_2  and  C_3
REMARK    3  A    between atoms: C_3  and  C_4
REMARK    4  A    between atoms: C_8  and  C_9
REMARK    5  A    between atoms: C_9  and  N_10
REMARK                            x       y       z     vdW  Elec       q    Type
REMARK                         _______ _______ _______ _____ _____    ______ ____
ROOT
ATOM      1  C   UNL     1      48.318   7.092  14.049  0.00  0.00    +0.000 A 
ATOM      2  C   UNL     1      49.326   7.358  13.114  0.00  0.00    +0.000 A 
ATOM      3  C   UNL     1      49.014   7.489  11.761  0.00  0.00    +0.000 A 
ATOM      4  C   UNL     1      47.698   7.331  11.326  0.00  0.00    +0.000 A 
ATOM      5  C   UNL     1      46.678   7.036  12.241  0.00  0.00    +0.000 A 
ATOM      6  C   UNL     1      46.997   6.947  13.605  0.00  0.00    +0.000 A 
ENDROOT
BRANCH   1   7
ATOM      7  C   UNL     1      48.648   6.957  15.515  0.00  0.00    +0.000 C 
BRANCH   7   8
ATOM      8  C   UNL     1      48.913   8.315  16.173  0.00  0.00    +0.000 C 
BRANCH   8   9
ATOM      9  N   UNL     1      47.764   9.206  16.016  0.00  0.00    +0.000 NA
ATOM     10  H   UNL     1      46.993   8.861  16.585  0.00  0.00    +0.000 HD
ATOM     11  H   UNL     1      47.439   9.179  15.052  0.00  0.00    +0.000 HD
ENDBRANCH   8   9
ENDBRANCH   7   8
ENDBRANCH   1   7
BRANCH   5  12
ATOM     12  C   UNL     1      45.269   6.769  11.773  0.00  0.00    +0.000 C 
BRANCH  12  13
ATOM     13  N   UNL     1      45.011   5.340  11.604  0.00  0.00    +0.000 N 
ATOM     14  C   UNL     1      44.476   4.534  12.581  0.00  0.00    +0.000 A 
ATOM     15  C   UNL     1      44.249   3.290  12.036  0.00  0.00    +0.000 A 
ATOM     16  C   UNL     1      44.654   3.334  10.674  0.00  0.00    +0.000 A 
ATOM     17  C   UNL     1      44.644   2.405   9.627  0.00  0.00    +0.000 A 
ATOM     18  N   UNL     1      45.107   2.738   8.398  0.00  0.00    +0.000 NA
ATOM     19  C   UNL     1      45.585   3.984   8.204  0.00  0.00    +0.000 A 
ATOM     20  C   UNL     1      45.641   4.975   9.172  0.00  0.00    +0.000 A 
ATOM     21  C   UNL     1      45.144   4.624  10.431  0.00  0.00    +0.000 A 
ENDBRANCH  12  13
ENDBRANCH   5  12
TORSDOF 5
ENDMDL
MODEL 9
REMARK VINA RESULT:    -5.522      2.963      6.760
REMARK INTER + INTRA:          -7.374
REMARK INTER:                  -6.751
REMARK INTRA:                  -0.623
REMARK UNBOUND:                -0.399
REMARK  Name = 
REMARK  5 active torsions:
REMARK  status: ('A' for Active; 'I' for Inactive)
REMARK    1  A    between atoms: N_1  and  C_2
REMARK    2  A    between atoms: C_2  and  C_3
REMARK    3  A    between atoms: C_3  and  C_4
REMARK    4  A    between atoms: C_8  and  C_9
REMARK    5  A    between atoms: C_9  and  N_10
REMARK                            x       y       z     vdW  Elec       q    Type
REMARK                         _______ _______ _______ _____ _____    ______ ____
ROOT
ATOM      1  C   UNL     1      45.055   4.411  10.255  0.00  0.00    +0.000 A 
ATOM      2  C   UNL     1      45.111   3.263  11.052  0.00  0.00    +0.000 A 
ATOM      3  C   UNL     1      45.415   3.362  12.409  0.00  0.00    +0.000 A 
ATOM      4  C   UNL     1      45.691   4.607  12.977  0.00  0.00    +0.000 A 
ATOM      5  C   UNL     1      45.668   5.767  12.192  0.00  0.00    +0.000 A 
ATOM      6  C   UNL     1      45.321   5.659  10.836  0.00  0.00    +0.000 A 
ENDROOT
BRANCH   1   7
ATOM      7  C   UNL     1      44.718   4.311   8.787  0.00  0.00    +0.000 C 
BRANCH   7   8
ATOM      8  C   UNL     1      45.766   3.509   8.009  0.00  0.00    +0.000 C 
BRANCH   8   9
ATOM      9  N   UNL     1      46.721   4.398   7.348  0.00  0.00    +0.000 NA
ATOM     10  H   UNL     1      47.592   4.404   7.876  0.00  0.00    +0.000 HD
ATOM     11  H   UNL     1      46.370   5.353   7.367  0.00  0.00    +0.000 HD
ENDBRANCH   8   9
ENDBRANCH   7   8
ENDBRANCH   1   7
BRANCH   5  12
ATOM     12  C   UNL     1      46.056   7.104  12.770  0.00  0.00    +0.000 C 
BRANCH  12  13
ATOM     13  N   UNL     1      47.499   7.329  12.708  0.00  0.00    +0.000 N 
ATOM     14  C   UNL     1      48.151   7.840  11.610  0.00  0.00    +0.000 A 
ATOM     15  C   UNL     1      49.471   8.039  11.949  0.00  0.00    +0.000 A 
ATOM     16  C   UNL     1      49.635   7.642  13.304  0.00  0.00    +0.000 A 
ATOM     17  C   UNL     1      50.719   7.635  14.189  0.00  0.00    +0.000 A 
ATOM     18  N   UNL     1      50.575   7.185  15.460  0.00  0.00    +0.000 NA
ATOM     19  C   UNL     1      49.366   6.738  15.854  0.00  0.00    +0.000 A 
ATOM     20  C   UNL     1      48.232   6.702  15.056  0.00  0.00    +0.000 A 
ATOM     21  C   UNL     1      48.389   7.184  13.753  0.00  0.00    +0.000 A 
ENDBRANCH  12  13
ENDBRANCH   5  12
TORSDOF 5
ENDMDL
