MODEL 1
REMARK VINA RESULT:    -8.048      0.000      0.000
REMARK INTER + INTRA:         -12.710
REMARK INTER:                 -11.811
REMARK INTRA:                  -0.898
REMARK UNBOUND:                -0.898
REMARK  Name = 
REMARK  9 active torsions:
REMARK  status: ('A' for Active; 'I' for Inactive)
REMARK    1  A    between atoms: C_1  and  C_2
REMARK    2  A    between atoms: C_2  and  N_3
REMARK    3  A    between atoms: C_2  and  C_20
REMARK    4  A    between atoms: N_3  and  C_4
REMARK    5  A    between atoms: C_4  and  C_5
REMARK    6  A    between atoms: C_8  and  C_9
REMARK    7  A    between atoms: C_9  and  N_10
REMARK    8  A    between atoms: N_10  and  C_11
REMARK    9  A    between atoms: C_11  and  C_12
REMARK                            x       y       z     vdW  Elec       q    Type
REMARK                         _______ _______ _______ _____ _____    ______ ____
ROOT
ATOM      1  C   UNL     1      45.386   7.081  12.933  0.00  0.00    +0.000 C 
ENDROOT
BRANCH   1   2
ATOM      2  C   UNL     1      44.902   7.235  11.477  0.00  0.00    +0.000 C 
ATOM      3  C   UNL     1      45.697   6.359  10.491  0.00  0.00    +0.000 C 
ATOM      4  C   UNL     1      45.483   4.864  10.732  0.00  0.00    +0.000 C 
ATOM      5  C   UNL     1      43.990   4.486  10.707  0.00  0.00    +0.000 C 
ATOM      6  C   UNL     1      43.144   5.399  11.614  0.00  0.00    +0.000 C 
ATOM      7  C   UNL     1      43.413   6.883  11.373  0.00  0.00    +0.000 C 
BRANCH   5   8
ATOM      8  C   UNL     1      43.806   3.001  11.087  0.00  0.00    +0.000 C 
BRANCH   8   9
ATOM      9  N   UNL     1      44.350   2.148  10.031  0.00  0.00    +0.000 NA
ATOM     10  H   UNL     1      43.749   1.337   9.894  0.00  0.00    +0.000 HD
BRANCH   9  11
ATOM     11  C   UNL     1      44.506   2.857   8.768  0.00  0.00    +0.000 C 
BRANCH  11  12
ATOM     12  C   UNL     1      45.746   2.388   8.045  0.00  0.00    +0.000 A 
ATOM     13  C   UNL     1      46.539   3.277   7.316  0.00  0.00    +0.000 A 
ATOM     14  C   UNL     1      47.684   2.795   6.698  0.00  0.00    +0.000 A 
ATOM     15  N   UNL     1      48.084   1.507   6.749  0.00  0.00    +0.000 NA
ATOM     16  C   UNL     1      47.299   0.660   7.449  0.00  0.00    +0.000 A 
ATOM     17  C   UNL     1      46.140   1.046   8.104  0.00  0.00    +0.000 A 
ENDBRANCH  11  12
ENDBRANCH   9  11
ENDBRANCH   8   9
ENDBRANCH   5   8
ENDBRANCH   1   2
BRANCH   1  18
ATOM     18  N   UNL     1      46.691   7.705  13.110  0.00  0.00    +0.000 NA
ATOM     19  H   UNL     1      46.705   8.200  14.002  0.00  0.00    +0.000 HD
BRANCH  18  21
ATOM     20  C   UNL     1      48.957   7.210  12.179  0.00  0.00    +0.000 C 
ATOM     21  C   UNL     1      47.807   6.751  13.083  0.00  0.00    +0.000 C 
BRANCH  21  22
ATOM     22  C   UNL     1      48.274   6.576  14.520  0.00  0.00    +0.000 A 
ATOM     23  C   UNL     1      49.112   7.448  15.201  0.00  0.00    +0.000 A 
ATOM     24  S   UNL     1      49.390   6.994  16.824  0.00  0.00    +0.000 S 
ATOM     25  C   UNL     1      48.412   5.610  16.666  0.00  0.00    +0.000 A 
ATOM     26  N   UNL     1      48.193   4.775  17.717  0.00  0.00    +0.000 NA
ATOM     27  C   UNL     1      47.418   3.776  17.446  0.00  0.00    +0.000 A 
ATOM     28  N   UNL     1      46.856   3.528  16.220  0.00  0.00    +0.000 N 
ATOM     29  C   UNL     1      47.077   4.322  15.114  0.00  0.00    +0.000 A 
ATOM     30  O   UNL     1      46.613   4.040  14.019  0.00  0.00    +0.000 OA
ATOM     31  C   UNL     1      47.903   5.484  15.385  0.00  0.00    +0.000 A 
ATOM     32  H   UNL     1      46.280   2.713  16.071  0.00  0.00    +0.000 HD
ENDBRANCH  21  22
ENDBRANCH  18  21
ENDBRANCH   1  18
TORSDOF 8
ENDMDL
MODEL 2
REMARK VINA RESULT:    -7.827      2.189      3.444
REMARK INTER + INTRA:         -12.386
REMARK INTER:                 -11.562
REMARK INTRA:                  -0.824
REMARK UNBOUND:                -0.898
REMARK  Name = 
REMARK  9 active torsions:
REMARK  status: ('A' for Active; 'I' for Inactive)
REMARK    1  A    between atoms: C_1  and  C_2
REMARK    2  A    between atoms: C_2  and  N_3
REMARK    3  A    between atoms: C_2  and  C_20
REMARK    4  A    between atoms: N_3  and  C_4
REMARK    5  A    between atoms: C_4  and  C_5
REMARK    6  A    between atoms: C_8  and  C_9
REMARK    7  A    between atoms: C_9  and  N_10
REMARK    8  A    between atoms: N_10  and  C_11
REMARK    9  A    between atoms: C_11  and  C_12
REMARK                            x       y       z     vdW  Elec       q    Type
REMARK                         _______ _______ _______ _____ _____    ______ ____
ROOT
ATOM      1  C   UNL     1      47.082   3.599  13.976  0.00  0.00    +0.000 C 
ENDROOT
BRANCH   1   2
ATOM      2  C   UNL     1      46.360   4.946  14.182  0.00  0.00    +0.000 C 
ATOM      3  C   UNL     1      47.058   6.110  13.453  0.00  0.00    +0.000 C 
ATOM      4  C   UNL     1      47.009   5.962  11.932  0.00  0.00    +0.000 C 
ATOM      5  C   UNL     1      45.569   5.791  11.416  0.00  0.00    +0.000 C 
ATOM      6  C   UNL     1      44.806   4.692  12.182  0.00  0.00    +0.000 C 
ATOM      7  C   UNL     1      44.909   4.849  13.698  0.00  0.00    +0.000 C 
BRANCH   5   8
ATOM      8  C   UNL     1      45.572   5.510   9.899  0.00  0.00    +0.000 C 
BRANCH   8   9
ATOM      9  N   UNL     1      44.899   4.240   9.628  0.00  0.00    +0.000 NA
ATOM     10  H   UNL     1      43.969   4.243  10.045  0.00  0.00    +0.000 HD
BRANCH   9  11
ATOM     11  C   UNL     1      44.793   3.959   8.202  0.00  0.00    +0.000 C 
BRANCH  11  12
ATOM     12  C   UNL     1      45.886   3.013   7.765  0.00  0.00    +0.000 A 
ATOM     13  C   UNL     1      45.898   1.680   8.180  0.00  0.00    +0.000 A 
ATOM     14  C   UNL     1      46.910   0.849   7.721  0.00  0.00    +0.000 A 
ATOM     15  N   UNL     1      47.900   1.250   6.896  0.00  0.00    +0.000 NA
ATOM     16  C   UNL     1      47.879   2.545   6.515  0.00  0.00    +0.000 A 
ATOM     17  C   UNL     1      46.909   3.451   6.916  0.00  0.00    +0.000 A 
ENDBRANCH  11  12
ENDBRANCH   9  11
ENDBRANCH   8   9
ENDBRANCH   5   8
ENDBRANCH   1   2
BRANCH   1  18
ATOM     18  N   UNL     1      47.947   3.300  15.109  0.00  0.00    +0.000 NA
ATOM     19  H   UNL     1      48.896   3.606  14.892  0.00  0.00    +0.000 HD
BRANCH  18  21
ATOM     20  C   UNL     1      46.903   2.951  17.353  0.00  0.00    +0.000 C 
ATOM     21  C   UNL     1      47.521   3.942  16.360  0.00  0.00    +0.000 C 
BRANCH  21  22
ATOM     22  C   UNL     1      48.748   4.619  16.951  0.00  0.00    +0.000 A 
ATOM     23  C   UNL     1      48.856   5.973  17.235  0.00  0.00    +0.000 A 
ATOM     24  S   UNL     1      50.345   6.399  17.953  0.00  0.00    +0.000 S 
ATOM     25  C   UNL     1      50.901   4.791  17.895  0.00  0.00    +0.000 A 
ATOM     26  N   UNL     1      52.120   4.446  18.389  0.00  0.00    +0.000 NA
ATOM     27  C   UNL     1      52.395   3.187  18.285  0.00  0.00    +0.000 A 
ATOM     28  N   UNL     1      51.571   2.246  17.721  0.00  0.00    +0.000 N 
ATOM     29  C   UNL     1      50.343   2.552  17.173  0.00  0.00    +0.000 A 
ATOM     30  O   UNL     1      49.658   1.703  16.620  0.00  0.00    +0.000 OA
ATOM     31  C   UNL     1      49.972   3.948  17.311  0.00  0.00    +0.000 A 
ATOM     32  H   UNL     1      51.860   1.283  17.649  0.00  0.00    +0.000 HD
ENDBRANCH  21  22
ENDBRANCH  18  21
ENDBRANCH   1  18
TORSDOF 8
ENDMDL
MODEL 3
REMARK VINA RESULT:    -7.771      1.887      2.726
REMARK INTER + INTRA:         -12.303
REMARK INTER:                 -11.138
REMARK INTRA:                  -1.165
REMARK UNBOUND:                -0.898
REMARK  Name = 
REMARK  9 active torsions:
REMARK  status: ('A' for Active; 'I' for Inactive)
REMARK    1  A    between atoms: C_1  and  C_2
REMARK    2  A    between atoms: C_2  and  N_3
REMARK    3  A    between atoms: C_2  and  C_20
REMARK    4  A    between atoms: N_3  and  C_4
REMARK    5  A    between atoms: C_4  and  C_5
REMARK    6  A    between atoms: C_8  and  C_9
REMARK    7  A    between atoms: C_9  and  N_10
REMARK    8  A    between atoms: N_10  and  C_11
REMARK    9  A    between atoms: C_11  and  C_12
REMARK                            x       y       z     vdW  Elec       q    Type
REMARK                         _______ _______ _______ _____ _____    ______ ____
ROOT
ATOM      1  C   UNL     1      46.897   6.257  11.916  0.00  0.00    +0.000 C 
ENDROOT
BRANCH   1   2
ATOM      2  C   UNL     1      45.948   6.052  13.114  0.00  0.00    +0.000 C 
ATOM      3  C   UNL     1      44.478   6.353  12.766  0.00  0.00    +0.000 C 
ATOM      4  C   UNL     1      43.905   5.369  11.745  0.00  0.00    +0.000 C 
ATOM      5  C   UNL     1      44.061   3.908  12.203  0.00  0.00    +0.000 C 
ATOM      6  C   UNL     1      45.503   3.590  12.646  0.00  0.00    +0.000 C 
ATOM      7  C   UNL     1      46.056   4.614  13.635  0.00  0.00    +0.000 C 
BRANCH   5   8
ATOM      8  C   UNL     1      43.596   2.944  11.092  0.00  0.00    +0.000 C 
BRANCH   8   9
ATOM      9  N   UNL     1      44.746   2.506  10.302  0.00  0.00    +0.000 NA
ATOM     10  H   UNL     1      44.742   1.491  10.215  0.00  0.00    +0.000 HD
BRANCH   9  11
ATOM     11  C   UNL     1      44.773   3.109   8.976  0.00  0.00    +0.000 C 
BRANCH  11  12
ATOM     12  C   UNL     1      45.868   2.496   8.136  0.00  0.00    +0.000 A 
ATOM     13  C   UNL     1      46.119   1.122   8.164  0.00  0.00    +0.000 A 
ATOM     14  C   UNL     1      47.117   0.611   7.348  0.00  0.00    +0.000 A 
ATOM     15  N   UNL     1      47.877   1.362   6.523  0.00  0.00    +0.000 NA
ATOM     16  C   UNL     1      47.628   2.689   6.519  0.00  0.00    +0.000 A 
ATOM     17  C   UNL     1      46.650   3.294   7.294  0.00  0.00    +0.000 A 
ENDBRANCH  11  12
ENDBRANCH   9  11
ENDBRANCH   8   9
ENDBRANCH   5   8
ENDBRANCH   1   2
BRANCH   1  18
ATOM     18  N   UNL     1      47.531   7.568  11.982  0.00  0.00    +0.000 NA
ATOM     19  H   UNL     1      46.975   8.177  12.582  0.00  0.00    +0.000 HD
BRANCH  18  21
ATOM     20  C   UNL     1      49.953   7.806  11.410  0.00  0.00    +0.000 C 
ATOM     21  C   UNL     1      48.907   7.530  12.496  0.00  0.00    +0.000 C 
BRANCH  21  22
ATOM     22  C   UNL     1      48.990   8.558  13.614  0.00  0.00    +0.000 A 
ATOM     23  C   UNL     1      49.162   9.923  13.434  0.00  0.00    +0.000 A 
ATOM     24  S   UNL     1      49.148  10.807  14.895  0.00  0.00    +0.000 S 
ATOM     25  C   UNL     1      48.926   9.394  15.817  0.00  0.00    +0.000 A 
ATOM     26  N   UNL     1      48.798   9.445  17.171  0.00  0.00    +0.000 NA
ATOM     27  C   UNL     1      48.621   8.292  17.728  0.00  0.00    +0.000 A 
ATOM     28  N   UNL     1      48.575   7.094  17.061  0.00  0.00    +0.000 N 
ATOM     29  C   UNL     1      48.737   6.986  15.695  0.00  0.00    +0.000 A 
ATOM     30  O   UNL     1      48.755   5.899  15.136  0.00  0.00    +0.000 OA
ATOM     31  C   UNL     1      48.890   8.262  15.021  0.00  0.00    +0.000 A 
ATOM     32  H   UNL     1      48.461   6.227  17.562  0.00  0.00    +0.000 HD
ENDBRANCH  21  22
ENDBRANCH  18  21
ENDBRANCH   1  18
TORSDOF 8
ENDMDL
MODEL 4
REMARK VINA RESULT:    -7.629      1.761      2.363
REMARK INTER + INTRA:         -12.095
REMARK INTER:                 -10.709
REMARK INTRA:                  -1.387
REMARK UNBOUND:                -0.898
REMARK  Name = 
REMARK  9 active torsions:
REMARK  status: ('A' for Active; 'I' for Inactive)
REMARK    1  A    between atoms: C_1  and  C_2
REMARK    2  A    between atoms: C_2  and  N_3
REMARK    3  A    between atoms: C_2  and  C_20
REMARK    4  A    between atoms: N_3  and  C_4
REMARK    5  A    between atoms: C_4  and  C_5
REMARK    6  A    between atoms: C_8  and  C_9
REMARK    7  A    between atoms: C_9  and  N_10
REMARK    8  A    between atoms: N_10  and  C_11
REMARK    9  A    between atoms: C_11  and  C_12
REMARK                            x       y       z     vdW  Elec       q    Type
REMARK                         _______ _______ _______ _____ _____    ______ ____
ROOT
ATOM      1  C   UNL     1      46.132   8.078  13.250  0.00  0.00    +0.000 C 
ENDROOT
BRANCH   1   2
ATOM      2  C   UNL     1      46.846   6.726  13.045  0.00  0.00    +0.000 C 
ATOM      3  C   UNL     1      46.039   5.538  13.598  0.00  0.00    +0.000 C 
ATOM      4  C   UNL     1      44.730   5.314  12.839  0.00  0.00    +0.000 C 
ATOM      5  C   UNL     1      44.964   5.149  11.326  0.00  0.00    +0.000 C 
ATOM      6  C   UNL     1      45.845   6.274  10.749  0.00  0.00    +0.000 C 
ATOM      7  C   UNL     1      47.123   6.495  11.555  0.00  0.00    +0.000 C 
BRANCH   5   8
ATOM      8  C   UNL     1      43.615   5.062  10.581  0.00  0.00    +0.000 C 
BRANCH   8   9
ATOM      9  N   UNL     1      43.792   4.346   9.318  0.00  0.00    +0.000 NA
ATOM     10  H   UNL     1      44.404   4.876   8.700  0.00  0.00    +0.000 HD
BRANCH   9  11
ATOM     11  C   UNL     1      44.334   3.007   9.509  0.00  0.00    +0.000 C 
BRANCH  11  12
ATOM     12  C   UNL     1      45.443   2.737   8.520  0.00  0.00    +0.000 A 
ATOM     13  C   UNL     1      45.995   3.766   7.753  0.00  0.00    +0.000 A 
ATOM     14  C   UNL     1      47.033   3.464   6.883  0.00  0.00    +0.000 A 
ATOM     15  N   UNL     1      47.547   2.227   6.721  0.00  0.00    +0.000 NA
ATOM     16  C   UNL     1      46.993   1.243   7.462  0.00  0.00    +0.000 A 
ATOM     17  C   UNL     1      45.957   1.445   8.362  0.00  0.00    +0.000 A 
ENDBRANCH  11  12
ENDBRANCH   9  11
ENDBRANCH   8   9
ENDBRANCH   5   8
ENDBRANCH   1   2
BRANCH   1  18
ATOM     18  N   UNL     1      46.840   8.890  14.232  0.00  0.00    +0.000 NA
ATOM     19  H   UNL     1      46.298   8.914  15.096  0.00  0.00    +0.000 HD
BRANCH  18  21
ATOM     20  C   UNL     1      49.282   9.154  13.767  0.00  0.00    +0.000 C 
ATOM     21  C   UNL     1      48.190   8.399  14.536  0.00  0.00    +0.000 C 
BRANCH  21  22
ATOM     22  C   UNL     1      48.383   8.536  16.039  0.00  0.00    +0.000 A 
ATOM     23  C   UNL     1      48.296   9.722  16.752  0.00  0.00    +0.000 A 
ATOM     24  S   UNL     1      48.500   9.519  18.435  0.00  0.00    +0.000 S 
ATOM     25  C   UNL     1      48.726   7.840  18.265  0.00  0.00    +0.000 A 
ATOM     26  N   UNL     1      48.923   7.039  19.347  0.00  0.00    +0.000 NA
ATOM     27  C   UNL     1      49.064   5.787  19.058  0.00  0.00    +0.000 A 
ATOM     28  N   UNL     1      49.042   5.265  17.790  0.00  0.00    +0.000 N 
ATOM     29  C   UNL     1      48.884   6.039  16.659  0.00  0.00    +0.000 A 
ATOM     30  O   UNL     1      48.932   5.553  15.537  0.00  0.00    +0.000 OA
ATOM     31  C   UNL     1      48.672   7.447  16.939  0.00  0.00    +0.000 A 
ATOM     32  H   UNL     1      49.186   4.279  17.634  0.00  0.00    +0.000 HD
ENDBRANCH  21  22
ENDBRANCH  18  21
ENDBRANCH   1  18
TORSDOF 8
ENDMDL
MODEL 5
REMARK VINA RESULT:    -7.456      1.500      2.405
REMARK INTER + INTRA:         -11.842
REMARK INTER:                 -10.468
REMARK INTRA:                  -1.374
REMARK UNBOUND:                -0.898
REMARK  Name = 
REMARK  9 active torsions:
REMARK  status: ('A' for Active; 'I' for Inactive)
REMARK    1  A    between atoms: C_1  and  C_2
REMARK    2  A    between atoms: C_2  and  N_3
REMARK    3  A    between atoms: C_2  and  C_20
REMARK    4  A    between atoms: N_3  and  C_4
REMARK    5  A    between atoms: C_4  and  C_5
REMARK    6  A    between atoms: C_8  and  C_9
REMARK    7  A    between atoms: C_9  and  N_10
REMARK    8  A    between atoms: N_10  and  C_11
REMARK    9  A    between atoms: C_11  and  C_12
REMARK                            x       y       z     vdW  Elec       q    Type
REMARK                         _______ _______ _______ _____ _____    ______ ____
ROOT
ATOM      1  C   UNL     1      47.107   8.217  13.988  0.00  0.00    +0.000 C 
ENDROOT
BRANCH   1   2
ATOM      2  C   UNL     1      47.341   8.374  12.471  0.00  0.00    +0.000 C 
ATOM      3  C   UNL     1      47.451   7.021  11.744  0.00  0.00    +0.000 C 
ATOM      4  C   UNL     1      46.142   6.230  11.776  0.00  0.00    +0.000 C 
ATOM      5  C   UNL     1      44.963   7.047  11.217  0.00  0.00    +0.000 C 
ATOM      6  C   UNL     1      44.871   8.446  11.857  0.00  0.00    +0.000 C 
ATOM      7  C   UNL     1      46.205   9.190  11.843  0.00  0.00    +0.000 C 
BRANCH   5   8
ATOM      8  C   UNL     1      43.641   6.270  11.390  0.00  0.00    +0.000 C 
BRANCH   8   9
ATOM      9  N   UNL     1      43.408   5.422  10.222  0.00  0.00    +0.000 NA
ATOM     10  H   UNL     1      43.964   5.753   9.435  0.00  0.00    +0.000 HD
BRANCH   9  11
ATOM     11  C   UNL     1      43.716   4.021  10.480  0.00  0.00    +0.000 C 
BRANCH  11  12
ATOM     12  C   UNL     1      44.704   3.499   9.465  0.00  0.00    +0.000 A 
ATOM     13  C   UNL     1      44.965   2.132   9.346  0.00  0.00    +0.000 A 
ATOM     14  C   UNL     1      45.859   1.707   8.374  0.00  0.00    +0.000 A 
ATOM     15  N   UNL     1      46.508   2.536   7.530  0.00  0.00    +0.000 NA
ATOM     16  C   UNL     1      46.252   3.855   7.668  0.00  0.00    +0.000 A 
ATOM     17  C   UNL     1      45.372   4.377   8.604  0.00  0.00    +0.000 A 
ENDBRANCH  11  12
ENDBRANCH   9  11
ENDBRANCH   8   9
ENDBRANCH   5   8
ENDBRANCH   1   2
BRANCH   1  18
ATOM     18  N   UNL     1      48.334   8.487  14.727  0.00  0.00    +0.000 NA
ATOM     19  H   UNL     1      48.096   8.712  15.694  0.00  0.00    +0.000 HD
BRANCH  18  21
ATOM     20  C   UNL     1      50.712   7.799  14.379  0.00  0.00    +0.000 C 
ATOM     21  C   UNL     1      49.282   7.365  14.724  0.00  0.00    +0.000 C 
BRANCH  21  22
ATOM     22  C   UNL     1      49.218   6.729  16.104  0.00  0.00    +0.000 A 
ATOM     23  C   UNL     1      49.829   7.229  17.245  0.00  0.00    +0.000 A 
ATOM     24  S   UNL     1      49.507   6.308  18.647  0.00  0.00    +0.000 S 
ATOM     25  C   UNL     1      48.553   5.202  17.772  0.00  0.00    +0.000 A 
ATOM     26  N   UNL     1      47.935   4.158  18.389  0.00  0.00    +0.000 NA
ATOM     27  C   UNL     1      47.237   3.415  17.596  0.00  0.00    +0.000 A 
ATOM     28  N   UNL     1      47.111   3.608  16.244  0.00  0.00    +0.000 N 
ATOM     29  C   UNL     1      47.747   4.628  15.566  0.00  0.00    +0.000 A 
ATOM     30  O   UNL     1      47.667   4.738  14.350  0.00  0.00    +0.000 OA
ATOM     31  C   UNL     1      48.505   5.518  16.426  0.00  0.00    +0.000 A 
ATOM     32  H   UNL     1      46.569   2.973  15.678  0.00  0.00    +0.000 HD
ENDBRANCH  21  22
ENDBRANCH  18  21
ENDBRANCH   1  18
TORSDOF 8
ENDMDL
MODEL 6
REMARK VINA RESULT:    -7.366      2.554      4.379
REMARK INTER + INTRA:         -11.710
REMARK INTER:                 -10.475
REMARK INTRA:                  -1.235
REMARK UNBOUND:                -0.898
REMARK  Name = 
REMARK  9 active torsions:
REMARK  status: ('A' for Active; 'I' for Inactive)
REMARK    1  A    between atoms: C_1  and  C_2
REMARK    2  A    between atoms: C_2  and  N_3
REMARK    3  A    between atoms: C_2  and  C_20
REMARK    4  A    between atoms: N_3  and  C_4
REMARK    5  A    between atoms: C_4  and  C_5
REMARK    6  A    between atoms: C_8  and  C_9
REMARK    7  A    between atoms: C_9  and  N_10
REMARK    8  A    between atoms: N_10  and  C_11
REMARK    9  A    between atoms: C_11  and  C_12
REMARK                            x       y       z     vdW  Elec       q    Type
REMARK                         _______ _______ _______ _____ _____    ______ ____
ROOT
ATOM      1  C   UNL     1      47.312   6.054  12.446  0.00  0.00    +0.000 C 
ENDROOT
BRANCH   1   2
ATOM      2  C   UNL     1      46.250   5.666  13.496  0.00  0.00    +0.000 C 
ATOM      3  C   UNL     1      44.865   6.264  13.187  0.00  0.00    +0.000 C 
ATOM      4  C   UNL     1      44.254   5.697  11.904  0.00  0.00    +0.000 C 
ATOM      5  C   UNL     1      44.183   4.160  11.933  0.00  0.00    +0.000 C 
ATOM      6  C   UNL     1      45.530   3.523  12.326  0.00  0.00    +0.000 C 
ATOM      7  C   UNL     1      46.129   4.141  13.588  0.00  0.00    +0.000 C 
BRANCH   5   8
ATOM      8  C   UNL     1      43.689   3.620  10.573  0.00  0.00    +0.000 C 
BRANCH   8   9
ATOM      9  N   UNL     1      44.811   3.049   9.830  0.00  0.00    +0.000 NA
ATOM     10  H   UNL     1      44.704   2.038   9.759  0.00  0.00    +0.000 HD
BRANCH   9  11
ATOM     11  C   UNL     1      44.942   3.619   8.495  0.00  0.00    +0.000 C 
BRANCH  11  12
ATOM     12  C   UNL     1      45.959   2.850   7.687  0.00  0.00    +0.000 A 
ATOM     13  C   UNL     1      46.533   3.397   6.537  0.00  0.00    +0.000 A 
ATOM     14  C   UNL     1      47.484   2.656   5.851  0.00  0.00    +0.000 A 
ATOM     15  N   UNL     1      47.893   1.424   6.221  0.00  0.00    +0.000 NA
ATOM     16  C   UNL     1      47.319   0.907   7.328  0.00  0.00    +0.000 A 
ATOM     17  C   UNL     1      46.363   1.570   8.083  0.00  0.00    +0.000 A 
ENDBRANCH  11  12
ENDBRANCH   9  11
ENDBRANCH   8   9
ENDBRANCH   5   8
ENDBRANCH   1   2
BRANCH   1  18
ATOM     18  N   UNL     1      48.633   6.131  13.057  0.00  0.00    +0.000 NA
ATOM     19  H   UNL     1      49.342   6.056  12.326  0.00  0.00    +0.000 HD
BRANCH  18  21
ATOM     20  C   UNL     1      49.812   7.180  14.996  0.00  0.00    +0.000 C 
ATOM     21  C   UNL     1      48.862   7.372  13.807  0.00  0.00    +0.000 C 
BRANCH  21  22
ATOM     22  C   UNL     1      49.415   8.390  12.822  0.00  0.00    +0.000 A 
ATOM     23  C   UNL     1      50.721   8.425  12.356  0.00  0.00    +0.000 A 
ATOM     24  S   UNL     1      50.999   9.658  11.206  0.00  0.00    +0.000 S 
ATOM     25  C   UNL     1      49.386  10.195  11.305  0.00  0.00    +0.000 A 
ATOM     26  N   UNL     1      48.936  11.225  10.539  0.00  0.00    +0.000 NA
ATOM     27  C   UNL     1      47.687  11.507  10.716  0.00  0.00    +0.000 A 
ATOM     28  N   UNL     1      46.853  10.867  11.596  0.00  0.00    +0.000 N 
ATOM     29  C   UNL     1      47.270   9.843  12.422  0.00  0.00    +0.000 A 
ATOM     30  O   UNL     1      46.520   9.334  13.242  0.00  0.00    +0.000 OA
ATOM     31  C   UNL     1      48.656   9.460  12.222  0.00  0.00    +0.000 A 
ATOM     32  H   UNL     1      45.893  11.156  11.703  0.00  0.00    +0.000 HD
ENDBRANCH  21  22
ENDBRANCH  18  21
ENDBRANCH   1  18
TORSDOF 8
ENDMDL
MODEL 7
REMARK VINA RESULT:    -7.184      2.480      3.517
REMARK INTER + INTRA:         -11.442
REMARK INTER:                 -10.408
REMARK INTRA:                  -1.033
REMARK UNBOUND:                -0.898
REMARK  Name = 
REMARK  9 active torsions:
REMARK  status: ('A' for Active; 'I' for Inactive)
REMARK    1  A    between atoms: C_1  and  C_2
REMARK    2  A    between atoms: C_2  and  N_3
REMARK    3  A    between atoms: C_2  and  C_20
REMARK    4  A    between atoms: N_3  and  C_4
REMARK    5  A    between atoms: C_4  and  C_5
REMARK    6  A    between atoms: C_8  and  C_9
REMARK    7  A    between atoms: C_9  and  N_10
REMARK    8  A    between atoms: N_10  and  C_11
REMARK    9  A    between atoms: C_11  and  C_12
REMARK                            x       y       z     vdW  Elec       q    Type
REMARK                         _______ _______ _______ _____ _____    ______ ____
ROOT
ATOM      1  C   UNL     1      46.235   6.675  11.660  0.00  0.00    +0.000 C 
ENDROOT
BRANCH   1   2
ATOM      2  C   UNL     1      45.477   6.311  12.952  0.00  0.00    +0.000 C 
ATOM      3  C   UNL     1      43.949   6.311  12.765  0.00  0.00    +0.000 C 
ATOM      4  C   UNL     1      43.475   5.215  11.809  0.00  0.00    +0.000 C 
ATOM      5  C   UNL     1      43.964   3.822  12.245  0.00  0.00    +0.000 C 
ATOM      6  C   UNL     1      45.479   3.800  12.530  0.00  0.00    +0.000 C 
ATOM      7  C   UNL     1      45.920   4.932  13.455  0.00  0.00    +0.000 C 
BRANCH   5   8
ATOM      8  C   UNL     1      43.583   2.764  11.187  0.00  0.00    +0.000 C 
BRANCH   8   9
ATOM      9  N   UNL     1      44.753   2.427  10.379  0.00  0.00    +0.000 NA
ATOM     10  H   UNL     1      44.940   1.427  10.436  0.00  0.00    +0.000 HD
BRANCH   9  11
ATOM     11  C   UNL     1      44.597   2.815   8.983  0.00  0.00    +0.000 C 
BRANCH  11  12
ATOM     12  C   UNL     1      45.792   2.376   8.172  0.00  0.00    +0.000 A 
ATOM     13  C   UNL     1      46.175   1.033   8.116  0.00  0.00    +0.000 A 
ATOM     14  C   UNL     1      47.263   0.684   7.330  0.00  0.00    +0.000 A 
ATOM     15  N   UNL     1      47.991   1.566   6.612  0.00  0.00    +0.000 NA
ATOM     16  C   UNL     1      47.613   2.860   6.688  0.00  0.00    +0.000 A 
ATOM     17  C   UNL     1      46.538   3.307   7.442  0.00  0.00    +0.000 A 
ENDBRANCH  11  12
ENDBRANCH   9  11
ENDBRANCH   8   9
ENDBRANCH   5   8
ENDBRANCH   1   2
BRANCH   1  18
ATOM     18  N   UNL     1      47.675   6.612  11.873  0.00  0.00    +0.000 NA
ATOM     19  H   UNL     1      48.117   6.211  11.045  0.00  0.00    +0.000 HD
BRANCH  18  21
ATOM     20  C   UNL     1      47.259   9.056  12.194  0.00  0.00    +0.000 C 
ATOM     21  C   UNL     1      48.287   7.919  12.146  0.00  0.00    +0.000 C 
BRANCH  21  22
ATOM     22  C   UNL     1      49.029   7.793  13.468  0.00  0.00    +0.000 A 
ATOM     23  C   UNL     1      48.442   7.497  14.690  0.00  0.00    +0.000 A 
ATOM     24  S   UNL     1      49.566   7.365  15.968  0.00  0.00    +0.000 S 
ATOM     25  C   UNL     1      50.873   7.715  14.934  0.00  0.00    +0.000 A 
ATOM     26  N   UNL     1      52.153   7.732  15.393  0.00  0.00    +0.000 NA
ATOM     27  C   UNL     1      53.035   8.000  14.487  0.00  0.00    +0.000 A 
ATOM     28  N   UNL     1      52.755   8.266  13.171  0.00  0.00    +0.000 N 
ATOM     29  C   UNL     1      51.472   8.297  12.665  0.00  0.00    +0.000 A 
ATOM     30  O   UNL     1      51.249   8.600  11.501  0.00  0.00    +0.000 OA
ATOM     31  C   UNL     1      50.451   7.954  13.638  0.00  0.00    +0.000 A 
ATOM     32  H   UNL     1      53.492   8.493  12.521  0.00  0.00    +0.000 HD
ENDBRANCH  21  22
ENDBRANCH  18  21
ENDBRANCH   1  18
TORSDOF 8
ENDMDL
MODEL 8
REMARK VINA RESULT:    -7.018      2.995      7.435
REMARK INTER + INTRA:         -11.199
REMARK INTER:                  -9.297
REMARK INTRA:                  -1.902
REMARK UNBOUND:                -0.898
REMARK  Name = 
REMARK  9 active torsions:
REMARK  status: ('A' for Active; 'I' for Inactive)
REMARK    1  A    between atoms: C_1  and  C_2
REMARK    2  A    between atoms: C_2  and  N_3
REMARK    3  A    between atoms: C_2  and  C_20
REMARK    4  A    between atoms: N_3  and  C_4
REMARK    5  A    between atoms: C_4  and  C_5
REMARK    6  A    between atoms: C_8  and  C_9
REMARK    7  A    between atoms: C_9  and  N_10
REMARK    8  A    between atoms: N_10  and  C_11
REMARK    9  A    between atoms: C_11  and  C_12
REMARK                            x       y       z     vdW  Elec       q    Type
REMARK                         _______ _______ _______ _____ _____    ______ ____
ROOT
ATOM      1  C   UNL     1      48.599   6.628  13.447  0.00  0.00    +0.000 C 
ENDROOT
BRANCH   1   2
ATOM      2  C   UNL     1      49.373   7.918  13.790  0.00  0.00    +0.000 C 
ATOM      3  C   UNL     1      48.537   8.909  14.620  0.00  0.00    +0.000 C 
ATOM      4  C   UNL     1      48.201   8.369  16.012  0.00  0.00    +0.000 C 
ATOM      5  C   UNL     1      49.465   7.950  16.785  0.00  0.00    +0.000 C 
ATOM      6  C   UNL     1      50.375   7.027  15.953  0.00  0.00    +0.000 C 
ATOM      7  C   UNL     1      50.656   7.578  14.557  0.00  0.00    +0.000 C 
BRANCH   5   8
ATOM      8  C   UNL     1      49.079   7.288  18.125  0.00  0.00    +0.000 C 
BRANCH   8   9
ATOM      9  N   UNL     1      47.672   6.891  18.095  0.00  0.00    +0.000 NA
ATOM     10  H   UNL     1      47.328   6.899  17.136  0.00  0.00    +0.000 HD
BRANCH   9  11
ATOM     11  C   UNL     1      47.453   5.575  18.680  0.00  0.00    +0.000 C 
BRANCH  11  12
ATOM     12  C   UNL     1      47.856   4.489  17.711  0.00  0.00    +0.000 A 
ATOM     13  C   UNL     1      47.258   4.382  16.453  0.00  0.00    +0.000 A 
ATOM     14  C   UNL     1      47.691   3.384  15.593  0.00  0.00    +0.000 A 
ATOM     15  N   UNL     1      48.658   2.492  15.897  0.00  0.00    +0.000 NA
ATOM     16  C   UNL     1      49.216   2.603  17.121  0.00  0.00    +0.000 A 
ATOM     17  C   UNL     1      48.856   3.569  18.048  0.00  0.00    +0.000 A 
ENDBRANCH  11  12
ENDBRANCH   9  11
ENDBRANCH   8   9
ENDBRANCH   5   8
ENDBRANCH   1   2
BRANCH   1  18
ATOM     18  N   UNL     1      47.771   6.825  12.264  0.00  0.00    +0.000 NA
ATOM     19  H   UNL     1      48.039   6.143  11.554  0.00  0.00    +0.000 HD
BRANCH  18  21
ATOM     20  C   UNL     1      45.604   8.041  12.535  0.00  0.00    +0.000 C 
ATOM     21  C   UNL     1      46.332   6.691  12.526  0.00  0.00    +0.000 C 
BRANCH  21  22
ATOM     22  C   UNL     1      45.770   5.772  11.452  0.00  0.00    +0.000 A 
ATOM     23  C   UNL     1      46.011   5.890  10.091  0.00  0.00    +0.000 A 
ATOM     24  S   UNL     1      45.282   4.656   9.163  0.00  0.00    +0.000 S 
ATOM     25  C   UNL     1      44.607   3.932  10.547  0.00  0.00    +0.000 A 
ATOM     26  N   UNL     1      43.872   2.791  10.461  0.00  0.00    +0.000 NA
ATOM     27  C   UNL     1      43.439   2.355  11.599  0.00  0.00    +0.000 A 
ATOM     28  N   UNL     1      43.660   2.961  12.809  0.00  0.00    +0.000 N 
ATOM     29  C   UNL     1      44.366   4.138  12.945  0.00  0.00    +0.000 A 
ATOM     30  O   UNL     1      44.493   4.689  14.029  0.00  0.00    +0.000 OA
ATOM     31  C   UNL     1      44.913   4.639  11.697  0.00  0.00    +0.000 A 
ATOM     32  H   UNL     1      43.270   2.580  13.657  0.00  0.00    +0.000 HD
ENDBRANCH  21  22
ENDBRANCH  18  21
ENDBRANCH   1  18
TORSDOF 8
ENDMDL
MODEL 9
REMARK VINA RESULT:    -6.560      3.706      7.807
REMARK INTER + INTRA:         -10.526
REMARK INTER:                  -9.222
REMARK INTRA:                  -1.304
REMARK UNBOUND:                -0.898
REMARK  Name = 
REMARK  9 active torsions:
REMARK  status: ('A' for Active; 'I' for Inactive)
REMARK    1  A    between atoms: C_1  and  C_2
REMARK    2  A    between atoms: C_2  and  N_3
REMARK    3  A    between atoms: C_2  and  C_20
REMARK    4  A    between atoms: N_3  and  C_4
REMARK    5  A    between atoms: C_4  and  C_5
REMARK    6  A    between atoms: C_8  and  C_9
REMARK    7  A    between atoms: C_9  and  N_10
REMARK    8  A    between atoms: N_10  and  C_11
REMARK    9  A    between atoms: C_11  and  C_12
REMARK                            x       y       z     vdW  Elec       q    Type
REMARK                         _______ _______ _______ _____ _____    ______ ____
ROOT
ATOM      1  C   UNL     1      48.796   7.632  14.946  0.00  0.00    +0.000 C 
ENDROOT
BRANCH   1   2
ATOM      2  C   UNL     1      49.338   8.891  15.654  0.00  0.00    +0.000 C 
ATOM      3  C   UNL     1      48.326   9.496  16.645  0.00  0.00    +0.000 C 
ATOM      4  C   UNL     1      48.041   8.572  17.830  0.00  0.00    +0.000 C 
ATOM      5  C   UNL     1      49.332   8.162  18.562  0.00  0.00    +0.000 C 
ATOM      6  C   UNL     1      50.406   7.632  17.592  0.00  0.00    +0.000 C 
ATOM      7  C   UNL     1      50.635   8.561  16.401  0.00  0.00    +0.000 C 
BRANCH   5   8
ATOM      8  C   UNL     1      49.019   7.126  19.663  0.00  0.00    +0.000 C 
BRANCH   8   9
ATOM      9  N   UNL     1      49.400   5.790  19.209  0.00  0.00    +0.000 NA
ATOM     10  H   UNL     1      49.874   5.289  19.958  0.00  0.00    +0.000 HD
BRANCH   9  11
ATOM     11  C   UNL     1      48.257   5.011  18.750  0.00  0.00    +0.000 C 
BRANCH  11  12
ATOM     12  C   UNL     1      48.710   3.866  17.876  0.00  0.00    +0.000 A 
ATOM     13  C   UNL     1      47.829   3.237  16.993  0.00  0.00    +0.000 A 
ATOM     14  C   UNL     1      48.310   2.211  16.193  0.00  0.00    +0.000 A 
ATOM     15  N   UNL     1      49.585   1.770  16.215  0.00  0.00    +0.000 NA
ATOM     16  C   UNL     1      50.419   2.382  17.082  0.00  0.00    +0.000 A 
ATOM     17  C   UNL     1      50.035   3.419  17.920  0.00  0.00    +0.000 A 
ENDBRANCH  11  12
ENDBRANCH   9  11
ENDBRANCH   8   9
ENDBRANCH   5   8
ENDBRANCH   1   2
BRANCH   1  18
ATOM     18  N   UNL     1      47.486   7.894  14.364  0.00  0.00    +0.000 NA
ATOM     19  H   UNL     1      47.256   8.880  14.492  0.00  0.00    +0.000 HD
BRANCH  18  21
ATOM     20  C   UNL     1      48.781   7.358  12.294  0.00  0.00    +0.000 C 
ATOM     21  C   UNL     1      47.403   7.573  12.933  0.00  0.00    +0.000 C 
BRANCH  21  22
ATOM     22  C   UNL     1      46.539   6.328  12.807  0.00  0.00    +0.000 A 
ATOM     23  C   UNL     1      46.891   5.061  13.249  0.00  0.00    +0.000 A 
ATOM     24  S   UNL     1      45.665   3.896  13.014  0.00  0.00    +0.000 S 
ATOM     25  C   UNL     1      44.629   5.042  12.299  0.00  0.00    +0.000 A 
ATOM     26  N   UNL     1      43.378   4.705  11.886  0.00  0.00    +0.000 NA
ATOM     27  C   UNL     1      42.707   5.685  11.378  0.00  0.00    +0.000 A 
ATOM     28  N   UNL     1      43.177   6.966  11.229  0.00  0.00    +0.000 N 
ATOM     29  C   UNL     1      44.450   7.349  11.597  0.00  0.00    +0.000 A 
ATOM     30  O   UNL     1      44.862   8.482  11.394  0.00  0.00    +0.000 OA
ATOM     31  C   UNL     1      45.223   6.290  12.219  0.00  0.00    +0.000 A 
ATOM     32  H   UNL     1      42.608   7.678  10.798  0.00  0.00    +0.000 HD
ENDBRANCH  21  22
ENDBRANCH  18  21
ENDBRANCH   1  18
TORSDOF 8
ENDMDL
