MODEL 1
REMARK VINA RESULT:    -8.817      0.000      0.000
REMARK INTER + INTRA:         -11.537
REMARK INTER:                 -11.395
REMARK INTRA:                  -0.143
REMARK UNBOUND:                -0.143
REMARK  Name = 
REMARK  6 active torsions:
REMARK  status: ('A' for Active; 'I' for Inactive)
REMARK    1  A    between atoms: C_1  and  C_2
REMARK    2  A    between atoms: C_4  and  C_5
REMARK    3  A    between atoms: C_10  and  N_11
REMARK    4  A    between atoms: N_11  and  C_12
REMARK    5  A    between atoms: C_12  and  C_13
REMARK    6  A    between atoms: C_18  and  C_19
REMARK                            x       y       z     vdW  Elec       q    Type
REMARK                         _______ _______ _______ _____ _____    ______ ____
ROOT
ATOM      1  N   UNL     1      44.054   5.126   9.932  0.00  0.00    +0.000 N 
ATOM      2  H   UNL     1      44.017   6.059   9.545  0.00  0.00    +0.000 HD
ENDROOT
BRANCH   1   9
ATOM      3  C   UNL     1      43.864   2.266  10.528  0.00  0.00    +0.000 C 
ATOM      4  C   UNL     1      44.761   2.847   9.472  0.00  0.00    +0.000 A 
ATOM      5  C   UNL     1      45.598   1.980   8.745  0.00  0.00    +0.000 A 
ATOM      6  C   UNL     1      46.457   2.474   7.766  0.00  0.00    +0.000 A 
ATOM      7  C   UNL     1      46.435   3.839   7.557  0.00  0.00    +0.000 A 
ATOM      8  N   UNL     1      45.641   4.703   8.240  0.00  0.00    +0.000 NA
ATOM      9  C   UNL     1      44.807   4.221   9.187  0.00  0.00    +0.000 A 
BRANCH   6  10
ATOM     10  C   UNL     1      47.326   1.535   7.021  0.00  0.00    +0.000 C 
ATOM     11  N   UNL     1      48.482   1.998   6.458  0.00  0.00    +0.000 N 
ATOM     12  O   UNL     1      47.028   0.351   6.905  0.00  0.00    +0.000 OA
ATOM     13  H   UNL     1      48.844   2.939   6.521  0.00  0.00    +0.000 HD
ATOM     14  H   UNL     1      49.053   1.317   5.976  0.00  0.00    +0.000 HD
ENDBRANCH   6  10
ENDBRANCH   1   9
BRANCH   1  15
ATOM     15  C   UNL     1      44.141   5.088  11.389  0.00  0.00    +0.000 C 
BRANCH  15  16
ATOM     16  C   UNL     1      45.498   5.438  11.984  0.00  0.00    +0.000 A 
ATOM     17  C   UNL     1      46.297   6.392  11.330  0.00  0.00    +0.000 A 
ATOM     18  C   UNL     1      47.496   6.822  11.888  0.00  0.00    +0.000 A 
ATOM     19  C   UNL     1      47.912   6.322  13.120  0.00  0.00    +0.000 A 
ATOM     20  F   UNL     1      49.060   6.796  13.630  0.00  0.00    +0.000 F 
ATOM     21  C   UNL     1      47.156   5.370  13.826  0.00  0.00    +0.000 A 
ATOM     22  C   UNL     1      45.946   4.946  13.225  0.00  0.00    +0.000 A 
BRANCH  21  23
ATOM     23  C   UNL     1      47.584   4.828  15.136  0.00  0.00    +0.000 A 
ATOM     24  C   UNL     1      47.505   3.459  15.438  0.00  0.00    +0.000 A 
ATOM     25  C   UNL     1      47.967   2.965  16.659  0.00  0.00    +0.000 A 
ATOM     26  C   UNL     1      48.490   3.860  17.573  0.00  0.00    +0.000 A 
ATOM     27  N   UNL     1      48.571   5.186  17.349  0.00  0.00    +0.000 NA
ATOM     28  C   UNL     1      48.120   5.632  16.147  0.00  0.00    +0.000 A 
ENDBRANCH  21  23
ENDBRANCH  15  16
ENDBRANCH   1  15
TORSDOF 5
ENDMDL
MODEL 2
REMARK VINA RESULT:    -8.756      2.099      3.627
REMARK INTER + INTRA:         -11.458
REMARK INTER:                 -11.191
REMARK INTRA:                  -0.267
REMARK UNBOUND:                -0.143
REMARK  Name = 
REMARK  6 active torsions:
REMARK  status: ('A' for Active; 'I' for Inactive)
REMARK    1  A    between atoms: C_1  and  C_2
REMARK    2  A    between atoms: C_4  and  C_5
REMARK    3  A    between atoms: C_10  and  N_11
REMARK    4  A    between atoms: N_11  and  C_12
REMARK    5  A    between atoms: C_12  and  C_13
REMARK    6  A    between atoms: C_18  and  C_19
REMARK                            x       y       z     vdW  Elec       q    Type
REMARK                         _______ _______ _______ _____ _____    ______ ____
ROOT
ATOM      1  N   UNL     1      44.001   5.114   9.861  0.00  0.00    +0.000 N 
ATOM      2  H   UNL     1      44.081   6.075   9.559  0.00  0.00    +0.000 HD
ENDROOT
BRANCH   1   9
ATOM      3  C   UNL     1      43.872   2.263  10.510  0.00  0.00    +0.000 C 
ATOM      4  C   UNL     1      44.764   2.845   9.450  0.00  0.00    +0.000 A 
ATOM      5  C   UNL     1      45.627   1.983   8.747  0.00  0.00    +0.000 A 
ATOM      6  C   UNL     1      46.482   2.479   7.765  0.00  0.00    +0.000 A 
ATOM      7  C   UNL     1      46.430   3.838   7.530  0.00  0.00    +0.000 A 
ATOM      8  N   UNL     1      45.611   4.697   8.191  0.00  0.00    +0.000 NA
ATOM      9  C   UNL     1      44.780   4.213   9.140  0.00  0.00    +0.000 A 
BRANCH   6  10
ATOM     10  C   UNL     1      47.379   1.546   7.045  0.00  0.00    +0.000 C 
ATOM     11  N   UNL     1      48.524   2.027   6.476  0.00  0.00    +0.000 N 
ATOM     12  O   UNL     1      47.113   0.352   6.955  0.00  0.00    +0.000 OA
ATOM     13  H   UNL     1      48.861   2.978   6.518  0.00  0.00    +0.000 HD
ATOM     14  H   UNL     1      49.115   1.350   6.011  0.00  0.00    +0.000 HD
ENDBRANCH   6  10
ENDBRANCH   1   9
BRANCH   1  15
ATOM     15  C   UNL     1      43.890   4.954  11.309  0.00  0.00    +0.000 C 
BRANCH  15  16
ATOM     16  C   UNL     1      45.091   5.414  12.123  0.00  0.00    +0.000 A 
ATOM     17  C   UNL     1      45.549   4.600  13.173  0.00  0.00    +0.000 A 
ATOM     18  C   UNL     1      46.703   4.924  13.877  0.00  0.00    +0.000 A 
ATOM     19  C   UNL     1      47.434   6.060  13.534  0.00  0.00    +0.000 A 
ATOM     20  F   UNL     1      48.560   6.309  14.224  0.00  0.00    +0.000 F 
ATOM     21  C   UNL     1      47.033   6.912  12.492  0.00  0.00    +0.000 A 
ATOM     22  C   UNL     1      45.847   6.558  11.802  0.00  0.00    +0.000 A 
BRANCH  21  23
ATOM     23  C   UNL     1      47.798   8.122  12.115  0.00  0.00    +0.000 A 
ATOM     24  C   UNL     1      49.134   8.058  11.689  0.00  0.00    +0.000 A 
ATOM     25  C   UNL     1      49.816   9.206  11.286  0.00  0.00    +0.000 A 
ATOM     26  C   UNL     1      49.149  10.415  11.332  0.00  0.00    +0.000 A 
ATOM     27  N   UNL     1      47.876  10.544  11.751  0.00  0.00    +0.000 NA
ATOM     28  C   UNL     1      47.238   9.405  12.129  0.00  0.00    +0.000 A 
ENDBRANCH  21  23
ENDBRANCH  15  16
ENDBRANCH   1  15
TORSDOF 5
ENDMDL
MODEL 3
REMARK VINA RESULT:    -8.731      1.773      2.904
REMARK INTER + INTRA:         -11.425
REMARK INTER:                 -10.520
REMARK INTRA:                  -0.905
REMARK UNBOUND:                -0.143
REMARK  Name = 
REMARK  6 active torsions:
REMARK  status: ('A' for Active; 'I' for Inactive)
REMARK    1  A    between atoms: C_1  and  C_2
REMARK    2  A    between atoms: C_4  and  C_5
REMARK    3  A    between atoms: C_10  and  N_11
REMARK    4  A    between atoms: N_11  and  C_12
REMARK    5  A    between atoms: C_12  and  C_13
REMARK    6  A    between atoms: C_18  and  C_19
REMARK                            x       y       z     vdW  Elec       q    Type
REMARK                         _______ _______ _______ _____ _____    ______ ____
ROOT
ATOM      1  N   UNL     1      43.874   5.024  10.034  0.00  0.00    +0.000 N 
ATOM      2  H   UNL     1      42.935   5.141   9.680  0.00  0.00    +0.000 HD
ENDROOT
BRANCH   1   9
ATOM      3  C   UNL     1      43.948   2.148  10.577  0.00  0.00    +0.000 C 
ATOM      4  C   UNL     1      44.767   2.824   9.514  0.00  0.00    +0.000 A 
ATOM      5  C   UNL     1      45.660   2.047   8.754  0.00  0.00    +0.000 A 
ATOM      6  C   UNL     1      46.450   2.632   7.766  0.00  0.00    +0.000 A 
ATOM      7  C   UNL     1      46.305   3.993   7.586  0.00  0.00    +0.000 A 
ATOM      8  N   UNL     1      45.454   4.772   8.302  0.00  0.00    +0.000 NA
ATOM      9  C   UNL     1      44.686   4.202   9.256  0.00  0.00    +0.000 A 
BRANCH   6  10
ATOM     10  C   UNL     1      47.381   1.786   6.986  0.00  0.00    +0.000 C 
ATOM     11  N   UNL     1      48.492   2.354   6.427  0.00  0.00    +0.000 N 
ATOM     12  O   UNL     1      47.175   0.586   6.836  0.00  0.00    +0.000 OA
ATOM     13  H   UNL     1      48.780   3.318   6.516  0.00  0.00    +0.000 HD
ATOM     14  H   UNL     1      49.108   1.734   5.919  0.00  0.00    +0.000 HD
ENDBRANCH   6  10
ENDBRANCH   1   9
BRANCH   1  15
ATOM     15  C   UNL     1      44.445   6.233  10.619  0.00  0.00    +0.000 C 
BRANCH  15  16
ATOM     16  C   UNL     1      45.382   6.023  11.801  0.00  0.00    +0.000 A 
ATOM     17  C   UNL     1      45.054   5.046  12.757  0.00  0.00    +0.000 A 
ATOM     18  C   UNL     1      45.927   4.743  13.796  0.00  0.00    +0.000 A 
ATOM     19  C   UNL     1      47.153   5.398  13.891  0.00  0.00    +0.000 A 
ATOM     20  F   UNL     1      47.973   5.044  14.895  0.00  0.00    +0.000 F 
ATOM     21  C   UNL     1      47.541   6.381  12.965  0.00  0.00    +0.000 A 
ATOM     22  C   UNL     1      46.625   6.673  11.926  0.00  0.00    +0.000 A 
BRANCH  21  23
ATOM     23  C   UNL     1      48.840   7.087  13.052  0.00  0.00    +0.000 A 
ATOM     24  C   UNL     1      49.588   7.416  11.911  0.00  0.00    +0.000 A 
ATOM     25  C   UNL     1      50.782   8.131  12.016  0.00  0.00    +0.000 A 
ATOM     26  C   UNL     1      51.221   8.493  13.275  0.00  0.00    +0.000 A 
ATOM     27  N   UNL     1      50.560   8.187  14.407  0.00  0.00    +0.000 NA
ATOM     28  C   UNL     1      49.397   7.498  14.269  0.00  0.00    +0.000 A 
ENDBRANCH  21  23
ENDBRANCH  15  16
ENDBRANCH   1  15
TORSDOF 5
ENDMDL
MODEL 4
REMARK VINA RESULT:    -8.151      3.663      7.605
REMARK INTER + INTRA:         -10.676
REMARK INTER:                  -9.847
REMARK INTRA:                  -0.829
REMARK UNBOUND:                -0.143
REMARK  Name = 
REMARK  6 active torsions:
REMARK  status: ('A' for Active; 'I' for Inactive)
REMARK    1  A    between atoms: C_1  and  C_2
REMARK    2  A    between atoms: C_4  and  C_5
REMARK    3  A    between atoms: C_10  and  N_11
REMARK    4  A    between atoms: N_11  and  C_12
REMARK    5  A    between atoms: C_12  and  C_13
REMARK    6  A    between atoms: C_18  and  C_19
REMARK                            x       y       z     vdW  Elec       q    Type
REMARK                         _______ _______ _______ _____ _____    ______ ____
ROOT
ATOM      1  N   UNL     1      44.958   6.879  12.595  0.00  0.00    +0.000 N 
ATOM      2  H   UNL     1      44.385   6.342  13.231  0.00  0.00    +0.000 HD
ENDROOT
BRANCH   1   9
ATOM      3  C   UNL     1      46.316   4.685  13.976  0.00  0.00    +0.000 C 
ATOM      4  C   UNL     1      46.945   6.020  13.696  0.00  0.00    +0.000 A 
ATOM      5  C   UNL     1      48.253   6.259  14.158  0.00  0.00    +0.000 A 
ATOM      6  C   UNL     1      48.873   7.487  13.934  0.00  0.00    +0.000 A 
ATOM      7  C   UNL     1      48.140   8.433  13.247  0.00  0.00    +0.000 A 
ATOM      8  N   UNL     1      46.877   8.235  12.789  0.00  0.00    +0.000 NA
ATOM      9  C   UNL     1      46.279   7.043  13.003  0.00  0.00    +0.000 A 
BRANCH   6  10
ATOM     10  C   UNL     1      50.249   7.707  14.436  0.00  0.00    +0.000 C 
ATOM     11  N   UNL     1      51.284   7.758  13.545  0.00  0.00    +0.000 N 
ATOM     12  O   UNL     1      50.473   7.847  15.633  0.00  0.00    +0.000 OA
ATOM     13  H   UNL     1      51.213   7.692  12.540  0.00  0.00    +0.000 HD
ATOM     14  H   UNL     1      52.203   7.929  13.931  0.00  0.00    +0.000 HD
ENDBRANCH   6  10
ENDBRANCH   1   9
BRANCH   1  15
ATOM     15  C   UNL     1      44.679   6.625  11.184  0.00  0.00    +0.000 C 
BRANCH  15  16
ATOM     16  C   UNL     1      44.624   5.161  10.771  0.00  0.00    +0.000 A 
ATOM     17  C   UNL     1      43.735   4.302  11.440  0.00  0.00    +0.000 A 
ATOM     18  C   UNL     1      43.571   2.983  11.031  0.00  0.00    +0.000 A 
ATOM     19  C   UNL     1      44.279   2.500   9.932  0.00  0.00    +0.000 A 
ATOM     20  F   UNL     1      44.059   1.229   9.558  0.00  0.00    +0.000 F 
ATOM     21  C   UNL     1      45.180   3.309   9.218  0.00  0.00    +0.000 A 
ATOM     22  C   UNL     1      45.330   4.643   9.668  0.00  0.00    +0.000 A 
BRANCH  21  23
ATOM     23  C   UNL     1      45.940   2.811   8.049  0.00  0.00    +0.000 A 
ATOM     24  C   UNL     1      46.160   3.603   6.910  0.00  0.00    +0.000 A 
ATOM     25  C   UNL     1      46.928   3.130   5.845  0.00  0.00    +0.000 A 
ATOM     26  C   UNL     1      47.453   1.855   5.930  0.00  0.00    +0.000 A 
ATOM     27  N   UNL     1      47.258   1.042   6.985  0.00  0.00    +0.000 NA
ATOM     28  C   UNL     1      46.513   1.535   8.008  0.00  0.00    +0.000 A 
ENDBRANCH  21  23
ENDBRANCH  15  16
ENDBRANCH   1  15
TORSDOF 5
ENDMDL
MODEL 5
REMARK VINA RESULT:    -7.777      4.037      7.694
REMARK INTER + INTRA:         -10.193
REMARK INTER:                  -9.156
REMARK INTRA:                  -1.037
REMARK UNBOUND:                -0.143
REMARK  Name = 
REMARK  6 active torsions:
REMARK  status: ('A' for Active; 'I' for Inactive)
REMARK    1  A    between atoms: C_1  and  C_2
REMARK    2  A    between atoms: C_4  and  C_5
REMARK    3  A    between atoms: C_10  and  N_11
REMARK    4  A    between atoms: N_11  and  C_12
REMARK    5  A    between atoms: C_12  and  C_13
REMARK    6  A    between atoms: C_18  and  C_19
REMARK                            x       y       z     vdW  Elec       q    Type
REMARK                         _______ _______ _______ _____ _____    ______ ____
ROOT
ATOM      1  N   UNL     1      48.988   5.711  16.968  0.00  0.00    +0.000 N 
ATOM      2  H   UNL     1      47.992   5.549  17.004  0.00  0.00    +0.000 HD
ENDROOT
BRANCH   1   9
ATOM      3  C   UNL     1      47.681   3.093  17.017  0.00  0.00    +0.000 C 
ATOM      4  C   UNL     1      49.165   3.294  17.141  0.00  0.00    +0.000 A 
ATOM      5  C   UNL     1      49.985   2.167  17.336  0.00  0.00    +0.000 A 
ATOM      6  C   UNL     1      51.365   2.306  17.471  0.00  0.00    +0.000 A 
ATOM      7  C   UNL     1      51.865   3.591  17.402  0.00  0.00    +0.000 A 
ATOM      8  N   UNL     1      51.103   4.699  17.217  0.00  0.00    +0.000 NA
ATOM      9  C   UNL     1      49.766   4.562  17.083  0.00  0.00    +0.000 A 
BRANCH   6  10
ATOM     10  C   UNL     1      52.198   1.100  17.677  0.00  0.00    +0.000 C 
ATOM     11  N   UNL     1      51.634  -0.016  18.229  0.00  0.00    +0.000 N 
ATOM     12  O   UNL     1      53.383   1.084  17.359  0.00  0.00    +0.000 OA
ATOM     13  H   UNL     1      50.666  -0.128  18.494  0.00  0.00    +0.000 HD
ATOM     14  H   UNL     1      52.236  -0.821  18.334  0.00  0.00    +0.000 HD
ENDBRANCH   6  10
ENDBRANCH   1   9
BRANCH   1  15
ATOM     15  C   UNL     1      49.390   6.745  16.018  0.00  0.00    +0.000 C 
BRANCH  15  16
ATOM     16  C   UNL     1      48.651   6.748  14.687  0.00  0.00    +0.000 A 
ATOM     17  C   UNL     1      49.219   7.436  13.600  0.00  0.00    +0.000 A 
ATOM     18  C   UNL     1      48.638   7.380  12.338  0.00  0.00    +0.000 A 
ATOM     19  C   UNL     1      47.487   6.622  12.132  0.00  0.00    +0.000 A 
ATOM     20  F   UNL     1      46.986   6.576  10.887  0.00  0.00    +0.000 F 
ATOM     21  C   UNL     1      46.874   5.909  13.175  0.00  0.00    +0.000 A 
ATOM     22  C   UNL     1      47.485   5.995  14.450  0.00  0.00    +0.000 A 
BRANCH  21  23
ATOM     23  C   UNL     1      45.651   5.099  12.973  0.00  0.00    +0.000 A 
ATOM     24  C   UNL     1      44.366   5.665  13.015  0.00  0.00    +0.000 A 
ATOM     25  C   UNL     1      43.232   4.891  12.765  0.00  0.00    +0.000 A 
ATOM     26  C   UNL     1      43.403   3.547  12.492  0.00  0.00    +0.000 A 
ATOM     27  N   UNL     1      44.606   2.943  12.461  0.00  0.00    +0.000 NA
ATOM     28  C   UNL     1      45.690   3.727  12.700  0.00  0.00    +0.000 A 
ENDBRANCH  21  23
ENDBRANCH  15  16
ENDBRANCH   1  15
TORSDOF 5
ENDMDL
MODEL 6
REMARK VINA RESULT:    -7.741      3.402      7.903
REMARK INTER + INTRA:         -10.146
REMARK INTER:                  -9.662
REMARK INTRA:                  -0.484
REMARK UNBOUND:                -0.143
REMARK  Name = 
REMARK  6 active torsions:
REMARK  status: ('A' for Active; 'I' for Inactive)
REMARK    1  A    between atoms: C_1  and  C_2
REMARK    2  A    between atoms: C_4  and  C_5
REMARK    3  A    between atoms: C_10  and  N_11
REMARK    4  A    between atoms: N_11  and  C_12
REMARK    5  A    between atoms: C_12  and  C_13
REMARK    6  A    between atoms: C_18  and  C_19
REMARK                            x       y       z     vdW  Elec       q    Type
REMARK                         _______ _______ _______ _____ _____    ______ ____
ROOT
ATOM      1  N   UNL     1      45.899   7.067  11.237  0.00  0.00    +0.000 N 
ATOM      2  H   UNL     1      45.923   7.945  10.737  0.00  0.00    +0.000 HD
ENDROOT
BRANCH   1   9
ATOM      3  C   UNL     1      46.848   9.592  12.373  0.00  0.00    +0.000 C 
ATOM      4  C   UNL     1      47.141   8.242  12.963  0.00  0.00    +0.000 A 
ATOM      5  C   UNL     1      47.955   8.169  14.109  0.00  0.00    +0.000 A 
ATOM      6  C   UNL     1      48.265   6.938  14.683  0.00  0.00    +0.000 A 
ATOM      7  C   UNL     1      47.735   5.820  14.071  0.00  0.00    +0.000 A 
ATOM      8  N   UNL     1      46.948   5.855  12.966  0.00  0.00    +0.000 NA
ATOM      9  C   UNL     1      46.645   7.050  12.413  0.00  0.00    +0.000 A 
BRANCH   6  10
ATOM     10  C   UNL     1      49.127   6.896  15.887  0.00  0.00    +0.000 C 
ATOM     11  N   UNL     1      48.953   7.833  16.865  0.00  0.00    +0.000 N 
ATOM     12  O   UNL     1      49.989   6.034  16.020  0.00  0.00    +0.000 OA
ATOM     13  H   UNL     1      48.255   8.563  16.879  0.00  0.00    +0.000 HD
ATOM     14  H   UNL     1      49.552   7.754  17.677  0.00  0.00    +0.000 HD
ENDBRANCH   6  10
ENDBRANCH   1   9
BRANCH   1  15
ATOM     15  C   UNL     1      44.597   6.406  11.214  0.00  0.00    +0.000 C 
BRANCH  15  16
ATOM     16  C   UNL     1      44.590   4.966  10.718  0.00  0.00    +0.000 A 
ATOM     17  C   UNL     1      43.701   4.051  11.309  0.00  0.00    +0.000 A 
ATOM     18  C   UNL     1      43.582   2.755  10.822  0.00  0.00    +0.000 A 
ATOM     19  C   UNL     1      44.337   2.351   9.722  0.00  0.00    +0.000 A 
ATOM     20  F   UNL     1      44.160   1.098   9.271  0.00  0.00    +0.000 F 
ATOM     21  C   UNL     1      45.240   3.218   9.084  0.00  0.00    +0.000 A 
ATOM     22  C   UNL     1      45.344   4.528   9.612  0.00  0.00    +0.000 A 
BRANCH  21  23
ATOM     23  C   UNL     1      46.049   2.804   7.915  0.00  0.00    +0.000 A 
ATOM     24  C   UNL     1      46.286   3.663   6.830  0.00  0.00    +0.000 A 
ATOM     25  C   UNL     1      47.098   3.269   5.766  0.00  0.00    +0.000 A 
ATOM     26  C   UNL     1      47.652   2.004   5.798  0.00  0.00    +0.000 A 
ATOM     27  N   UNL     1      47.444   1.128   6.799  0.00  0.00    +0.000 NA
ATOM     28  C   UNL     1      46.655   1.546   7.823  0.00  0.00    +0.000 A 
ENDBRANCH  21  23
ENDBRANCH  15  16
ENDBRANCH   1  15
TORSDOF 5
ENDMDL
MODEL 7
REMARK VINA RESULT:    -7.270      3.572      7.925
REMARK INTER + INTRA:          -9.538
REMARK INTER:                  -8.744
REMARK INTRA:                  -0.794
REMARK UNBOUND:                -0.143
REMARK  Name = 
REMARK  6 active torsions:
REMARK  status: ('A' for Active; 'I' for Inactive)
REMARK    1  A    between atoms: C_1  and  C_2
REMARK    2  A    between atoms: C_4  and  C_5
REMARK    3  A    between atoms: C_10  and  N_11
REMARK    4  A    between atoms: N_11  and  C_12
REMARK    5  A    between atoms: C_12  and  C_13
REMARK    6  A    between atoms: C_18  and  C_19
REMARK                            x       y       z     vdW  Elec       q    Type
REMARK                         _______ _______ _______ _____ _____    ______ ____
ROOT
ATOM      1  N   UNL     1      49.401   7.007  13.231  0.00  0.00    +0.000 N 
ATOM      2  H   UNL     1      50.403   7.068  13.116  0.00  0.00    +0.000 HD
ENDROOT
BRANCH   1   9
ATOM      3  C   UNL     1      50.309   8.523  15.565  0.00  0.00    +0.000 C 
ATOM      4  C   UNL     1      49.434   7.304  15.643  0.00  0.00    +0.000 A 
ATOM      5  C   UNL     1      49.055   6.825  16.910  0.00  0.00    +0.000 A 
ATOM      6  C   UNL     1      48.256   5.690  17.032  0.00  0.00    +0.000 A 
ATOM      7  C   UNL     1      47.869   5.078  15.857  0.00  0.00    +0.000 A 
ATOM      8  N   UNL     1      48.217   5.513  14.619  0.00  0.00    +0.000 NA
ATOM      9  C   UNL     1      48.989   6.616  14.503  0.00  0.00    +0.000 A 
BRANCH   6  10
ATOM     10  C   UNL     1      47.878   5.211  18.382  0.00  0.00    +0.000 C 
ATOM     11  N   UNL     1      46.629   5.490  18.863  0.00  0.00    +0.000 N 
ATOM     12  O   UNL     1      48.662   4.567  19.070  0.00  0.00    +0.000 OA
ATOM     13  H   UNL     1      45.893   5.977  18.373  0.00  0.00    +0.000 HD
ATOM     14  H   UNL     1      46.409   5.126  19.781  0.00  0.00    +0.000 HD
ENDBRANCH   6  10
ENDBRANCH   1   9
BRANCH   1  15
ATOM     15  C   UNL     1      48.657   8.054  12.537  0.00  0.00    +0.000 C 
BRANCH  15  16
ATOM     16  C   UNL     1      47.205   7.733  12.209  0.00  0.00    +0.000 A 
ATOM     17  C   UNL     1      46.218   8.692  12.497  0.00  0.00    +0.000 A 
ATOM     18  C   UNL     1      44.895   8.490  12.121  0.00  0.00    +0.000 A 
ATOM     19  C   UNL     1      44.533   7.333  11.435  0.00  0.00    +0.000 A 
ATOM     20  F   UNL     1      43.248   7.203  11.066  0.00  0.00    +0.000 F 
ATOM     21  C   UNL     1      45.472   6.338  11.114  0.00  0.00    +0.000 A 
ATOM     22  C   UNL     1      46.809   6.571  11.520  0.00  0.00    +0.000 A 
BRANCH  21  23
ATOM     23  C   UNL     1      45.104   5.103  10.385  0.00  0.00    +0.000 A 
ATOM     24  C   UNL     1      45.550   4.847   9.079  0.00  0.00    +0.000 A 
ATOM     25  C   UNL     1      45.235   3.649   8.434  0.00  0.00    +0.000 A 
ATOM     26  C   UNL     1      44.458   2.726   9.108  0.00  0.00    +0.000 A 
ATOM     27  N   UNL     1      43.983   2.924  10.352  0.00  0.00    +0.000 NA
ATOM     28  C   UNL     1      44.315   4.097  10.954  0.00  0.00    +0.000 A 
ENDBRANCH  21  23
ENDBRANCH  15  16
ENDBRANCH   1  15
TORSDOF 5
ENDMDL
MODEL 8
REMARK VINA RESULT:    -7.193      4.338      6.303
REMARK INTER + INTRA:          -9.439
REMARK INTER:                  -8.613
REMARK INTRA:                  -0.826
REMARK UNBOUND:                -0.143
REMARK  Name = 
REMARK  6 active torsions:
REMARK  status: ('A' for Active; 'I' for Inactive)
REMARK    1  A    between atoms: C_1  and  C_2
REMARK    2  A    between atoms: C_4  and  C_5
REMARK    3  A    between atoms: C_10  and  N_11
REMARK    4  A    between atoms: N_11  and  C_12
REMARK    5  A    between atoms: C_12  and  C_13
REMARK    6  A    between atoms: C_18  and  C_19
REMARK                            x       y       z     vdW  Elec       q    Type
REMARK                         _______ _______ _______ _____ _____    ______ ____
ROOT
ATOM      1  N   UNL     1      49.003   6.924  14.122  0.00  0.00    +0.000 N 
ATOM      2  H   UNL     1      49.801   6.357  13.871  0.00  0.00    +0.000 HD
ENDROOT
BRANCH   1   9
ATOM      3  C   UNL     1      47.028   8.498  12.642  0.00  0.00    +0.000 C 
ATOM      4  C   UNL     1      46.791   7.098  13.132  0.00  0.00    +0.000 A 
ATOM      5  C   UNL     1      45.532   6.509  12.909  0.00  0.00    +0.000 A 
ATOM      6  C   UNL     1      45.261   5.218  13.357  0.00  0.00    +0.000 A 
ATOM      7  C   UNL     1      46.283   4.567  14.019  0.00  0.00    +0.000 A 
ATOM      8  N   UNL     1      47.507   5.105  14.251  0.00  0.00    +0.000 NA
ATOM      9  C   UNL     1      47.769   6.356  13.812  0.00  0.00    +0.000 A 
BRANCH   6  10
ATOM     10  C   UNL     1      43.925   4.630  13.109  0.00  0.00    +0.000 C 
ATOM     11  N   UNL     1      42.834   5.451  13.047  0.00  0.00    +0.000 N 
ATOM     12  O   UNL     1      43.782   3.421  12.955  0.00  0.00    +0.000 OA
ATOM     13  H   UNL     1      42.838   6.458  13.123  0.00  0.00    +0.000 HD
ATOM     14  H   UNL     1      41.946   5.007  12.857  0.00  0.00    +0.000 HD
ENDBRANCH   6  10
ENDBRANCH   1   9
BRANCH   1  15
ATOM     15  C   UNL     1      49.155   7.637  15.387  0.00  0.00    +0.000 C 
BRANCH  15  16
ATOM     16  C   UNL     1      49.320   6.768  16.626  0.00  0.00    +0.000 A 
ATOM     17  C   UNL     1      48.597   7.097  17.786  0.00  0.00    +0.000 A 
ATOM     18  C   UNL     1      48.633   6.277  18.907  0.00  0.00    +0.000 A 
ATOM     19  C   UNL     1      49.378   5.099  18.887  0.00  0.00    +0.000 A 
ATOM     20  F   UNL     1      49.351   4.326  19.985  0.00  0.00    +0.000 F 
ATOM     21  C   UNL     1      50.119   4.711  17.758  0.00  0.00    +0.000 A 
ATOM     22  C   UNL     1      50.069   5.575  16.637  0.00  0.00    +0.000 A 
BRANCH  21  23
ATOM     23  C   UNL     1      50.915   3.463  17.720  0.00  0.00    +0.000 A 
ATOM     24  C   UNL     1      52.254   3.420  18.142  0.00  0.00    +0.000 A 
ATOM     25  C   UNL     1      52.966   2.220  18.149  0.00  0.00    +0.000 A 
ATOM     26  C   UNL     1      52.326   1.075  17.714  0.00  0.00    +0.000 A 
ATOM     27  N   UNL     1      51.053   1.058  17.277  0.00  0.00    +0.000 NA
ATOM     28  C   UNL     1      50.386   2.241  17.291  0.00  0.00    +0.000 A 
ENDBRANCH  21  23
ENDBRANCH  15  16
ENDBRANCH   1  15
TORSDOF 5
ENDMDL
MODEL 9
REMARK VINA RESULT:    -6.942      3.886      6.021
REMARK INTER + INTRA:          -9.114
REMARK INTER:                  -8.090
REMARK INTRA:                  -1.024
REMARK UNBOUND:                -0.143
REMARK  Name = 
REMARK  6 active torsions:
REMARK  status: ('A' for Active; 'I' for Inactive)
REMARK    1  A    between atoms: C_1  and  C_2
REMARK    2  A    between atoms: C_4  and  C_5
REMARK    3  A    between atoms: C_10  and  N_11
REMARK    4  A    between atoms: N_11  and  C_12
REMARK    5  A    between atoms: C_12  and  C_13
REMARK    6  A    between atoms: C_18  and  C_19
REMARK                            x       y       z     vdW  Elec       q    Type
REMARK                         _______ _______ _______ _____ _____    ______ ____
ROOT
ATOM      1  N   UNL     1      45.843   7.587  13.252  0.00  0.00    +0.000 N 
ATOM      2  H   UNL     1      45.214   8.102  13.852  0.00  0.00    +0.000 HD
ENDROOT
BRANCH   1   9
ATOM      3  C   UNL     1      46.996   5.053  14.158  0.00  0.00    +0.000 C 
ATOM      4  C   UNL     1      45.880   5.159  13.157  0.00  0.00    +0.000 A 
ATOM      5  C   UNL     1      45.377   3.979  12.579  0.00  0.00    +0.000 A 
ATOM      6  C   UNL     1      44.353   4.028  11.636  0.00  0.00    +0.000 A 
ATOM      7  C   UNL     1      43.873   5.281  11.311  0.00  0.00    +0.000 A 
ATOM      8  N   UNL     1      44.336   6.439  11.848  0.00  0.00    +0.000 NA
ATOM      9  C   UNL     1      45.327   6.388  12.765  0.00  0.00    +0.000 A 
BRANCH   6  10
ATOM     10  C   UNL     1      43.849   2.768  11.045  0.00  0.00    +0.000 C 
ATOM     11  N   UNL     1      44.448   2.269   9.923  0.00  0.00    +0.000 N 
ATOM     12  O   UNL     1      42.907   2.164  11.547  0.00  0.00    +0.000 OA
ATOM     13  H   UNL     1      45.249   2.660   9.448  0.00  0.00    +0.000 HD
ATOM     14  H   UNL     1      44.082   1.396   9.566  0.00  0.00    +0.000 HD
ENDBRANCH   6  10
ENDBRANCH   1   9
BRANCH   1  15
ATOM     15  C   UNL     1      46.638   8.428  12.362  0.00  0.00    +0.000 C 
BRANCH  15  16
ATOM     16  C   UNL     1      48.134   8.467  12.643  0.00  0.00    +0.000 A 
ATOM     17  C   UNL     1      48.575   8.378  13.975  0.00  0.00    +0.000 A 
ATOM     18  C   UNL     1      49.929   8.304  14.276  0.00  0.00    +0.000 A 
ATOM     19  C   UNL     1      50.873   8.298  13.250  0.00  0.00    +0.000 A 
ATOM     20  F   UNL     1      52.167   8.190  13.594  0.00  0.00    +0.000 F 
ATOM     21  C   UNL     1      50.498   8.379  11.899  0.00  0.00    +0.000 A 
ATOM     22  C   UNL     1      49.110   8.464  11.628  0.00  0.00    +0.000 A 
BRANCH  21  23
ATOM     23  C   UNL     1      51.487   8.374  10.797  0.00  0.00    +0.000 A 
ATOM     24  C   UNL     1      51.913   7.186  10.182  0.00  0.00    +0.000 A 
ATOM     25  C   UNL     1      52.804   7.212   9.108  0.00  0.00    +0.000 A 
ATOM     26  C   UNL     1      53.272   8.437   8.675  0.00  0.00    +0.000 A 
ATOM     27  N   UNL     1      52.919   9.608   9.238  0.00  0.00    +0.000 NA
ATOM     28  C   UNL     1      52.043   9.547  10.276  0.00  0.00    +0.000 A 
ENDBRANCH  21  23
ENDBRANCH  15  16
ENDBRANCH   1  15
TORSDOF 5
ENDMDL
