MODEL 1
REMARK VINA RESULT:    -7.860      0.000      0.000
REMARK INTER + INTRA:         -10.696
REMARK INTER:                  -9.699
REMARK INTRA:                  -0.998
REMARK UNBOUND:                -0.998
REMARK  Name = 
REMARK  5 active torsions:
REMARK  status: ('A' for Active; 'I' for Inactive)
REMARK    1  A    between atoms: C_1  and  C_2
REMARK    2  A    between atoms: C_2  and  C_3
REMARK    3  A    between atoms: C_12  and  N_13
REMARK    4  A    between atoms: N_13  and  C_14
REMARK    5  A    between atoms: C_17  and  C_18
REMARK                            x       y       z     vdW  Elec       q    Type
REMARK                         _______ _______ _______ _____ _____    ______ ____
ROOT
ATOM      1  N   UNL     1      44.199   3.865  10.608  0.00  0.00    +0.000 N 
ATOM      2  H   UNL     1      44.318   3.249  11.406  0.00  0.00    +0.000 HD
ENDROOT
BRANCH   1   3
ATOM      3  C   UNL     1      44.958   3.512   9.473  0.00  0.00    +0.000 A 
ATOM      4  C   UNL     1      45.466   4.459   8.588  0.00  0.00    +0.000 A 
ATOM      5  C   UNL     1      46.343   4.068   7.577  0.00  0.00    +0.000 A 
ATOM      6  C   UNL     1      46.635   2.718   7.441  0.00  0.00    +0.000 A 
ATOM      7  N   UNL     1      46.081   1.744   8.211  0.00  0.00    +0.000 NA
ATOM      8  C   UNL     1      45.249   2.174   9.193  0.00  0.00    +0.000 A 
BRANCH   6   9
ATOM      9  C   UNL     1      47.637   2.280   6.415  0.00  0.00    +0.000 C 
ATOM     10  N   UNL     1      47.721   3.059   5.293  0.00  0.00    +0.000 N 
ATOM     11  O   UNL     1      48.338   1.285   6.558  0.00  0.00    +0.000 OA
ATOM     12  H   UNL     1      47.122   3.874   5.206  0.00  0.00    +0.000 HD
ATOM     13  H   UNL     1      48.369   2.814   4.568  0.00  0.00    +0.000 HD
ENDBRANCH   6   9
ENDBRANCH   1   3
BRANCH   1  18
ATOM     14  C   UNL     1      43.776   7.548  11.199  0.00  0.00    +0.000 C 
ATOM     15  C   UNL     1      44.159   6.181  11.825  0.00  0.00    +0.000 C 
ATOM     16  C   UNL     1      43.154   5.734  12.925  0.00  0.00    +0.000 C 
ATOM     17  C   UNL     1      42.374   4.916  11.887  0.00  0.00    +0.000 C 
ATOM     18  C   UNL     1      43.520   5.102  10.865  0.00  0.00    +0.000 C 
BRANCH  15  19
ATOM     19  C   UNL     1      45.735   6.211  12.277  0.00  0.00    +0.000 A 
ATOM     20  C   UNL     1      46.192   5.555  13.448  0.00  0.00    +0.000 A 
ATOM     21  C   UNL     1      47.479   5.734  13.968  0.00  0.00    +0.000 A 
ATOM     22  C   UNL     1      48.368   6.558  13.306  0.00  0.00    +0.000 A 
ATOM     23  F   UNL     1      49.570   6.809  13.839  0.00  0.00    +0.000 F 
ATOM     24  C   UNL     1      48.026   7.111  12.087  0.00  0.00    +0.000 A 
ATOM     25  C   UNL     1      46.746   6.887  11.563  0.00  0.00    +0.000 A 
ENDBRANCH  15  19
ENDBRANCH   1  18
TORSDOF 4
ENDMDL
MODEL 2
REMARK VINA RESULT:    -7.791      1.441      1.998
REMARK INTER + INTRA:         -10.611
REMARK INTER:                 -10.294
REMARK INTRA:                  -0.317
REMARK UNBOUND:                -0.998
REMARK  Name = 
REMARK  5 active torsions:
REMARK  status: ('A' for Active; 'I' for Inactive)
REMARK    1  A    between atoms: C_1  and  C_2
REMARK    2  A    between atoms: C_2  and  C_3
REMARK    3  A    between atoms: C_12  and  N_13
REMARK    4  A    between atoms: N_13  and  C_14
REMARK    5  A    between atoms: C_17  and  C_18
REMARK                            x       y       z     vdW  Elec       q    Type
REMARK                         _______ _______ _______ _____ _____    ______ ____
ROOT
ATOM      1  N   UNL     1      43.785   4.619   9.639  0.00  0.00    +0.000 N 
ATOM      2  H   UNL     1      43.158   5.166   9.057  0.00  0.00    +0.000 HD
ENDROOT
BRANCH   1   3
ATOM      3  C   UNL     1      44.835   3.986   8.942  0.00  0.00    +0.000 A 
ATOM      4  C   UNL     1      44.957   2.601   8.868  0.00  0.00    +0.000 A 
ATOM      5  C   UNL     1      45.916   2.030   8.034  0.00  0.00    +0.000 A 
ATOM      6  C   UNL     1      46.777   2.871   7.342  0.00  0.00    +0.000 A 
ATOM      7  N   UNL     1      46.767   4.226   7.463  0.00  0.00    +0.000 NA
ATOM      8  C   UNL     1      45.804   4.736   8.270  0.00  0.00    +0.000 A 
BRANCH   6   9
ATOM      9  C   UNL     1      47.763   2.286   6.376  0.00  0.00    +0.000 C 
ATOM     10  N   UNL     1      47.958   2.994   5.221  0.00  0.00    +0.000 N 
ATOM     11  O   UNL     1      48.357   1.237   6.592  0.00  0.00    +0.000 OA
ATOM     12  H   UNL     1      47.446   3.858   5.073  0.00  0.00    +0.000 HD
ATOM     13  H   UNL     1      48.602   2.650   4.534  0.00  0.00    +0.000 HD
ENDBRANCH   6   9
ENDBRANCH   1   3
BRANCH   1  18
ATOM     14  C   UNL     1      43.008   5.332  13.242  0.00  0.00    +0.000 C 
ATOM     15  C   UNL     1      44.112   4.984  12.208  0.00  0.00    +0.000 C 
ATOM     16  C   UNL     1      44.737   3.583  12.462  0.00  0.00    +0.000 C 
ATOM     17  C   UNL     1      43.757   2.959  11.459  0.00  0.00    +0.000 C 
ATOM     18  C   UNL     1      43.338   4.368  10.979  0.00  0.00    +0.000 C 
BRANCH  15  19
ATOM     19  C   UNL     1      45.178   6.227  12.113  0.00  0.00    +0.000 A 
ATOM     20  C   UNL     1      46.517   6.036  11.685  0.00  0.00    +0.000 A 
ATOM     21  C   UNL     1      47.499   7.027  11.790  0.00  0.00    +0.000 A 
ATOM     22  C   UNL     1      47.159   8.265  12.302  0.00  0.00    +0.000 A 
ATOM     23  F   UNL     1      48.107   9.192  12.491  0.00  0.00    +0.000 F 
ATOM     24  C   UNL     1      45.843   8.554  12.602  0.00  0.00    +0.000 A 
ATOM     25  C   UNL     1      44.867   7.559  12.452  0.00  0.00    +0.000 A 
ENDBRANCH  15  19
ENDBRANCH   1  18
TORSDOF 4
ENDMDL
MODEL 3
REMARK VINA RESULT:    -7.017      4.093      6.811
REMARK INTER + INTRA:          -9.655
REMARK INTER:                  -9.026
REMARK INTRA:                  -0.629
REMARK UNBOUND:                -0.998
REMARK  Name = 
REMARK  5 active torsions:
REMARK  status: ('A' for Active; 'I' for Inactive)
REMARK    1  A    between atoms: C_1  and  C_2
REMARK    2  A    between atoms: C_2  and  C_3
REMARK    3  A    between atoms: C_12  and  N_13
REMARK    4  A    between atoms: N_13  and  C_14
REMARK    5  A    between atoms: C_17  and  C_18
REMARK                            x       y       z     vdW  Elec       q    Type
REMARK                         _______ _______ _______ _____ _____    ______ ____
ROOT
ATOM      1  N   UNL     1      45.971   5.313  12.141  0.00  0.00    +0.000 N 
ATOM      2  H   UNL     1      46.293   5.392  11.181  0.00  0.00    +0.000 HD
ENDROOT
BRANCH   1   3
ATOM      3  C   UNL     1      46.946   5.614  13.115  0.00  0.00    +0.000 A 
ATOM      4  C   UNL     1      47.834   6.678  12.984  0.00  0.00    +0.000 A 
ATOM      5  C   UNL     1      48.665   7.027  14.046  0.00  0.00    +0.000 A 
ATOM      6  C   UNL     1      48.629   6.251  15.197  0.00  0.00    +0.000 A 
ATOM      7  N   UNL     1      47.859   5.139  15.333  0.00  0.00    +0.000 NA
ATOM      8  C   UNL     1      47.053   4.851  14.281  0.00  0.00    +0.000 A 
BRANCH   6   9
ATOM      9  C   UNL     1      49.453   6.653  16.384  0.00  0.00    +0.000 C 
ATOM     10  N   UNL     1      49.464   7.991  16.676  0.00  0.00    +0.000 N 
ATOM     11  O   UNL     1      50.086   5.847  17.053  0.00  0.00    +0.000 OA
ATOM     12  H   UNL     1      48.930   8.632  16.097  0.00  0.00    +0.000 HD
ATOM     13  H   UNL     1      50.001   8.321  17.455  0.00  0.00    +0.000 HD
ENDBRANCH   6   9
ENDBRANCH   1   3
BRANCH   1  18
ATOM     14  C   UNL     1      43.329   2.673  11.769  0.00  0.00    +0.000 C 
ATOM     15  C   UNL     1      44.009   3.911  11.127  0.00  0.00    +0.000 C 
ATOM     16  C   UNL     1      43.037   5.119  11.000  0.00  0.00    +0.000 C 
ATOM     17  C   UNL     1      43.542   5.673  12.339  0.00  0.00    +0.000 C 
ATOM     18  C   UNL     1      44.709   4.658  12.329  0.00  0.00    +0.000 C 
BRANCH  15  19
ATOM     19  C   UNL     1      44.762   3.461   9.742  0.00  0.00    +0.000 A 
ATOM     20  C   UNL     1      44.996   2.099   9.424  0.00  0.00    +0.000 A 
ATOM     21  C   UNL     1      45.812   1.694   8.361  0.00  0.00    +0.000 A 
ATOM     22  C   UNL     1      46.398   2.651   7.555  0.00  0.00    +0.000 A 
ATOM     23  F   UNL     1      47.251   2.281   6.592  0.00  0.00    +0.000 F 
ATOM     24  C   UNL     1      46.092   3.986   7.729  0.00  0.00    +0.000 A 
ATOM     25  C   UNL     1      45.241   4.369   8.775  0.00  0.00    +0.000 A 
ENDBRANCH  15  19
ENDBRANCH   1  18
TORSDOF 4
ENDMDL
MODEL 4
REMARK VINA RESULT:    -6.837      4.334      7.040
REMARK INTER + INTRA:          -9.434
REMARK INTER:                  -8.774
REMARK INTRA:                  -0.660
REMARK UNBOUND:                -0.998
REMARK  Name = 
REMARK  5 active torsions:
REMARK  status: ('A' for Active; 'I' for Inactive)
REMARK    1  A    between atoms: C_1  and  C_2
REMARK    2  A    between atoms: C_2  and  C_3
REMARK    3  A    between atoms: C_12  and  N_13
REMARK    4  A    between atoms: N_13  and  C_14
REMARK    5  A    between atoms: C_17  and  C_18
REMARK                            x       y       z     vdW  Elec       q    Type
REMARK                         _______ _______ _______ _____ _____    ______ ____
ROOT
ATOM      1  N   UNL     1      46.342   4.979  12.927  0.00  0.00    +0.000 N 
ATOM      2  H   UNL     1      46.714   4.496  12.115  0.00  0.00    +0.000 HD
ENDROOT
BRANCH   1   3
ATOM      3  C   UNL     1      47.066   4.771  14.120  0.00  0.00    +0.000 A 
ATOM      4  C   UNL     1      47.695   5.807  14.804  0.00  0.00    +0.000 A 
ATOM      5  C   UNL     1      48.257   5.573  16.058  0.00  0.00    +0.000 A 
ATOM      6  C   UNL     1      48.228   4.281  16.565  0.00  0.00    +0.000 A 
ATOM      7  N   UNL     1      47.721   3.216  15.889  0.00  0.00    +0.000 NA
ATOM      8  C   UNL     1      47.168   3.496  14.682  0.00  0.00    +0.000 A 
BRANCH   6   9
ATOM      9  C   UNL     1      48.751   4.018  17.946  0.00  0.00    +0.000 C 
ATOM     10  N   UNL     1      47.952   3.248  18.749  0.00  0.00    +0.000 N 
ATOM     11  O   UNL     1      49.819   4.465  18.344  0.00  0.00    +0.000 OA
ATOM     12  H   UNL     1      47.071   2.898  18.387  0.00  0.00    +0.000 HD
ATOM     13  H   UNL     1      48.246   3.043  19.685  0.00  0.00    +0.000 HD
ENDBRANCH   6   9
ENDBRANCH   1   3
BRANCH   1  18
ATOM     14  C   UNL     1      42.793   5.264  11.737  0.00  0.00    +0.000 C 
ATOM     15  C   UNL     1      44.289   5.479  11.385  0.00  0.00    +0.000 C 
ATOM     16  C   UNL     1      44.637   6.981  11.184  0.00  0.00    +0.000 C 
ATOM     17  C   UNL     1      45.083   7.079  12.649  0.00  0.00    +0.000 C 
ATOM     18  C   UNL     1      45.030   5.539  12.777  0.00  0.00    +0.000 C 
BRANCH  15  19
ATOM     19  C   UNL     1      44.704   4.485  10.148  0.00  0.00    +0.000 A 
ATOM     20  C   UNL     1      44.353   3.111  10.140  0.00  0.00    +0.000 A 
ATOM     21  C   UNL     1      44.865   2.199   9.210  0.00  0.00    +0.000 A 
ATOM     22  C   UNL     1      45.728   2.647   8.228  0.00  0.00    +0.000 A 
ATOM     23  F   UNL     1      46.295   1.772   7.388  0.00  0.00    +0.000 F 
ATOM     24  C   UNL     1      45.994   3.997   8.101  0.00  0.00    +0.000 A 
ATOM     25  C   UNL     1      45.439   4.898   9.019  0.00  0.00    +0.000 A 
ENDBRANCH  15  19
ENDBRANCH   1  18
TORSDOF 4
ENDMDL
MODEL 5
REMARK VINA RESULT:    -6.797      4.041      6.576
REMARK INTER + INTRA:          -9.384
REMARK INTER:                  -8.467
REMARK INTRA:                  -0.918
REMARK UNBOUND:                -0.998
REMARK  Name = 
REMARK  5 active torsions:
REMARK  status: ('A' for Active; 'I' for Inactive)
REMARK    1  A    between atoms: C_1  and  C_2
REMARK    2  A    between atoms: C_2  and  C_3
REMARK    3  A    between atoms: C_12  and  N_13
REMARK    4  A    between atoms: N_13  and  C_14
REMARK    5  A    between atoms: C_17  and  C_18
REMARK                            x       y       z     vdW  Elec       q    Type
REMARK                         _______ _______ _______ _____ _____    ______ ____
ROOT
ATOM      1  N   UNL     1      46.427   4.638  12.559  0.00  0.00    +0.000 N 
ATOM      2  H   UNL     1      47.076   3.859  12.601  0.00  0.00    +0.000 HD
ENDROOT
BRANCH   1   3
ATOM      3  C   UNL     1      47.019   5.908  12.716  0.00  0.00    +0.000 A 
ATOM      4  C   UNL     1      47.102   6.830  11.677  0.00  0.00    +0.000 A 
ATOM      5  C   UNL     1      47.549   8.126  11.929  0.00  0.00    +0.000 A 
ATOM      6  C   UNL     1      47.966   8.443  13.214  0.00  0.00    +0.000 A 
ATOM      7  N   UNL     1      48.005   7.549  14.237  0.00  0.00    +0.000 NA
ATOM      8  C   UNL     1      47.543   6.307  13.949  0.00  0.00    +0.000 A 
BRANCH   6   9
ATOM      9  C   UNL     1      48.373   9.852  13.531  0.00  0.00    +0.000 C 
ATOM     10  N   UNL     1      48.509  10.147  14.861  0.00  0.00    +0.000 N 
ATOM     11  O   UNL     1      48.567  10.695  12.664  0.00  0.00    +0.000 OA
ATOM     12  H   UNL     1      48.337   9.425  15.552  0.00  0.00    +0.000 HD
ATOM     13  H   UNL     1      48.775  11.074  15.135  0.00  0.00    +0.000 HD
ENDBRANCH   6   9
ENDBRANCH   1   3
BRANCH   1  18
ATOM     14  C   UNL     1      43.231   2.852  11.726  0.00  0.00    +0.000 C 
ATOM     15  C   UNL     1      44.224   3.971  11.314  0.00  0.00    +0.000 C 
ATOM     16  C   UNL     1      43.588   5.387  11.405  0.00  0.00    +0.000 C 
ATOM     17  C   UNL     1      44.155   5.557  12.821  0.00  0.00    +0.000 C 
ATOM     18  C   UNL     1      45.034   4.299  12.629  0.00  0.00    +0.000 C 
BRANCH  15  19
ATOM     19  C   UNL     1      44.902   3.591   9.870  0.00  0.00    +0.000 A 
ATOM     20  C   UNL     1      45.055   2.248   9.443  0.00  0.00    +0.000 A 
ATOM     21  C   UNL     1      45.810   1.886   8.321  0.00  0.00    +0.000 A 
ATOM     22  C   UNL     1      46.413   2.872   7.565  0.00  0.00    +0.000 A 
ATOM     23  F   UNL     1      47.210   2.536   6.544  0.00  0.00    +0.000 F 
ATOM     24  C   UNL     1      46.182   4.204   7.850  0.00  0.00    +0.000 A 
ATOM     25  C   UNL     1      45.391   4.546   8.955  0.00  0.00    +0.000 A 
ENDBRANCH  15  19
ENDBRANCH   1  18
TORSDOF 4
ENDMDL
MODEL 6
REMARK VINA RESULT:    -6.189      5.181      8.005
REMARK INTER + INTRA:          -8.634
REMARK INTER:                  -7.910
REMARK INTRA:                  -0.724
REMARK UNBOUND:                -0.998
REMARK  Name = 
REMARK  5 active torsions:
REMARK  status: ('A' for Active; 'I' for Inactive)
REMARK    1  A    between atoms: C_1  and  C_2
REMARK    2  A    between atoms: C_2  and  C_3
REMARK    3  A    between atoms: C_12  and  N_13
REMARK    4  A    between atoms: N_13  and  C_14
REMARK    5  A    between atoms: C_17  and  C_18
REMARK                            x       y       z     vdW  Elec       q    Type
REMARK                         _______ _______ _______ _____ _____    ______ ____
ROOT
ATOM      1  N   UNL     1      47.714   5.594  14.149  0.00  0.00    +0.000 N 
ATOM      2  H   UNL     1      47.676   4.775  13.549  0.00  0.00    +0.000 HD
ENDROOT
BRANCH   1   3
ATOM      3  C   UNL     1      47.851   5.311  15.524  0.00  0.00    +0.000 A 
ATOM      4  C   UNL     1      47.199   4.246  16.139  0.00  0.00    +0.000 A 
ATOM      5  C   UNL     1      47.496   3.915  17.460  0.00  0.00    +0.000 A 
ATOM      6  C   UNL     1      48.398   4.710  18.153  0.00  0.00    +0.000 A 
ATOM      7  N   UNL     1      48.979   5.823  17.632  0.00  0.00    +0.000 NA
ATOM      8  C   UNL     1      48.675   6.093  16.338  0.00  0.00    +0.000 A 
BRANCH   6   9
ATOM      9  C   UNL     1      48.797   4.329  19.548  0.00  0.00    +0.000 C 
ATOM     10  N   UNL     1      48.358   3.106  19.979  0.00  0.00    +0.000 N 
ATOM     11  O   UNL     1      49.465   5.060  20.267  0.00  0.00    +0.000 OA
ATOM     12  H   UNL     1      47.803   2.527  19.357  0.00  0.00    +0.000 HD
ATOM     13  H   UNL     1      48.589   2.797  20.905  0.00  0.00    +0.000 HD
ENDBRANCH   6   9
ENDBRANCH   1   3
BRANCH   1  18
ATOM     14  C   UNL     1      45.488   8.195  12.609  0.00  0.00    +0.000 C 
ATOM     15  C   UNL     1      46.272   6.875  12.382  0.00  0.00    +0.000 C 
ATOM     16  C   UNL     1      47.436   7.048  11.364  0.00  0.00    +0.000 C 
ATOM     17  C   UNL     1      48.415   7.302  12.518  0.00  0.00    +0.000 C 
ATOM     18  C   UNL     1      47.348   6.838  13.537  0.00  0.00    +0.000 C 
BRANCH  15  19
ATOM     19  C   UNL     1      45.216   5.665  12.050  0.00  0.00    +0.000 A 
ATOM     20  C   UNL     1      44.308   5.175  13.022  0.00  0.00    +0.000 A 
ATOM     21  C   UNL     1      43.545   4.016  12.836  0.00  0.00    +0.000 A 
ATOM     22  C   UNL     1      43.646   3.324  11.645  0.00  0.00    +0.000 A 
ATOM     23  F   UNL     1      42.992   2.166  11.488  0.00  0.00    +0.000 F 
ATOM     24  C   UNL     1      44.406   3.831  10.610  0.00  0.00    +0.000 A 
ATOM     25  C   UNL     1      45.131   5.015  10.802  0.00  0.00    +0.000 A 
ENDBRANCH  15  19
ENDBRANCH   1  18
TORSDOF 4
ENDMDL
MODEL 7
REMARK VINA RESULT:    -5.738      3.980      6.105
REMARK INTER + INTRA:          -8.078
REMARK INTER:                  -7.344
REMARK INTRA:                  -0.734
REMARK UNBOUND:                -0.998
REMARK  Name = 
REMARK  5 active torsions:
REMARK  status: ('A' for Active; 'I' for Inactive)
REMARK    1  A    between atoms: C_1  and  C_2
REMARK    2  A    between atoms: C_2  and  C_3
REMARK    3  A    between atoms: C_12  and  N_13
REMARK    4  A    between atoms: N_13  and  C_14
REMARK    5  A    between atoms: C_17  and  C_18
REMARK                            x       y       z     vdW  Elec       q    Type
REMARK                         _______ _______ _______ _____ _____    ______ ____
ROOT
ATOM      1  N   UNL     1      48.455   6.350  12.945  0.00  0.00    +0.000 N 
ATOM      2  H   UNL     1      49.077   5.607  12.639  0.00  0.00    +0.000 HD
ENDROOT
BRANCH   1   3
ATOM      3  C   UNL     1      47.100   6.163  12.602  0.00  0.00    +0.000 A 
ATOM      4  C   UNL     1      46.585   6.517  11.358  0.00  0.00    +0.000 A 
ATOM      5  C   UNL     1      45.282   6.163  11.016  0.00  0.00    +0.000 A 
ATOM      6  C   UNL     1      44.503   5.515  11.965  0.00  0.00    +0.000 A 
ATOM      7  N   UNL     1      44.923   5.242  13.229  0.00  0.00    +0.000 NA
ATOM      8  C   UNL     1      46.204   5.588  13.509  0.00  0.00    +0.000 A 
BRANCH   6   9
ATOM      9  C   UNL     1      43.125   5.049  11.595  0.00  0.00    +0.000 C 
ATOM     10  N   UNL     1      42.128   5.978  11.727  0.00  0.00    +0.000 N 
ATOM     11  O   UNL     1      42.894   3.912  11.206  0.00  0.00    +0.000 OA
ATOM     12  H   UNL     1      42.355   6.911  12.055  0.00  0.00    +0.000 HD
ATOM     13  H   UNL     1      41.185   5.724  11.499  0.00  0.00    +0.000 HD
ENDBRANCH   6   9
ENDBRANCH   1   3
BRANCH   1  18
ATOM     14  C   UNL     1      50.799   8.506  14.932  0.00  0.00    +0.000 C 
ATOM     15  C   UNL     1      49.458   7.724  14.931  0.00  0.00    +0.000 C 
ATOM     16  C   UNL     1      48.227   8.665  15.076  0.00  0.00    +0.000 C 
ATOM     17  C   UNL     1      48.075   8.708  13.549  0.00  0.00    +0.000 C 
ATOM     18  C   UNL     1      49.091   7.550  13.406  0.00  0.00    +0.000 C 
BRANCH  15  19
ATOM     19  C   UNL     1      49.543   6.499  16.017  0.00  0.00    +0.000 A 
ATOM     20  C   UNL     1      50.761   6.139  16.648  0.00  0.00    +0.000 A 
ATOM     21  C   UNL     1      50.908   4.977  17.415  0.00  0.00    +0.000 A 
ATOM     22  C   UNL     1      49.818   4.148  17.602  0.00  0.00    +0.000 A 
ATOM     23  F   UNL     1      49.966   2.990  18.257  0.00  0.00    +0.000 F 
ATOM     24  C   UNL     1      48.574   4.520  17.132  0.00  0.00    +0.000 A 
ATOM     25  C   UNL     1      48.441   5.708  16.400  0.00  0.00    +0.000 A 
ENDBRANCH  15  19
ENDBRANCH   1  18
TORSDOF 4
ENDMDL
