MODEL 1
REMARK VINA RESULT:    -6.529      0.000      0.000
REMARK INTER + INTRA:          -9.705
REMARK INTER:                  -8.820
REMARK INTRA:                  -0.886
REMARK UNBOUND:                -0.886
REMARK  Name = 
REMARK  6 active torsions:
REMARK  status: ('A' for Active; 'I' for Inactive)
REMARK    1  A    between atoms: C_2  and  C_19
REMARK    2  A    between atoms: N_3  and  C_4
REMARK    3  A    between atoms: C_4  and  C_5
REMARK    4  A    between atoms: C_8  and  C_9
REMARK    5  A    between atoms: C_10  and  C_11
REMARK    6  A    between atoms: C_11  and  N_12
REMARK                            x       y       z     vdW  Elec       q    Type
REMARK                         _______ _______ _______ _____ _____    ______ ____
ROOT
ATOM      1  O   UNL     1      44.739   7.769  11.297  0.00  0.00    +0.000 OA
ATOM      2  C   UNL     1      45.144   6.845  11.998  0.00  0.00    +0.000 C 
ATOM      3  N   UNL     1      46.052   7.032  13.007  0.00  0.00    +0.000 N 
ATOM      4  H   UNL     1      46.480   6.220  13.440  0.00  0.00    +0.000 HD
ENDROOT
BRANCH   2   5
ATOM      5  C   UNL     1      44.643   5.475  11.827  0.00  0.00    +0.000 A 
ATOM      6  C   UNL     1      43.924   4.872  12.851  0.00  0.00    +0.000 A 
ATOM      7  S   UNL     1      43.427   3.281  12.491  0.00  0.00    +0.000 S 
ATOM      8  C   UNL     1      44.116   3.358  10.936  0.00  0.00    +0.000 A 
ATOM      9  N   UNL     1      44.016   2.310  10.074  0.00  0.00    +0.000 NA
ATOM     10  C   UNL     1      44.539   2.524   8.913  0.00  0.00    +0.000 A 
ATOM     11  N   UNL     1      45.168   3.685   8.541  0.00  0.00    +0.000 N 
ATOM     12  C   UNL     1      45.367   4.733   9.407  0.00  0.00    +0.000 A 
ATOM     13  O   UNL     1      46.060   5.695   9.092  0.00  0.00    +0.000 OA
ATOM     14  C   UNL     1      44.745   4.569  10.706  0.00  0.00    +0.000 A 
ATOM     15  H   UNL     1      45.589   3.774   7.628  0.00  0.00    +0.000 HD
ENDBRANCH   2   5
BRANCH   3  16
ATOM     16  C   UNL     1      46.700   8.296  13.245  0.00  0.00    +0.000 C 
BRANCH  16  17
ATOM     17  C   UNL     1      48.047   8.353  12.587  0.00  0.00    +0.000 A 
ATOM     18  C   UNL     1      48.524   9.523  11.993  0.00  0.00    +0.000 A 
ATOM     19  C   UNL     1      49.784   9.533  11.397  0.00  0.00    +0.000 A 
ATOM     20  C   UNL     1      50.542   8.360  11.397  0.00  0.00    +0.000 A 
ATOM     21  N   UNL     1      50.086   7.212  11.945  0.00  0.00    +0.000 NA
ATOM     22  C   UNL     1      48.859   7.229  12.514  0.00  0.00    +0.000 A 
BRANCH  20  23
ATOM     23  C   UNL     1      51.889   8.340  10.806  0.00  0.00    +0.000 C 
ATOM     24  C   UNL     1      52.282   7.447   9.880  0.00  0.00    +0.000 C 
BRANCH  24  25
ATOM     25  C   UNL     1      53.653   7.387   9.272  0.00  0.00    +0.000 C 
BRANCH  25  26
ATOM     26  N   UNL     1      53.615   7.616   7.824  0.00  0.00    +0.000 NA
ATOM     27  C   UNL     1      54.681   6.910   7.103  0.00  0.00    +0.000 C 
ATOM     28  C   UNL     1      54.111   5.542   6.774  0.00  0.00    +0.000 C 
ATOM     29  O   UNL     1      52.690   5.648   6.907  0.00  0.00    +0.000 OA
ATOM     30  C   UNL     1      52.417   7.006   7.247  0.00  0.00    +0.000 C 
ENDBRANCH  25  26
ENDBRANCH  24  25
ENDBRANCH  20  23
ENDBRANCH  16  17
ENDBRANCH   3  16
TORSDOF 6
ENDMDL
MODEL 2
REMARK VINA RESULT:    -6.488      7.128     10.106
REMARK INTER + INTRA:          -9.649
REMARK INTER:                  -8.804
REMARK INTRA:                  -0.845
REMARK UNBOUND:                -0.886
REMARK  Name = 
REMARK  6 active torsions:
REMARK  status: ('A' for Active; 'I' for Inactive)
REMARK    1  A    between atoms: C_2  and  C_19
REMARK    2  A    between atoms: N_3  and  C_4
REMARK    3  A    between atoms: C_4  and  C_5
REMARK    4  A    between atoms: C_8  and  C_9
REMARK    5  A    between atoms: C_10  and  C_11
REMARK    6  A    between atoms: C_11  and  N_12
REMARK                            x       y       z     vdW  Elec       q    Type
REMARK                         _______ _______ _______ _____ _____    ______ ____
ROOT
ATOM      1  O   UNL     1      51.652   5.785  18.495  0.00  0.00    +0.000 OA
ATOM      2  C   UNL     1      51.516   4.599  18.783  0.00  0.00    +0.000 C 
ATOM      3  N   UNL     1      50.285   4.013  18.920  0.00  0.00    +0.000 N 
ATOM      4  H   UNL     1      50.225   3.083  19.322  0.00  0.00    +0.000 HD
ENDROOT
BRANCH   2   5
ATOM      5  C   UNL     1      52.675   3.713  18.953  0.00  0.00    +0.000 A 
ATOM      6  C   UNL     1      53.737   4.114  19.753  0.00  0.00    +0.000 A 
ATOM      7  S   UNL     1      55.001   2.972  19.833  0.00  0.00    +0.000 S 
ATOM      8  C   UNL     1      54.154   1.881  18.838  0.00  0.00    +0.000 A 
ATOM      9  N   UNL     1      54.675   0.663  18.531  0.00  0.00    +0.000 NA
ATOM     10  C   UNL     1      53.904  -0.081  17.810  0.00  0.00    +0.000 A 
ATOM     11  N   UNL     1      52.666   0.289  17.354  0.00  0.00    +0.000 N 
ATOM     12  C   UNL     1      52.138   1.540  17.567  0.00  0.00    +0.000 A 
ATOM     13  O   UNL     1      51.095   1.891  17.023  0.00  0.00    +0.000 OA
ATOM     14  C   UNL     1      52.937   2.395  18.423  0.00  0.00    +0.000 A 
ATOM     15  H   UNL     1      52.128  -0.327  16.763  0.00  0.00    +0.000 HD
ENDBRANCH   2   5
BRANCH   3  16
ATOM     16  C   UNL     1      49.057   4.763  18.868  0.00  0.00    +0.000 C 
BRANCH  16  17
ATOM     17  C   UNL     1      48.473   4.762  17.486  0.00  0.00    +0.000 A 
ATOM     18  C   UNL     1      47.612   3.751  17.055  0.00  0.00    +0.000 A 
ATOM     19  C   UNL     1      47.089   3.793  15.763  0.00  0.00    +0.000 A 
ATOM     20  C   UNL     1      47.449   4.846  14.920  0.00  0.00    +0.000 A 
ATOM     21  N   UNL     1      48.300   5.820  15.313  0.00  0.00    +0.000 NA
ATOM     22  C   UNL     1      48.796   5.754  16.570  0.00  0.00    +0.000 A 
BRANCH  20  23
ATOM     23  C   UNL     1      46.891   4.941  13.563  0.00  0.00    +0.000 C 
ATOM     24  C   UNL     1      45.709   5.519  13.282  0.00  0.00    +0.000 C 
BRANCH  24  25
ATOM     25  C   UNL     1      45.103   5.616  11.913  0.00  0.00    +0.000 C 
BRANCH  25  26
ATOM     26  N   UNL     1      43.678   5.266  11.924  0.00  0.00    +0.000 NA
ATOM     27  C   UNL     1      43.317   4.300  10.881  0.00  0.00    +0.000 C 
ATOM     28  C   UNL     1      43.529   2.931  11.504  0.00  0.00    +0.000 C 
ATOM     29  O   UNL     1      43.571   3.129  12.921  0.00  0.00    +0.000 OA
ATOM     30  C   UNL     1      43.351   4.521  13.139  0.00  0.00    +0.000 C 
ENDBRANCH  25  26
ENDBRANCH  24  25
ENDBRANCH  20  23
ENDBRANCH  16  17
ENDBRANCH   3  16
TORSDOF 6
ENDMDL
MODEL 3
REMARK VINA RESULT:    -6.180      4.476      5.900
REMARK INTER + INTRA:          -9.233
REMARK INTER:                  -8.330
REMARK INTRA:                  -0.903
REMARK UNBOUND:                -0.886
REMARK  Name = 
REMARK  6 active torsions:
REMARK  status: ('A' for Active; 'I' for Inactive)
REMARK    1  A    between atoms: C_2  and  C_19
REMARK    2  A    between atoms: N_3  and  C_4
REMARK    3  A    between atoms: C_4  and  C_5
REMARK    4  A    between atoms: C_8  and  C_9
REMARK    5  A    between atoms: C_10  and  C_11
REMARK    6  A    between atoms: C_11  and  N_12
REMARK                            x       y       z     vdW  Elec       q    Type
REMARK                         _______ _______ _______ _____ _____    ______ ____
ROOT
ATOM      1  O   UNL     1      44.802   7.305  12.108  0.00  0.00    +0.000 OA
ATOM      2  C   UNL     1      45.498   6.349  11.779  0.00  0.00    +0.000 C 
ATOM      3  N   UNL     1      46.867   6.413  11.751  0.00  0.00    +0.000 N 
ATOM      4  H   UNL     1      47.386   5.659  11.312  0.00  0.00    +0.000 HD
ENDROOT
BRANCH   2   5
ATOM      5  C   UNL     1      44.906   5.051  11.434  0.00  0.00    +0.000 A 
ATOM      6  C   UNL     1      44.137   4.373  12.372  0.00  0.00    +0.000 A 
ATOM      7  S   UNL     1      43.537   2.879  11.811  0.00  0.00    +0.000 S 
ATOM      8  C   UNL     1      44.245   3.105  10.280  0.00  0.00    +0.000 A 
ATOM      9  N   UNL     1      44.082   2.186   9.291  0.00  0.00    +0.000 NA
ATOM     10  C   UNL     1      44.631   2.508   8.167  0.00  0.00    +0.000 A 
ATOM     11  N   UNL     1      45.342   3.660   7.948  0.00  0.00    +0.000 N 
ATOM     12  C   UNL     1      45.603   4.574   8.940  0.00  0.00    +0.000 A 
ATOM     13  O   UNL     1      46.363   5.518   8.751  0.00  0.00    +0.000 OA
ATOM     14  C   UNL     1      44.957   4.290  10.207  0.00  0.00    +0.000 A 
ATOM     15  H   UNL     1      45.777   3.836   7.054  0.00  0.00    +0.000 HD
ENDBRANCH   2   5
BRANCH   3  16
ATOM     16  C   UNL     1      47.594   7.636  11.979  0.00  0.00    +0.000 C 
BRANCH  16  17
ATOM     17  C   UNL     1      48.565   7.492  13.112  0.00  0.00    +0.000 A 
ATOM     18  C   UNL     1      49.786   8.170  13.122  0.00  0.00    +0.000 A 
ATOM     19  C   UNL     1      50.658   8.011  14.198  0.00  0.00    +0.000 A 
ATOM     20  C   UNL     1      50.292   7.163  15.245  0.00  0.00    +0.000 A 
ATOM     21  N   UNL     1      49.126   6.480  15.241  0.00  0.00    +0.000 NA
ATOM     22  C   UNL     1      48.300   6.650  14.183  0.00  0.00    +0.000 A 
BRANCH  20  23
ATOM     23  C   UNL     1      51.171   6.995  16.413  0.00  0.00    +0.000 C 
ATOM     24  C   UNL     1      51.358   5.821  17.042  0.00  0.00    +0.000 C 
BRANCH  24  25
ATOM     25  C   UNL     1      52.231   5.619  18.246  0.00  0.00    +0.000 C 
BRANCH  25  26
ATOM     26  N   UNL     1      51.862   4.409  18.988  0.00  0.00    +0.000 NA
ATOM     27  C   UNL     1      51.653   3.245  18.120  0.00  0.00    +0.000 C 
ATOM     28  C   UNL     1      53.017   2.592  17.982  0.00  0.00    +0.000 C 
ATOM     29  O   UNL     1      53.823   3.097  19.052  0.00  0.00    +0.000 OA
ATOM     30  C   UNL     1      52.983   3.962  19.814  0.00  0.00    +0.000 C 
ENDBRANCH  25  26
ENDBRANCH  24  25
ENDBRANCH  20  23
ENDBRANCH  16  17
ENDBRANCH   3  16
TORSDOF 6
ENDMDL
MODEL 4
REMARK VINA RESULT:    -6.123      4.810      6.290
REMARK INTER + INTRA:          -9.157
REMARK INTER:                  -8.403
REMARK INTRA:                  -0.754
REMARK UNBOUND:                -0.886
REMARK  Name = 
REMARK  6 active torsions:
REMARK  status: ('A' for Active; 'I' for Inactive)
REMARK    1  A    between atoms: C_2  and  C_19
REMARK    2  A    between atoms: N_3  and  C_4
REMARK    3  A    between atoms: C_4  and  C_5
REMARK    4  A    between atoms: C_8  and  C_9
REMARK    5  A    between atoms: C_10  and  C_11
REMARK    6  A    between atoms: C_11  and  N_12
REMARK                            x       y       z     vdW  Elec       q    Type
REMARK                         _______ _______ _______ _____ _____    ______ ____
ROOT
ATOM      1  O   UNL     1      45.437   8.008  11.512  0.00  0.00    +0.000 OA
ATOM      2  C   UNL     1      46.110   6.994  11.349  0.00  0.00    +0.000 C 
ATOM      3  N   UNL     1      47.417   6.908  11.755  0.00  0.00    +0.000 N 
ATOM      4  H   UNL     1      47.976   6.119  11.447  0.00  0.00    +0.000 HD
ENDROOT
BRANCH   2   5
ATOM      5  C   UNL     1      45.541   5.783  10.746  0.00  0.00    +0.000 A 
ATOM      6  C   UNL     1      45.790   5.495   9.410  0.00  0.00    +0.000 A 
ATOM      7  S   UNL     1      45.046   4.060   8.870  0.00  0.00    +0.000 S 
ATOM      8  C   UNL     1      44.401   3.747  10.414  0.00  0.00    +0.000 A 
ATOM      9  N   UNL     1      43.667   2.626  10.652  0.00  0.00    +0.000 NA
ATOM     10  C   UNL     1      43.283   2.491  11.877  0.00  0.00    +0.000 A 
ATOM     11  N   UNL     1      43.553   3.384  12.883  0.00  0.00    +0.000 N 
ATOM     12  C   UNL     1      44.215   4.568  12.669  0.00  0.00    +0.000 A 
ATOM     13  O   UNL     1      44.312   5.412  13.555  0.00  0.00    +0.000 OA
ATOM     14  C   UNL     1      44.722   4.741  11.321  0.00  0.00    +0.000 A 
ATOM     15  H   UNL     1      43.192   3.236  13.814  0.00  0.00    +0.000 HD
ENDBRANCH   2   5
BRANCH   3  16
ATOM     16  C   UNL     1      48.142   8.034  12.284  0.00  0.00    +0.000 C 
BRANCH  16  17
ATOM     17  C   UNL     1      48.943   7.649  13.493  0.00  0.00    +0.000 A 
ATOM     18  C   UNL     1      50.188   8.222  13.760  0.00  0.00    +0.000 A 
ATOM     19  C   UNL     1      50.897   7.839  14.898  0.00  0.00    +0.000 A 
ATOM     20  C   UNL     1      50.346   6.875  15.745  0.00  0.00    +0.000 A 
ATOM     21  N   UNL     1      49.154   6.292  15.489  0.00  0.00    +0.000 NA
ATOM     22  C   UNL     1      48.489   6.680  14.377  0.00  0.00    +0.000 A 
BRANCH  20  23
ATOM     23  C   UNL     1      51.049   6.470  16.972  0.00  0.00    +0.000 C 
ATOM     24  C   UNL     1      52.191   5.758  16.975  0.00  0.00    +0.000 C 
BRANCH  24  25
ATOM     25  C   UNL     1      52.922   5.312  18.207  0.00  0.00    +0.000 C 
BRANCH  25  26
ATOM     26  N   UNL     1      52.222   4.217  18.887  0.00  0.00    +0.000 NA
ATOM     27  C   UNL     1      51.921   3.089  17.999  0.00  0.00    +0.000 C 
ATOM     28  C   UNL     1      53.139   2.183  18.066  0.00  0.00    +0.000 C 
ATOM     29  O   UNL     1      53.862   2.557  19.243  0.00  0.00    +0.000 OA
ATOM     30  C   UNL     1      53.103   3.589  19.872  0.00  0.00    +0.000 C 
ENDBRANCH  25  26
ENDBRANCH  24  25
ENDBRANCH  20  23
ENDBRANCH  16  17
ENDBRANCH   3  16
TORSDOF 6
ENDMDL
MODEL 5
REMARK VINA RESULT:    -5.310      2.277      2.760
REMARK INTER + INTRA:          -8.059
REMARK INTER:                  -7.825
REMARK INTRA:                  -0.234
REMARK UNBOUND:                -0.886
REMARK  Name = 
REMARK  6 active torsions:
REMARK  status: ('A' for Active; 'I' for Inactive)
REMARK    1  A    between atoms: C_2  and  C_19
REMARK    2  A    between atoms: N_3  and  C_4
REMARK    3  A    between atoms: C_4  and  C_5
REMARK    4  A    between atoms: C_8  and  C_9
REMARK    5  A    between atoms: C_10  and  C_11
REMARK    6  A    between atoms: C_11  and  N_12
REMARK                            x       y       z     vdW  Elec       q    Type
REMARK                         _______ _______ _______ _____ _____    ______ ____
ROOT
ATOM      1  O   UNL     1      47.736   5.570  14.291  0.00  0.00    +0.000 OA
ATOM      2  C   UNL     1      47.293   6.361  13.464  0.00  0.00    +0.000 C 
ATOM      3  N   UNL     1      47.965   7.501  13.106  0.00  0.00    +0.000 N 
ATOM      4  H   UNL     1      47.483   8.202  12.551  0.00  0.00    +0.000 HD
ENDROOT
BRANCH   2   5
ATOM      5  C   UNL     1      46.026   6.113  12.765  0.00  0.00    +0.000 A 
ATOM      6  C   UNL     1      45.316   7.177  12.224  0.00  0.00    +0.000 A 
ATOM      7  S   UNL     1      43.866   6.712  11.458  0.00  0.00    +0.000 S 
ATOM      8  C   UNL     1      44.157   5.067  11.782  0.00  0.00    +0.000 A 
ATOM      9  N   UNL     1      43.293   4.106  11.356  0.00  0.00    +0.000 NA
ATOM     10  C   UNL     1      43.662   2.898  11.626  0.00  0.00    +0.000 A 
ATOM     11  N   UNL     1      44.810   2.565  12.299  0.00  0.00    +0.000 N 
ATOM     12  C   UNL     1      45.665   3.505  12.822  0.00  0.00    +0.000 A 
ATOM     13  O   UNL     1      46.603   3.180  13.543  0.00  0.00    +0.000 OA
ATOM     14  C   UNL     1      45.328   4.877  12.493  0.00  0.00    +0.000 A 
ATOM     15  H   UNL     1      45.023   1.601  12.510  0.00  0.00    +0.000 HD
ENDBRANCH   2   5
BRANCH   3  16
ATOM     16  C   UNL     1      49.174   7.929  13.759  0.00  0.00    +0.000 C 
BRANCH  16  17
ATOM     17  C   UNL     1      50.322   8.001  12.796  0.00  0.00    +0.000 A 
ATOM     18  C   UNL     1      51.512   8.653  13.121  0.00  0.00    +0.000 A 
ATOM     19  C   UNL     1      52.555   8.692  12.196  0.00  0.00    +0.000 A 
ATOM     20  C   UNL     1      52.380   8.082  10.952  0.00  0.00    +0.000 A 
ATOM     21  N   UNL     1      51.225   7.467  10.612  0.00  0.00    +0.000 NA
ATOM     22  C   UNL     1      50.228   7.447  11.526  0.00  0.00    +0.000 A 
BRANCH  20  23
ATOM     23  C   UNL     1      53.469   8.074   9.964  0.00  0.00    +0.000 C 
ATOM     24  C   UNL     1      53.431   7.366   8.820  0.00  0.00    +0.000 C 
BRANCH  24  25
ATOM     25  C   UNL     1      54.531   7.320   7.801  0.00  0.00    +0.000 C 
BRANCH  25  26
ATOM     26  N   UNL     1      55.140   5.988   7.718  0.00  0.00    +0.000 NA
ATOM     27  C   UNL     1      54.167   4.902   7.879  0.00  0.00    +0.000 C 
ATOM     28  C   UNL     1      53.645   4.613   6.483  0.00  0.00    +0.000 C 
ATOM     29  O   UNL     1      54.585   5.185   5.568  0.00  0.00    +0.000 OA
ATOM     30  C   UNL     1      55.632   5.741   6.362  0.00  0.00    +0.000 C 
ENDBRANCH  25  26
ENDBRANCH  24  25
ENDBRANCH  20  23
ENDBRANCH  16  17
ENDBRANCH   3  16
TORSDOF 6
ENDMDL
MODEL 6
REMARK VINA RESULT:    -5.151      5.377      8.840
REMARK INTER + INTRA:          -7.843
REMARK INTER:                  -6.972
REMARK INTRA:                  -0.871
REMARK UNBOUND:                -0.886
REMARK  Name = 
REMARK  6 active torsions:
REMARK  status: ('A' for Active; 'I' for Inactive)
REMARK    1  A    between atoms: C_2  and  C_19
REMARK    2  A    between atoms: N_3  and  C_4
REMARK    3  A    between atoms: C_4  and  C_5
REMARK    4  A    between atoms: C_8  and  C_9
REMARK    5  A    between atoms: C_10  and  C_11
REMARK    6  A    between atoms: C_11  and  N_12
REMARK                            x       y       z     vdW  Elec       q    Type
REMARK                         _______ _______ _______ _____ _____    ______ ____
ROOT
ATOM      1  O   UNL     1      50.867   8.093  17.531  0.00  0.00    +0.000 OA
ATOM      2  C   UNL     1      51.693   7.644  16.741  0.00  0.00    +0.000 C 
ATOM      3  N   UNL     1      51.878   8.175  15.492  0.00  0.00    +0.000 N 
ATOM      4  H   UNL     1      52.445   7.667  14.821  0.00  0.00    +0.000 HD
ENDROOT
BRANCH   2   5
ATOM      5  C   UNL     1      52.575   6.528  17.105  0.00  0.00    +0.000 A 
ATOM      6  C   UNL     1      53.938   6.747  17.256  0.00  0.00    +0.000 A 
ATOM      7  S   UNL     1      54.814   5.344  17.669  0.00  0.00    +0.000 S 
ATOM      8  C   UNL     1      53.397   4.402  17.706  0.00  0.00    +0.000 A 
ATOM      9  N   UNL     1      53.442   3.082  18.034  0.00  0.00    +0.000 NA
ATOM     10  C   UNL     1      52.288   2.503  18.071  0.00  0.00    +0.000 A 
ATOM     11  N   UNL     1      51.095   3.120  17.794  0.00  0.00    +0.000 N 
ATOM     12  C   UNL     1      51.012   4.425  17.375  0.00  0.00    +0.000 A 
ATOM     13  O   UNL     1      49.949   4.905  16.994  0.00  0.00    +0.000 OA
ATOM     14  C   UNL     1      52.274   5.141  17.375  0.00  0.00    +0.000 A 
ATOM     15  H   UNL     1      50.230   2.599  17.806  0.00  0.00    +0.000 HD
ENDBRANCH   2   5
BRANCH   3  16
ATOM     16  C   UNL     1      51.037   9.213  14.955  0.00  0.00    +0.000 C 
BRANCH  16  17
ATOM     17  C   UNL     1      49.915   8.642  14.139  0.00  0.00    +0.000 A 
ATOM     18  C   UNL     1      48.579   8.909  14.441  0.00  0.00    +0.000 A 
ATOM     19  C   UNL     1      47.568   8.361  13.652  0.00  0.00    +0.000 A 
ATOM     20  C   UNL     1      47.918   7.543  12.576  0.00  0.00    +0.000 A 
ATOM     21  N   UNL     1      49.206   7.255  12.284  0.00  0.00    +0.000 NA
ATOM     22  C   UNL     1      50.166   7.797  13.067  0.00  0.00    +0.000 A 
BRANCH  20  23
ATOM     23  C   UNL     1      46.881   6.974  11.702  0.00  0.00    +0.000 C 
ATOM     24  C   UNL     1      45.840   6.251  12.154  0.00  0.00    +0.000 C 
BRANCH  24  25
ATOM     25  C   UNL     1      44.777   5.641  11.289  0.00  0.00    +0.000 C 
BRANCH  25  26
ATOM     26  N   UNL     1      45.066   4.235  10.984  0.00  0.00    +0.000 NA
ATOM     27  C   UNL     1      45.119   3.388  12.180  0.00  0.00    +0.000 C 
ATOM     28  C   UNL     1      43.694   2.914  12.406  0.00  0.00    +0.000 C 
ATOM     29  O   UNL     1      42.994   3.120  11.174  0.00  0.00    +0.000 OA
ATOM     30  C   UNL     1      43.950   3.638  10.251  0.00  0.00    +0.000 C 
ENDBRANCH  25  26
ENDBRANCH  24  25
ENDBRANCH  20  23
ENDBRANCH  16  17
ENDBRANCH   3  16
TORSDOF 6
ENDMDL
MODEL 7
REMARK VINA RESULT:    -4.824      5.154      8.792
REMARK INTER + INTRA:          -7.402
REMARK INTER:                  -6.374
REMARK INTRA:                  -1.028
REMARK UNBOUND:                -0.886
REMARK  Name = 
REMARK  6 active torsions:
REMARK  status: ('A' for Active; 'I' for Inactive)
REMARK    1  A    between atoms: C_2  and  C_19
REMARK    2  A    between atoms: N_3  and  C_4
REMARK    3  A    between atoms: C_4  and  C_5
REMARK    4  A    between atoms: C_8  and  C_9
REMARK    5  A    between atoms: C_10  and  C_11
REMARK    6  A    between atoms: C_11  and  N_12
REMARK                            x       y       z     vdW  Elec       q    Type
REMARK                         _______ _______ _______ _____ _____    ______ ____
ROOT
ATOM      1  O   UNL     1      51.542   8.941  15.278  0.00  0.00    +0.000 OA
ATOM      2  C   UNL     1      50.703   9.103  16.160  0.00  0.00    +0.000 C 
ATOM      3  N   UNL     1      49.485   9.682  15.916  0.00  0.00    +0.000 N 
ATOM      4  H   UNL     1      48.901   9.947  16.703  0.00  0.00    +0.000 HD
ENDROOT
BRANCH   2   5
ATOM      5  C   UNL     1      50.935   8.641  17.534  0.00  0.00    +0.000 A 
ATOM      6  C   UNL     1      51.937   9.225  18.298  0.00  0.00    +0.000 A 
ATOM      7  S   UNL     1      52.075   8.563  19.863  0.00  0.00    +0.000 S 
ATOM      8  C   UNL     1      50.771   7.504  19.592  0.00  0.00    +0.000 A 
ATOM      9  N   UNL     1      50.339   6.661  20.569  0.00  0.00    +0.000 NA
ATOM     10  C   UNL     1      49.311   5.951  20.243  0.00  0.00    +0.000 A 
ATOM     11  N   UNL     1      48.686   5.995  19.023  0.00  0.00    +0.000 N 
ATOM     12  C   UNL     1      49.141   6.766  17.982  0.00  0.00    +0.000 A 
ATOM     13  O   UNL     1      48.651   6.673  16.860  0.00  0.00    +0.000 OA
ATOM     14  C   UNL     1      50.257   7.630  18.313  0.00  0.00    +0.000 A 
ATOM     15  H   UNL     1      47.907   5.385  18.820  0.00  0.00    +0.000 HD
ENDBRANCH   2   5
BRANCH   3  16
ATOM     16  C   UNL     1      49.141  10.263  14.644  0.00  0.00    +0.000 C 
BRANCH  16  17
ATOM     17  C   UNL     1      48.455   9.267  13.756  0.00  0.00    +0.000 A 
ATOM     18  C   UNL     1      47.123   8.901  13.957  0.00  0.00    +0.000 A 
ATOM     19  C   UNL     1      46.523   7.975  13.104  0.00  0.00    +0.000 A 
ATOM     20  C   UNL     1      47.277   7.423  12.067  0.00  0.00    +0.000 A 
ATOM     21  N   UNL     1      48.575   7.747  11.873  0.00  0.00    +0.000 NA
ATOM     22  C   UNL     1      49.133   8.645  12.717  0.00  0.00    +0.000 A 
BRANCH  20  23
ATOM     23  C   UNL     1      46.670   6.468  11.128  0.00  0.00    +0.000 C 
ATOM     24  C   UNL     1      45.441   5.944  11.289  0.00  0.00    +0.000 C 
BRANCH  24  25
ATOM     25  C   UNL     1      44.800   4.954  10.362  0.00  0.00    +0.000 C 
BRANCH  25  26
ATOM     26  N   UNL     1      45.126   3.572  10.733  0.00  0.00    +0.000 NA
ATOM     27  C   UNL     1      45.116   3.350  12.182  0.00  0.00    +0.000 C 
ATOM     28  C   UNL     1      43.686   2.972  12.526  0.00  0.00    +0.000 C 
ATOM     29  O   UNL     1      43.061   2.578  11.300  0.00  0.00    +0.000 OA
ATOM     30  C   UNL     1      44.065   2.667  10.290  0.00  0.00    +0.000 C 
ENDBRANCH  25  26
ENDBRANCH  24  25
ENDBRANCH  20  23
ENDBRANCH  16  17
ENDBRANCH   3  16
TORSDOF 6
ENDMDL
MODEL 8
REMARK VINA RESULT:    -4.671     13.081     14.314
REMARK INTER + INTRA:          -7.195
REMARK INTER:                  -6.598
REMARK INTRA:                  -0.598
REMARK UNBOUND:                -0.886
REMARK  Name = 
REMARK  6 active torsions:
REMARK  status: ('A' for Active; 'I' for Inactive)
REMARK    1  A    between atoms: C_2  and  C_19
REMARK    2  A    between atoms: N_3  and  C_4
REMARK    3  A    between atoms: C_4  and  C_5
REMARK    4  A    between atoms: C_8  and  C_9
REMARK    5  A    between atoms: C_10  and  C_11
REMARK    6  A    between atoms: C_11  and  N_12
REMARK                            x       y       z     vdW  Elec       q    Type
REMARK                         _______ _______ _______ _____ _____    ______ ____
ROOT
ATOM      1  O   UNL     1      37.694  -0.575  15.762  0.00  0.00    +0.000 OA
ATOM      2  C   UNL     1      38.614  -0.507  16.571  0.00  0.00    +0.000 C 
ATOM      3  N   UNL     1      39.807  -1.155  16.382  0.00  0.00    +0.000 N 
ATOM      4  H   UNL     1      40.466  -1.206  17.152  0.00  0.00    +0.000 HD
ENDROOT
BRANCH   2   5
ATOM      5  C   UNL     1      38.513   0.318  17.782  0.00  0.00    +0.000 A 
ATOM      6  C   UNL     1      38.820  -0.233  19.019  0.00  0.00    +0.000 A 
ATOM      7  S   UNL     1      38.640   0.857  20.317  0.00  0.00    +0.000 S 
ATOM      8  C   UNL     1      38.188   2.119  19.267  0.00  0.00    +0.000 A 
ATOM      9  N   UNL     1      37.919   3.364  19.744  0.00  0.00    +0.000 NA
ATOM     10  C   UNL     1      37.639   4.235  18.833  0.00  0.00    +0.000 A 
ATOM     11  N   UNL     1      37.586   3.969  17.489  0.00  0.00    +0.000 N 
ATOM     12  C   UNL     1      37.765   2.709  16.972  0.00  0.00    +0.000 A 
ATOM     13  O   UNL     1      37.568   2.475  15.784  0.00  0.00    +0.000 OA
ATOM     14  C   UNL     1      38.144   1.705  17.947  0.00  0.00    +0.000 A 
ATOM     15  H   UNL     1      37.325   4.689  16.830  0.00  0.00    +0.000 HD
ENDBRANCH   2   5
BRANCH   3  16
ATOM     16  C   UNL     1      40.032  -2.067  15.291  0.00  0.00    +0.000 C 
BRANCH  16  17
ATOM     17  C   UNL     1      40.901  -3.216  15.708  0.00  0.00    +0.000 A 
ATOM     18  C   UNL     1      41.580  -3.216  16.927  0.00  0.00    +0.000 A 
ATOM     19  C   UNL     1      42.374  -4.308  17.278  0.00  0.00    +0.000 A 
ATOM     20  C   UNL     1      42.481  -5.379  16.389  0.00  0.00    +0.000 A 
ATOM     21  N   UNL     1      41.850  -5.385  15.193  0.00  0.00    +0.000 NA
ATOM     22  C   UNL     1      41.090  -4.312  14.877  0.00  0.00    +0.000 A 
BRANCH  20  23
ATOM     23  C   UNL     1      43.283  -6.562  16.737  0.00  0.00    +0.000 C 
ATOM     24  C   UNL     1      44.542  -6.496  17.207  0.00  0.00    +0.000 C 
BRANCH  24  25
ATOM     25  C   UNL     1      45.394  -7.682  17.554  0.00  0.00    +0.000 C 
BRANCH  25  26
ATOM     26  N   UNL     1      46.752  -7.282  17.939  0.00  0.00    +0.000 NA
ATOM     27  C   UNL     1      47.759  -8.302  17.630  0.00  0.00    +0.000 C 
ATOM     28  C   UNL     1      48.211  -8.010  16.210  0.00  0.00    +0.000 C 
ATOM     29  O   UNL     1      47.813  -6.666  15.922  0.00  0.00    +0.000 OA
ATOM     30  C   UNL     1      47.203  -6.164  17.109  0.00  0.00    +0.000 C 
ENDBRANCH  25  26
ENDBRANCH  24  25
ENDBRANCH  20  23
ENDBRANCH  16  17
ENDBRANCH   3  16
TORSDOF 6
ENDMDL
MODEL 9
REMARK VINA RESULT:    -4.444     11.544     14.430
REMARK INTER + INTRA:          -6.889
REMARK INTER:                  -5.861
REMARK INTRA:                  -1.028
REMARK UNBOUND:                -0.886
REMARK  Name = 
REMARK  6 active torsions:
REMARK  status: ('A' for Active; 'I' for Inactive)
REMARK    1  A    between atoms: C_2  and  C_19
REMARK    2  A    between atoms: N_3  and  C_4
REMARK    3  A    between atoms: C_4  and  C_5
REMARK    4  A    between atoms: C_8  and  C_9
REMARK    5  A    between atoms: C_10  and  C_11
REMARK    6  A    between atoms: C_11  and  N_12
REMARK                            x       y       z     vdW  Elec       q    Type
REMARK                         _______ _______ _______ _____ _____    ______ ____
ROOT
ATOM      1  O   UNL     1      38.926  -0.416   4.664  0.00  0.00    +0.000 OA
ATOM      2  C   UNL     1      38.374   0.629   4.334  0.00  0.00    +0.000 C 
ATOM      3  N   UNL     1      37.089   0.929   4.703  0.00  0.00    +0.000 N 
ATOM      4  H   UNL     1      36.624   1.719   4.267  0.00  0.00    +0.000 HD
ENDROOT
BRANCH   2   5
ATOM      5  C   UNL     1      39.078   1.656   3.555  0.00  0.00    +0.000 A 
ATOM      6  C   UNL     1      39.607   1.335   2.311  0.00  0.00    +0.000 A 
ATOM      7  S   UNL     1      40.399   2.639   1.549  0.00  0.00    +0.000 S 
ATOM      8  C   UNL     1      40.023   3.691   2.833  0.00  0.00    +0.000 A 
ATOM      9  N   UNL     1      40.390   5.000   2.796  0.00  0.00    +0.000 NA
ATOM     10  C   UNL     1      39.997   5.693   3.812  0.00  0.00    +0.000 A 
ATOM     11  N   UNL     1      39.283   5.192   4.870  0.00  0.00    +0.000 N 
ATOM     12  C   UNL     1      38.965   3.861   4.989  0.00  0.00    +0.000 A 
ATOM     13  O   UNL     1      38.456   3.418   6.014  0.00  0.00    +0.000 OA
ATOM     14  C   UNL     1      39.331   3.048   3.845  0.00  0.00    +0.000 A 
ATOM     15  H   UNL     1      39.037   5.781   5.652  0.00  0.00    +0.000 HD
ENDBRANCH   2   5
BRANCH   3  16
ATOM     16  C   UNL     1      36.240  -0.007   5.393  0.00  0.00    +0.000 C 
BRANCH  16  17
ATOM     17  C   UNL     1      36.255   0.230   6.874  0.00  0.00    +0.000 A 
ATOM     18  C   UNL     1      36.661  -0.760   7.770  0.00  0.00    +0.000 A 
ATOM     19  C   UNL     1      36.664  -0.496   9.140  0.00  0.00    +0.000 A 
ATOM     20  C   UNL     1      36.247   0.760   9.587  0.00  0.00    +0.000 A 
ATOM     21  N   UNL     1      35.827   1.721   8.735  0.00  0.00    +0.000 NA
ATOM     22  C   UNL     1      35.831   1.437   7.413  0.00  0.00    +0.000 A 
BRANCH  20  23
ATOM     23  C   UNL     1      36.267   1.087  11.021  0.00  0.00    +0.000 C 
ATOM     24  C   UNL     1      36.991   0.407  11.929  0.00  0.00    +0.000 C 
BRANCH  24  25
ATOM     25  C   UNL     1      37.019   0.702  13.401  0.00  0.00    +0.000 C 
BRANCH  25  26
ATOM     26  N   UNL     1      36.733  -0.494  14.200  0.00  0.00    +0.000 NA
ATOM     27  C   UNL     1      37.255  -1.725  13.596  0.00  0.00    +0.000 C 
ATOM     28  C   UNL     1      38.672  -1.867  14.124  0.00  0.00    +0.000 C 
ATOM     29  O   UNL     1      38.766  -1.023  15.277  0.00  0.00    +0.000 OA
ATOM     30  C   UNL     1      37.473  -0.449  15.460  0.00  0.00    +0.000 C 
ENDBRANCH  25  26
ENDBRANCH  24  25
ENDBRANCH  20  23
ENDBRANCH  16  17
ENDBRANCH   3  16
TORSDOF 6
ENDMDL
