MODEL 1
REMARK VINA RESULT:    -6.151      0.000      0.000
REMARK INTER + INTRA:          -8.167
REMARK INTER:                  -7.769
REMARK INTRA:                  -0.397
REMARK UNBOUND:                -0.397
REMARK  Name = 
REMARK  5 active torsions:
REMARK  status: ('A' for Active; 'I' for Inactive)
REMARK    1  A    between atoms: N_1  and  C_2
REMARK    2  A    between atoms: C_2  and  C_3
REMARK    3  A    between atoms: C_3  and  C_4
REMARK    4  A    between atoms: C_7  and  C_8
REMARK    5  A    between atoms: C_9  and  C_10
REMARK                            x       y       z     vdW  Elec       q    Type
REMARK                         _______ _______ _______ _____ _____    ______ ____
ROOT
ATOM      1  C   UNL     1      45.025   4.213   9.864  0.00  0.00    +0.000 A 
ATOM      2  C   UNL     1      45.510   5.445  10.294  0.00  0.00    +0.000 A 
ATOM      3  C   UNL     1      45.856   5.657  11.634  0.00  0.00    +0.000 A 
ATOM      4  C   UNL     1      45.721   4.632  12.578  0.00  0.00    +0.000 A 
ATOM      5  C   UNL     1      45.237   3.395  12.148  0.00  0.00    +0.000 A 
ATOM      6  C   UNL     1      44.886   3.181  10.807  0.00  0.00    +0.000 A 
ENDROOT
BRANCH   4   7
ATOM      7  C   UNL     1      46.139   4.778  13.983  0.00  0.00    +0.000 C 
ATOM      8  C   UNL     1      47.202   4.167  14.530  0.00  0.00    +0.000 C 
BRANCH   8   9
ATOM      9  C   UNL     1      47.558   4.261  15.952  0.00  0.00    +0.000 A 
ATOM     10  C   UNL     1      47.485   3.151  16.806  0.00  0.00    +0.000 A 
ATOM     11  C   UNL     1      47.922   3.246  18.130  0.00  0.00    +0.000 A 
ATOM     12  C   UNL     1      48.446   4.447  18.596  0.00  0.00    +0.000 A 
ATOM     13 CL   UNL     1      49.009   4.558  20.218  0.00  0.00    +0.000 Cl
ATOM     14  C   UNL     1      48.533   5.558  17.758  0.00  0.00    +0.000 A 
ATOM     15  C   UNL     1      48.089   5.461  16.436  0.00  0.00    +0.000 A 
ENDBRANCH   8   9
ENDBRANCH   4   7
BRANCH   1  16
ATOM     16  C   UNL     1      44.617   4.031   8.419  0.00  0.00    +0.000 C 
BRANCH  16  17
ATOM     17  C   UNL     1      45.670   3.349   7.534  0.00  0.00    +0.000 C 
BRANCH  17  18
ATOM     18  N   UNL     1      46.770   4.266   7.225  0.00  0.00    +0.000 NA
ATOM     19  H   UNL     1      47.239   3.953   6.375  0.00  0.00    +0.000 HD
ATOM     20  H   UNL     1      47.470   4.230   7.964  0.00  0.00    +0.000 HD
ENDBRANCH  17  18
ENDBRANCH  16  17
ENDBRANCH   1  16
TORSDOF 5
ENDMDL
MODEL 2
REMARK VINA RESULT:    -5.510      4.514      8.564
REMARK INTER + INTRA:          -7.357
REMARK INTER:                  -6.912
REMARK INTRA:                  -0.445
REMARK UNBOUND:                -0.397
REMARK  Name = 
REMARK  5 active torsions:
REMARK  status: ('A' for Active; 'I' for Inactive)
REMARK    1  A    between atoms: N_1  and  C_2
REMARK    2  A    between atoms: C_2  and  C_3
REMARK    3  A    between atoms: C_3  and  C_4
REMARK    4  A    between atoms: C_7  and  C_8
REMARK    5  A    between atoms: C_9  and  C_10
REMARK                            x       y       z     vdW  Elec       q    Type
REMARK                         _______ _______ _______ _____ _____    ______ ____
ROOT
ATOM      1  C   UNL     1      48.559   4.491  18.555  0.00  0.00    +0.000 A 
ATOM      2  C   UNL     1      47.901   3.354  18.093  0.00  0.00    +0.000 A 
ATOM      3  C   UNL     1      47.430   3.278  16.776  0.00  0.00    +0.000 A 
ATOM      4  C   UNL     1      47.609   4.348  15.891  0.00  0.00    +0.000 A 
ATOM      5  C   UNL     1      48.270   5.488  16.353  0.00  0.00    +0.000 A 
ATOM      6  C   UNL     1      48.739   5.567  17.673  0.00  0.00    +0.000 A 
ENDROOT
BRANCH   4   7
ATOM      7  C   UNL     1      47.200   4.292  14.477  0.00  0.00    +0.000 C 
ATOM      8  C   UNL     1      46.045   4.778  13.996  0.00  0.00    +0.000 C 
BRANCH   8   9
ATOM      9  C   UNL     1      45.617   4.643  12.598  0.00  0.00    +0.000 A 
ATOM     10  C   UNL     1      45.847   5.655  11.655  0.00  0.00    +0.000 A 
ATOM     11  C   UNL     1      45.517   5.460  10.311  0.00  0.00    +0.000 A 
ATOM     12  C   UNL     1      44.969   4.246   9.907  0.00  0.00    +0.000 A 
ATOM     13 CL   UNL     1      44.585   3.995   8.250  0.00  0.00    +0.000 Cl
ATOM     14  C   UNL     1      44.741   3.227  10.831  0.00  0.00    +0.000 A 
ATOM     15  C   UNL     1      45.067   3.428  12.175  0.00  0.00    +0.000 A 
ENDBRANCH   8   9
ENDBRANCH   4   7
BRANCH   1  16
ATOM     16  C   UNL     1      49.014   4.559  19.996  0.00  0.00    +0.000 C 
BRANCH  16  17
ATOM     17  C   UNL     1      48.478   5.761  20.785  0.00  0.00    +0.000 C 
BRANCH  17  18
ATOM     18  N   UNL     1      47.055   5.595  21.093  0.00  0.00    +0.000 NA
ATOM     19  H   UNL     1      46.943   5.464  22.099  0.00  0.00    +0.000 HD
ATOM     20  H   UNL     1      46.702   4.746  20.656  0.00  0.00    +0.000 HD
ENDBRANCH  17  18
ENDBRANCH  16  17
ENDBRANCH   1  16
TORSDOF 5
ENDMDL
MODEL 3
REMARK VINA RESULT:    -4.938      5.304      6.449
REMARK INTER + INTRA:          -6.634
REMARK INTER:                  -6.218
REMARK INTRA:                  -0.417
REMARK UNBOUND:                -0.397
REMARK  Name = 
REMARK  5 active torsions:
REMARK  status: ('A' for Active; 'I' for Inactive)
REMARK    1  A    between atoms: N_1  and  C_2
REMARK    2  A    between atoms: C_2  and  C_3
REMARK    3  A    between atoms: C_3  and  C_4
REMARK    4  A    between atoms: C_7  and  C_8
REMARK    5  A    between atoms: C_9  and  C_10
REMARK                            x       y       z     vdW  Elec       q    Type
REMARK                         _______ _______ _______ _____ _____    ______ ____
ROOT
ATOM      1  C   UNL     1      44.802   5.248  12.818  0.00  0.00    +0.000 A 
ATOM      2  C   UNL     1      44.917   6.409  12.057  0.00  0.00    +0.000 A 
ATOM      3  C   UNL     1      46.127   7.111  11.991  0.00  0.00    +0.000 A 
ATOM      4  C   UNL     1      47.253   6.663  12.691  0.00  0.00    +0.000 A 
ATOM      5  C   UNL     1      47.140   5.498  13.453  0.00  0.00    +0.000 A 
ATOM      6  C   UNL     1      45.928   4.795  13.524  0.00  0.00    +0.000 A 
ENDROOT
BRANCH   4   7
ATOM      7  C   UNL     1      48.568   7.321  12.597  0.00  0.00    +0.000 C 
ATOM      8  C   UNL     1      49.184   7.634  11.446  0.00  0.00    +0.000 C 
BRANCH   8   9
ATOM      9  C   UNL     1      50.529   8.218  11.369  0.00  0.00    +0.000 A 
ATOM     10  C   UNL     1      50.892   9.340  12.128  0.00  0.00    +0.000 A 
ATOM     11  C   UNL     1      52.206   9.814  12.108  0.00  0.00    +0.000 A 
ATOM     12  C   UNL     1      53.162   9.158  11.339  0.00  0.00    +0.000 A 
ATOM     13 CL   UNL     1      54.786   9.725  11.333  0.00  0.00    +0.000 Cl
ATOM     14  C   UNL     1      52.820   8.036  10.585  0.00  0.00    +0.000 A 
ATOM     15  C   UNL     1      51.503   7.569  10.603  0.00  0.00    +0.000 A 
ENDBRANCH   8   9
ENDBRANCH   4   7
BRANCH   1  16
ATOM     16  C   UNL     1      43.469   4.539  12.905  0.00  0.00    +0.000 C 
BRANCH  16  17
ATOM     17  C   UNL     1      43.241   3.462  11.835  0.00  0.00    +0.000 C 
BRANCH  17  18
ATOM     18  N   UNL     1      43.517   2.125  12.368  0.00  0.00    +0.000 NA
ATOM     19  H   UNL     1      42.670   1.559  12.306  0.00  0.00    +0.000 HD
ATOM     20  H   UNL     1      43.744   2.186  13.359  0.00  0.00    +0.000 HD
ENDBRANCH  17  18
ENDBRANCH  16  17
ENDBRANCH   1  16
TORSDOF 5
ENDMDL
MODEL 4
REMARK VINA RESULT:    -4.801      4.547      8.552
REMARK INTER + INTRA:          -6.461
REMARK INTER:                  -6.006
REMARK INTRA:                  -0.455
REMARK UNBOUND:                -0.397
REMARK  Name = 
REMARK  5 active torsions:
REMARK  status: ('A' for Active; 'I' for Inactive)
REMARK    1  A    between atoms: N_1  and  C_2
REMARK    2  A    between atoms: C_2  and  C_3
REMARK    3  A    between atoms: C_3  and  C_4
REMARK    4  A    between atoms: C_7  and  C_8
REMARK    5  A    between atoms: C_9  and  C_10
REMARK                            x       y       z     vdW  Elec       q    Type
REMARK                         _______ _______ _______ _____ _____    ______ ____
ROOT
ATOM      1  C   UNL     1      49.278   5.043  19.342  0.00  0.00    +0.000 A 
ATOM      2  C   UNL     1      49.405   5.956  18.299  0.00  0.00    +0.000 A 
ATOM      3  C   UNL     1      48.781   5.734  17.066  0.00  0.00    +0.000 A 
ATOM      4  C   UNL     1      48.013   4.584  16.850  0.00  0.00    +0.000 A 
ATOM      5  C   UNL     1      47.883   3.668  17.896  0.00  0.00    +0.000 A 
ATOM      6  C   UNL     1      48.511   3.886  19.132  0.00  0.00    +0.000 A 
ENDROOT
BRANCH   4   7
ATOM      7  C   UNL     1      47.275   4.338  15.599  0.00  0.00    +0.000 C 
ATOM      8  C   UNL     1      47.429   5.047  14.470  0.00  0.00    +0.000 C 
BRANCH   8   9
ATOM      9  C   UNL     1      46.628   4.840  13.256  0.00  0.00    +0.000 A 
ATOM     10  C   UNL     1      45.896   3.662  13.048  0.00  0.00    +0.000 A 
ATOM     11  C   UNL     1      45.066   3.532  11.930  0.00  0.00    +0.000 A 
ATOM     12  C   UNL     1      44.959   4.586  11.028  0.00  0.00    +0.000 A 
ATOM     13 CL   UNL     1      43.920   4.438   9.666  0.00  0.00    +0.000 Cl
ATOM     14  C   UNL     1      45.675   5.766  11.225  0.00  0.00    +0.000 A 
ATOM     15  C   UNL     1      46.508   5.890  12.340  0.00  0.00    +0.000 A 
ENDBRANCH   8   9
ENDBRANCH   4   7
BRANCH   1  16
ATOM     16  C   UNL     1      50.003   5.290  20.647  0.00  0.00    +0.000 C 
BRANCH  16  17
ATOM     17  C   UNL     1      51.524   5.448  20.519  0.00  0.00    +0.000 C 
BRANCH  17  18
ATOM     18  N   UNL     1      52.178   4.145  20.378  0.00  0.00    +0.000 NA
ATOM     19  H   UNL     1      52.578   4.069  19.442  0.00  0.00    +0.000 HD
ATOM     20  H   UNL     1      51.488   3.400  20.452  0.00  0.00    +0.000 HD
ENDBRANCH  17  18
ENDBRANCH  16  17
ENDBRANCH   1  16
TORSDOF 5
ENDMDL
MODEL 5
REMARK VINA RESULT:    -4.386     10.321     11.214
REMARK INTER + INTRA:          -5.937
REMARK INTER:                  -5.517
REMARK INTRA:                  -0.419
REMARK UNBOUND:                -0.397
REMARK  Name = 
REMARK  5 active torsions:
REMARK  status: ('A' for Active; 'I' for Inactive)
REMARK    1  A    between atoms: N_1  and  C_2
REMARK    2  A    between atoms: C_2  and  C_3
REMARK    3  A    between atoms: C_3  and  C_4
REMARK    4  A    between atoms: C_7  and  C_8
REMARK    5  A    between atoms: C_9  and  C_10
REMARK                            x       y       z     vdW  Elec       q    Type
REMARK                         _______ _______ _______ _____ _____    ______ ____
ROOT
ATOM      1  C   UNL     1      38.126   1.282  17.983  0.00  0.00    +0.000 A 
ATOM      2  C   UNL     1      38.532   0.668  19.165  0.00  0.00    +0.000 A 
ATOM      3  C   UNL     1      39.192  -0.567  19.147  0.00  0.00    +0.000 A 
ATOM      4  C   UNL     1      39.459  -1.217  17.937  0.00  0.00    +0.000 A 
ATOM      5  C   UNL     1      39.054  -0.602  16.751  0.00  0.00    +0.000 A 
ATOM      6  C   UNL     1      38.389   0.633  16.765  0.00  0.00    +0.000 A 
ENDROOT
BRANCH   4   7
ATOM      7  C   UNL     1      40.215  -2.479  17.857  0.00  0.00    +0.000 C 
ATOM      8  C   UNL     1      41.145  -2.755  16.929  0.00  0.00    +0.000 C 
BRANCH   8   9
ATOM      9  C   UNL     1      41.831  -4.048  16.816  0.00  0.00    +0.000 A 
ATOM     10  C   UNL     1      41.581  -4.925  15.751  0.00  0.00    +0.000 A 
ATOM     11  C   UNL     1      42.319  -6.105  15.616  0.00  0.00    +0.000 A 
ATOM     12  C   UNL     1      43.317  -6.400  16.540  0.00  0.00    +0.000 A 
ATOM     13 CL   UNL     1      44.244  -7.838  16.362  0.00  0.00    +0.000 Cl
ATOM     14  C   UNL     1      43.583  -5.534  17.600  0.00  0.00    +0.000 A 
ATOM     15  C   UNL     1      42.839  -4.359  17.734  0.00  0.00    +0.000 A 
ENDBRANCH   8   9
ENDBRANCH   4   7
BRANCH   1  16
ATOM     16  C   UNL     1      37.374   2.593  18.039  0.00  0.00    +0.000 C 
BRANCH  16  17
ATOM     17  C   UNL     1      37.833   3.643  17.017  0.00  0.00    +0.000 C 
BRANCH  17  18
ATOM     18  N   UNL     1      39.238   4.002  17.227  0.00  0.00    +0.000 NA
ATOM     19  H   UNL     1      39.386   4.212  18.215  0.00  0.00    +0.000 HD
ATOM     20  H   UNL     1      39.458   4.857  16.720  0.00  0.00    +0.000 HD
ENDBRANCH  17  18
ENDBRANCH  16  17
ENDBRANCH   1  16
TORSDOF 5
ENDMDL
MODEL 6
REMARK VINA RESULT:    -4.364     10.164     11.966
REMARK INTER + INTRA:          -5.909
REMARK INTER:                  -5.469
REMARK INTRA:                  -0.440
REMARK UNBOUND:                -0.397
REMARK  Name = 
REMARK  5 active torsions:
REMARK  status: ('A' for Active; 'I' for Inactive)
REMARK    1  A    between atoms: N_1  and  C_2
REMARK    2  A    between atoms: C_2  and  C_3
REMARK    3  A    between atoms: C_3  and  C_4
REMARK    4  A    between atoms: C_7  and  C_8
REMARK    5  A    between atoms: C_9  and  C_10
REMARK                            x       y       z     vdW  Elec       q    Type
REMARK                         _______ _______ _______ _____ _____    ______ ____
ROOT
ATOM      1  C   UNL     1      45.985  -6.835  17.769  0.00  0.00    +0.000 A 
ATOM      2  C   UNL     1      44.784  -7.192  17.162  0.00  0.00    +0.000 A 
ATOM      3  C   UNL     1      43.654  -6.371  17.261  0.00  0.00    +0.000 A 
ATOM      4  C   UNL     1      43.705  -5.167  17.974  0.00  0.00    +0.000 A 
ATOM      5  C   UNL     1      44.910  -4.807  18.581  0.00  0.00    +0.000 A 
ATOM      6  C   UNL     1      46.042  -5.631  18.488  0.00  0.00    +0.000 A 
ENDROOT
BRANCH   4   7
ATOM      7  C   UNL     1      42.570  -4.231  18.046  0.00  0.00    +0.000 C 
ATOM      8  C   UNL     1      41.941  -3.710  16.981  0.00  0.00    +0.000 C 
BRANCH   8   9
ATOM      9  C   UNL     1      40.863  -2.717  17.070  0.00  0.00    +0.000 A 
ATOM     10  C   UNL     1      40.344  -2.300  18.303  0.00  0.00    +0.000 A 
ATOM     11  C   UNL     1      39.386  -1.284  18.363  0.00  0.00    +0.000 A 
ATOM     12  C   UNL     1      38.958  -0.674  17.187  0.00  0.00    +0.000 A 
ATOM     13 CL   UNL     1      37.799   0.594  17.259  0.00  0.00    +0.000 Cl
ATOM     14  C   UNL     1      39.470  -1.073  15.953  0.00  0.00    +0.000 A 
ATOM     15  C   UNL     1      40.422  -2.093  15.898  0.00  0.00    +0.000 A 
ENDBRANCH   8   9
ENDBRANCH   4   7
BRANCH   1  16
ATOM     16  C   UNL     1      47.174  -7.767  17.683  0.00  0.00    +0.000 C 
BRANCH  16  17
ATOM     17  C   UNL     1      47.639  -8.087  16.256  0.00  0.00    +0.000 C 
BRANCH  17  18
ATOM     18  N   UNL     1      47.910  -6.860  15.504  0.00  0.00    +0.000 NA
ATOM     19  H   UNL     1      47.948  -6.072  16.151  0.00  0.00    +0.000 HD
ATOM     20  H   UNL     1      47.140  -6.665  14.866  0.00  0.00    +0.000 HD
ENDBRANCH  17  18
ENDBRANCH  16  17
ENDBRANCH   1  16
TORSDOF 5
ENDMDL
MODEL 7
REMARK VINA RESULT:    -4.350      3.777      4.568
REMARK INTER + INTRA:          -5.891
REMARK INTER:                  -5.445
REMARK INTRA:                  -0.446
REMARK UNBOUND:                -0.397
REMARK  Name = 
REMARK  5 active torsions:
REMARK  status: ('A' for Active; 'I' for Inactive)
REMARK    1  A    between atoms: N_1  and  C_2
REMARK    2  A    between atoms: C_2  and  C_3
REMARK    3  A    between atoms: C_3  and  C_4
REMARK    4  A    between atoms: C_7  and  C_8
REMARK    5  A    between atoms: C_9  and  C_10
REMARK                            x       y       z     vdW  Elec       q    Type
REMARK                         _______ _______ _______ _____ _____    ______ ____
ROOT
ATOM      1  C   UNL     1      44.563   5.304  11.601  0.00  0.00    +0.000 A 
ATOM      2  C   UNL     1      44.499   6.690  11.490  0.00  0.00    +0.000 A 
ATOM      3  C   UNL     1      45.420   7.510  12.153  0.00  0.00    +0.000 A 
ATOM      4  C   UNL     1      46.430   6.954  12.947  0.00  0.00    +0.000 A 
ATOM      5  C   UNL     1      46.497   5.564  13.058  0.00  0.00    +0.000 A 
ATOM      6  C   UNL     1      45.572   4.740  12.398  0.00  0.00    +0.000 A 
ENDROOT
BRANCH   4   7
ATOM      7  C   UNL     1      47.469   7.766  13.604  0.00  0.00    +0.000 C 
ATOM      8  C   UNL     1      48.621   7.282  14.094  0.00  0.00    +0.000 C 
BRANCH   8   9
ATOM      9  C   UNL     1      49.609   8.092  14.817  0.00  0.00    +0.000 A 
ATOM     10  C   UNL     1      50.566   8.864  14.143  0.00  0.00    +0.000 A 
ATOM     11  C   UNL     1      51.431   9.701  14.855  0.00  0.00    +0.000 A 
ATOM     12  C   UNL     1      51.331   9.773  16.241  0.00  0.00    +0.000 A 
ATOM     13 CL   UNL     1      52.377  10.821  17.116  0.00  0.00    +0.000 Cl
ATOM     14  C   UNL     1      50.380   9.017  16.925  0.00  0.00    +0.000 A 
ATOM     15  C   UNL     1      49.521   8.178  16.211  0.00  0.00    +0.000 A 
ENDBRANCH   8   9
ENDBRANCH   4   7
BRANCH   1  16
ATOM     16  C   UNL     1      43.524   4.448  10.910  0.00  0.00    +0.000 C 
BRANCH  16  17
ATOM     17  C   UNL     1      43.884   2.960  10.803  0.00  0.00    +0.000 C 
BRANCH  17  18
ATOM     18  N   UNL     1      43.059   2.153  11.705  0.00  0.00    +0.000 NA
ATOM     19  H   UNL     1      42.086   2.198  11.399  0.00  0.00    +0.000 HD
ATOM     20  H   UNL     1      43.078   2.550  12.643  0.00  0.00    +0.000 HD
ENDBRANCH  17  18
ENDBRANCH  16  17
ENDBRANCH   1  16
TORSDOF 5
ENDMDL
MODEL 8
REMARK VINA RESULT:    -4.181      6.018      7.731
REMARK INTER + INTRA:          -5.678
REMARK INTER:                  -5.236
REMARK INTRA:                  -0.442
REMARK UNBOUND:                -0.397
REMARK  Name = 
REMARK  5 active torsions:
REMARK  status: ('A' for Active; 'I' for Inactive)
REMARK    1  A    between atoms: N_1  and  C_2
REMARK    2  A    between atoms: C_2  and  C_3
REMARK    3  A    between atoms: C_3  and  C_4
REMARK    4  A    between atoms: C_7  and  C_8
REMARK    5  A    between atoms: C_9  and  C_10
REMARK                            x       y       z     vdW  Elec       q    Type
REMARK                         _______ _______ _______ _____ _____    ______ ____
ROOT
ATOM      1  C   UNL     1      53.197   8.533  11.661  0.00  0.00    +0.000 A 
ATOM      2  C   UNL     1      52.398   8.914  12.735  0.00  0.00    +0.000 A 
ATOM      3  C   UNL     1      51.027   8.629  12.751  0.00  0.00    +0.000 A 
ATOM      4  C   UNL     1      50.426   7.952  11.683  0.00  0.00    +0.000 A 
ATOM      5  C   UNL     1      51.226   7.568  10.606  0.00  0.00    +0.000 A 
ATOM      6  C   UNL     1      52.600   7.856  10.586  0.00  0.00    +0.000 A 
ENDROOT
BRANCH   4   7
ATOM      7  C   UNL     1      49.005   7.561  11.682  0.00  0.00    +0.000 C 
ATOM      8  C   UNL     1      48.429   6.775  12.605  0.00  0.00    +0.000 C 
BRANCH   8   9
ATOM      9  C   UNL     1      47.031   6.330  12.546  0.00  0.00    +0.000 A 
ATOM     10  C   UNL     1      46.583   5.206  13.254  0.00  0.00    +0.000 A 
ATOM     11  C   UNL     1      45.228   4.863  13.257  0.00  0.00    +0.000 A 
ATOM     12  C   UNL     1      44.318   5.653  12.561  0.00  0.00    +0.000 A 
ATOM     13 CL   UNL     1      42.647   5.247  12.583  0.00  0.00    +0.000 Cl
ATOM     14  C   UNL     1      44.746   6.778  11.857  0.00  0.00    +0.000 A 
ATOM     15  C   UNL     1      46.102   7.114  11.853  0.00  0.00    +0.000 A 
ENDBRANCH   8   9
ENDBRANCH   4   7
BRANCH   1  16
ATOM     16  C   UNL     1      54.666   8.897  11.653  0.00  0.00    +0.000 C 
BRANCH  16  17
ATOM     17  C   UNL     1      55.626   7.701  11.708  0.00  0.00    +0.000 C 
BRANCH  17  18
ATOM     18  N   UNL     1      55.284   6.802  12.812  0.00  0.00    +0.000 NA
ATOM     19  H   UNL     1      54.290   6.577  12.766  0.00  0.00    +0.000 HD
ATOM     20  H   UNL     1      55.425   7.276  13.703  0.00  0.00    +0.000 HD
ENDBRANCH  17  18
ENDBRANCH  16  17
ENDBRANCH   1  16
TORSDOF 5
ENDMDL
MODEL 9
REMARK VINA RESULT:    -4.076      6.083      8.015
REMARK INTER + INTRA:          -5.545
REMARK INTER:                  -5.124
REMARK INTRA:                  -0.422
REMARK UNBOUND:                -0.397
REMARK  Name = 
REMARK  5 active torsions:
REMARK  status: ('A' for Active; 'I' for Inactive)
REMARK    1  A    between atoms: N_1  and  C_2
REMARK    2  A    between atoms: C_2  and  C_3
REMARK    3  A    between atoms: C_3  and  C_4
REMARK    4  A    between atoms: C_7  and  C_8
REMARK    5  A    between atoms: C_9  and  C_10
REMARK                            x       y       z     vdW  Elec       q    Type
REMARK                         _______ _______ _______ _____ _____    ______ ____
ROOT
ATOM      1  C   UNL     1      52.109   9.867  11.907  0.00  0.00    +0.000 A 
ATOM      2  C   UNL     1      50.917  10.507  12.235  0.00  0.00    +0.000 A 
ATOM      3  C   UNL     1      49.685   9.858  12.087  0.00  0.00    +0.000 A 
ATOM      4  C   UNL     1      49.623   8.546  11.603  0.00  0.00    +0.000 A 
ATOM      5  C   UNL     1      50.817   7.902  11.276  0.00  0.00    +0.000 A 
ATOM      6  C   UNL     1      52.052   8.551  11.419  0.00  0.00    +0.000 A 
ENDROOT
BRANCH   4   7
ATOM      7  C   UNL     1      48.361   7.792  11.499  0.00  0.00    +0.000 C 
ATOM      8  C   UNL     1      47.976   6.826  12.348  0.00  0.00    +0.000 C 
BRANCH   8   9
ATOM      9  C   UNL     1      46.754   6.030  12.185  0.00  0.00    +0.000 A 
ATOM     10  C   UNL     1      45.995   6.076  11.006  0.00  0.00    +0.000 A 
ATOM     11  C   UNL     1      44.891   5.235  10.841  0.00  0.00    +0.000 A 
ATOM     12  C   UNL     1      44.553   4.338  11.849  0.00  0.00    +0.000 A 
ATOM     13 CL   UNL     1      43.210   3.285  11.637  0.00  0.00    +0.000 Cl
ATOM     14  C   UNL     1      45.301   4.275  13.024  0.00  0.00    +0.000 A 
ATOM     15  C   UNL     1      46.401   5.121  13.188  0.00  0.00    +0.000 A 
ENDBRANCH   8   9
ENDBRANCH   4   7
BRANCH   1  16
ATOM     16  C   UNL     1      53.420  10.612  12.034  0.00  0.00    +0.000 C 
BRANCH  16  17
ATOM     17  C   UNL     1      54.406  10.012  13.046  0.00  0.00    +0.000 C 
BRANCH  17  18
ATOM     18  N   UNL     1      54.418  10.787  14.290  0.00  0.00    +0.000 NA
ATOM     19  H   UNL     1      55.121  11.523  14.219  0.00  0.00    +0.000 HD
ATOM     20  H   UNL     1      54.707  10.194  15.066  0.00  0.00    +0.000 HD
ENDBRANCH  17  18
ENDBRANCH  16  17
ENDBRANCH   1  16
TORSDOF 5
ENDMDL
