MODEL 1
REMARK VINA RESULT:    -8.668      0.000      0.000
REMARK INTER + INTRA:         -12.810
REMARK INTER:                 -12.215
REMARK INTRA:                  -0.596
REMARK UNBOUND:                -0.596
REMARK  Name = 
REMARK  9 active torsions:
REMARK  status: ('A' for Active; 'I' for Inactive)
REMARK    1  A    between atoms: C_1  and  C_2
REMARK    2  A    between atoms: C_2  and  C_3
REMARK    3  A    between atoms: C_2  and  C_14
REMARK    4  A    between atoms: C_3  and  N_4
REMARK    5  A    between atoms: N_4  and  C_5
REMARK    6  A    between atoms: C_8  and  C_9
REMARK    7  A    between atoms: C_19  and  N_20
REMARK    8  A    between atoms: N_20  and  C_21
REMARK    9  A    between atoms: C_21  and  C_22
REMARK                            x       y       z     vdW  Elec       q    Type
REMARK                         _______ _______ _______ _____ _____    ______ ____
ROOT
ATOM      1  C   UNL     1      42.702   5.074  13.030  0.00  0.00    +0.000 C 
ATOM      2  C   UNL     1      43.677   5.793  12.086  0.00  0.00    +0.000 C 
ENDROOT
BRANCH   2   3
ATOM      3  C   UNL     1      45.142   5.672  12.502  0.00  0.00    +0.000 A 
ATOM      4  C   UNL     1      46.145   6.507  11.996  0.00  0.00    +0.000 A 
ATOM      5  C   UNL     1      47.454   6.378  12.453  0.00  0.00    +0.000 A 
ATOM      6  F   UNL     1      48.402   7.187  11.964  0.00  0.00    +0.000 F 
ATOM      7  C   UNL     1      47.797   5.431  13.414  0.00  0.00    +0.000 A 
ATOM      8  C   UNL     1      46.819   4.594  13.958  0.00  0.00    +0.000 A 
ATOM      9  C   UNL     1      45.501   4.724  13.486  0.00  0.00    +0.000 A 
BRANCH   8  10
ATOM     10  N   UNL     1      47.197   3.611  14.897  0.00  0.00    +0.000 N 
ATOM     11  H   UNL     1      47.725   2.842  14.492  0.00  0.00    +0.000 HD
BRANCH  10  12
ATOM     12  C   UNL     1      47.621   3.953  16.255  0.00  0.00    +0.000 C 
ATOM     13  C   UNL     1      48.146   5.350  16.454  0.00  0.00    +0.000 C 
ATOM     14  C   UNL     1      47.941   2.869  17.266  0.00  0.00    +0.000 C 
ATOM     15  N   UNL     1      46.629   3.492  17.227  0.00  0.00    +0.000 NA
ATOM     16  H   UNL     1      46.530   4.162  17.993  0.00  0.00    +0.000 HD
ENDBRANCH  10  12
ENDBRANCH   8  10
ENDBRANCH   2   3
BRANCH   2  17
ATOM     17  C   UNL     1      43.527   5.296  10.630  0.00  0.00    +0.000 C 
BRANCH  17  18
ATOM     18  N   UNL     1      43.795   3.856  10.501  0.00  0.00    +0.000 N 
ATOM     19  H   UNL     1      42.944   3.297  10.460  0.00  0.00    +0.000 HD
BRANCH  18  20
ATOM     20  C   UNL     1      44.740   3.448   9.548  0.00  0.00    +0.000 A 
ATOM     21  C   UNL     1      45.041   2.110   9.288  0.00  0.00    +0.000 A 
ATOM     22  C   UNL     1      45.939   1.759   8.280  0.00  0.00    +0.000 A 
ATOM     23  C   UNL     1      46.502   2.770   7.519  0.00  0.00    +0.000 A 
ATOM     24  N   UNL     1      46.215   4.088   7.689  0.00  0.00    +0.000 NA
ATOM     25  C   UNL     1      45.331   4.378   8.679  0.00  0.00    +0.000 A 
BRANCH  23  26
ATOM     26  C   UNL     1      47.474   2.413   6.434  0.00  0.00    +0.000 C 
ATOM     27  N   UNL     1      47.368   3.138   5.281  0.00  0.00    +0.000 N 
ATOM     28  O   UNL     1      48.318   1.530   6.566  0.00  0.00    +0.000 OA
ATOM     29  H   UNL     1      46.649   3.848   5.201  0.00  0.00    +0.000 HD
ATOM     30  H   UNL     1      47.983   2.930   4.509  0.00  0.00    +0.000 HD
ENDBRANCH  23  26
ENDBRANCH  18  20
ENDBRANCH  17  18
ENDBRANCH   2  17
TORSDOF 7
ENDMDL
MODEL 2
REMARK VINA RESULT:    -8.067      2.768      4.368
REMARK INTER + INTRA:         -11.964
REMARK INTER:                 -11.433
REMARK INTRA:                  -0.532
REMARK UNBOUND:                -0.596
REMARK  Name = 
REMARK  9 active torsions:
REMARK  status: ('A' for Active; 'I' for Inactive)
REMARK    1  A    between atoms: C_1  and  C_2
REMARK    2  A    between atoms: C_2  and  C_3
REMARK    3  A    between atoms: C_2  and  C_14
REMARK    4  A    between atoms: C_3  and  N_4
REMARK    5  A    between atoms: N_4  and  C_5
REMARK    6  A    between atoms: C_8  and  C_9
REMARK    7  A    between atoms: C_19  and  N_20
REMARK    8  A    between atoms: N_20  and  C_21
REMARK    9  A    between atoms: C_21  and  C_22
REMARK                            x       y       z     vdW  Elec       q    Type
REMARK                         _______ _______ _______ _____ _____    ______ ____
ROOT
ATOM      1  C   UNL     1      45.348   3.321  12.618  0.00  0.00    +0.000 C 
ATOM      2  C   UNL     1      44.480   4.583  12.507  0.00  0.00    +0.000 C 
ENDROOT
BRANCH   2   3
ATOM      3  C   UNL     1      45.283   5.879  12.415  0.00  0.00    +0.000 A 
ATOM      4  C   UNL     1      46.653   5.903  12.126  0.00  0.00    +0.000 A 
ATOM      5  C   UNL     1      47.317   7.121  12.007  0.00  0.00    +0.000 A 
ATOM      6  F   UNL     1      48.627   7.128  11.725  0.00  0.00    +0.000 F 
ATOM      7  C   UNL     1      46.649   8.331  12.167  0.00  0.00    +0.000 A 
ATOM      8  C   UNL     1      45.278   8.347  12.435  0.00  0.00    +0.000 A 
ATOM      9  C   UNL     1      44.614   7.114  12.562  0.00  0.00    +0.000 A 
BRANCH   8  10
ATOM     10  N   UNL     1      44.629   9.584  12.638  0.00  0.00    +0.000 N 
ATOM     11  H   UNL     1      44.982  10.103  13.439  0.00  0.00    +0.000 HD
BRANCH  10  12
ATOM     12  C   UNL     1      44.222  10.442  11.525  0.00  0.00    +0.000 C 
ATOM     13  C   UNL     1      45.230  11.466  11.073  0.00  0.00    +0.000 C 
ATOM     14  C   UNL     1      42.758  10.606  11.164  0.00  0.00    +0.000 C 
ATOM     15  N   UNL     1      43.597   9.643  10.471  0.00  0.00    +0.000 NA
ATOM     16  H   UNL     1      43.853   9.996   9.546  0.00  0.00    +0.000 HD
ENDBRANCH  10  12
ENDBRANCH   8  10
ENDBRANCH   2   3
BRANCH   2  17
ATOM     17  C   UNL     1      43.515   4.505  11.301  0.00  0.00    +0.000 C 
BRANCH  17  18
ATOM     18  N   UNL     1      44.111   5.052  10.074  0.00  0.00    +0.000 N 
ATOM     19  H   UNL     1      44.511   5.980  10.207  0.00  0.00    +0.000 HD
BRANCH  18  20
ATOM     20  C   UNL     1      44.953   4.216   9.326  0.00  0.00    +0.000 A 
ATOM     21  C   UNL     1      44.864   2.823   9.341  0.00  0.00    +0.000 A 
ATOM     22  C   UNL     1      45.680   2.042   8.523  0.00  0.00    +0.000 A 
ATOM     23  C   UNL     1      46.562   2.684   7.670  0.00  0.00    +0.000 A 
ATOM     24  N   UNL     1      46.665   4.036   7.572  0.00  0.00    +0.000 NA
ATOM     25  C   UNL     1      45.845   4.752   8.385  0.00  0.00    +0.000 A 
BRANCH  23  26
ATOM     26  C   UNL     1      47.454   1.862   6.787  0.00  0.00    +0.000 C 
ATOM     27  N   UNL     1      48.602   2.473   6.369  0.00  0.00    +0.000 N 
ATOM     28  O   UNL     1      47.179   0.711   6.457  0.00  0.00    +0.000 OA
ATOM     29  H   UNL     1      48.789   3.430   6.647  0.00  0.00    +0.000 HD
ATOM     30  H   UNL     1      49.232   1.977   5.758  0.00  0.00    +0.000 HD
ENDBRANCH  23  26
ENDBRANCH  18  20
ENDBRANCH  17  18
ENDBRANCH   2  17
TORSDOF 7
ENDMDL
MODEL 3
REMARK VINA RESULT:    -7.831      2.338      3.340
REMARK INTER + INTRA:         -11.631
REMARK INTER:                 -10.778
REMARK INTRA:                  -0.854
REMARK UNBOUND:                -0.596
REMARK  Name = 
REMARK  9 active torsions:
REMARK  status: ('A' for Active; 'I' for Inactive)
REMARK    1  A    between atoms: C_1  and  C_2
REMARK    2  A    between atoms: C_2  and  C_3
REMARK    3  A    between atoms: C_2  and  C_14
REMARK    4  A    between atoms: C_3  and  N_4
REMARK    5  A    between atoms: N_4  and  C_5
REMARK    6  A    between atoms: C_8  and  C_9
REMARK    7  A    between atoms: C_19  and  N_20
REMARK    8  A    between atoms: N_20  and  C_21
REMARK    9  A    between atoms: C_21  and  C_22
REMARK                            x       y       z     vdW  Elec       q    Type
REMARK                         _______ _______ _______ _____ _____    ______ ____
ROOT
ATOM      1  C   UNL     1      43.428   3.657  12.645  0.00  0.00    +0.000 C 
ATOM      2  C   UNL     1      43.971   5.079  12.438  0.00  0.00    +0.000 C 
ENDROOT
BRANCH   2   3
ATOM      3  C   UNL     1      45.339   5.316  13.076  0.00  0.00    +0.000 A 
ATOM      4  C   UNL     1      45.887   4.458  14.037  0.00  0.00    +0.000 A 
ATOM      5  C   UNL     1      47.161   4.703  14.542  0.00  0.00    +0.000 A 
ATOM      6  F   UNL     1      47.674   3.870  15.457  0.00  0.00    +0.000 F 
ATOM      7  C   UNL     1      47.916   5.790  14.113  0.00  0.00    +0.000 A 
ATOM      8  C   UNL     1      47.411   6.656  13.139  0.00  0.00    +0.000 A 
ATOM      9  C   UNL     1      46.121   6.408  12.639  0.00  0.00    +0.000 A 
BRANCH   8  10
ATOM     10  N   UNL     1      48.175   7.778  12.752  0.00  0.00    +0.000 N 
ATOM     11  H   UNL     1      48.497   7.739  11.788  0.00  0.00    +0.000 HD
BRANCH  10  12
ATOM     12  C   UNL     1      47.851   9.133  13.200  0.00  0.00    +0.000 C 
ATOM     13  C   UNL     1      47.052   9.976  12.242  0.00  0.00    +0.000 C 
ATOM     14  C   UNL     1      48.637   9.790  14.319  0.00  0.00    +0.000 C 
ATOM     15  N   UNL     1      47.381   9.110  14.586  0.00  0.00    +0.000 NA
ATOM     16  H   UNL     1      46.631   9.790  14.727  0.00  0.00    +0.000 HD
ENDBRANCH  10  12
ENDBRANCH   8  10
ENDBRANCH   2   3
BRANCH   2  17
ATOM     17  C   UNL     1      44.047   5.446  10.939  0.00  0.00    +0.000 C 
BRANCH  17  18
ATOM     18  N   UNL     1      43.577   4.355  10.073  0.00  0.00    +0.000 N 
ATOM     19  H   UNL     1      42.707   4.579   9.590  0.00  0.00    +0.000 HD
BRANCH  18  20
ATOM     20  C   UNL     1      44.511   3.746   9.222  0.00  0.00    +0.000 A 
ATOM     21  C   UNL     1      45.372   4.463   8.387  0.00  0.00    +0.000 A 
ATOM     22  C   UNL     1      46.330   3.808   7.613  0.00  0.00    +0.000 A 
ATOM     23  C   UNL     1      46.429   2.431   7.716  0.00  0.00    +0.000 A 
ATOM     24  N   UNL     1      45.654   1.680   8.543  0.00  0.00    +0.000 NA
ATOM     25  C   UNL     1      44.741   2.364   9.280  0.00  0.00    +0.000 A 
BRANCH  23  26
ATOM     26  C   UNL     1      47.449   1.708   6.887  0.00  0.00    +0.000 C 
ATOM     27  N   UNL     1      48.525   2.450   6.490  0.00  0.00    +0.000 N 
ATOM     28  O   UNL     1      47.335   0.523   6.583  0.00  0.00    +0.000 OA
ATOM     29  H   UNL     1      48.579   3.430   6.745  0.00  0.00    +0.000 HD
ATOM     30  H   UNL     1      49.235   2.023   5.915  0.00  0.00    +0.000 HD
ENDBRANCH  23  26
ENDBRANCH  18  20
ENDBRANCH  17  18
ENDBRANCH   2  17
TORSDOF 7
ENDMDL
MODEL 4
REMARK VINA RESULT:    -7.815      2.507      3.340
REMARK INTER + INTRA:         -11.608
REMARK INTER:                 -10.820
REMARK INTRA:                  -0.788
REMARK UNBOUND:                -0.596
REMARK  Name = 
REMARK  9 active torsions:
REMARK  status: ('A' for Active; 'I' for Inactive)
REMARK    1  A    between atoms: C_1  and  C_2
REMARK    2  A    between atoms: C_2  and  C_3
REMARK    3  A    between atoms: C_2  and  C_14
REMARK    4  A    between atoms: C_3  and  N_4
REMARK    5  A    between atoms: N_4  and  C_5
REMARK    6  A    between atoms: C_8  and  C_9
REMARK    7  A    between atoms: C_19  and  N_20
REMARK    8  A    between atoms: N_20  and  C_21
REMARK    9  A    between atoms: C_21  and  C_22
REMARK                            x       y       z     vdW  Elec       q    Type
REMARK                         _______ _______ _______ _____ _____    ______ ____
ROOT
ATOM      1  C   UNL     1      44.506   7.758  11.374  0.00  0.00    +0.000 C 
ATOM      2  C   UNL     1      45.123   6.353  11.304  0.00  0.00    +0.000 C 
ENDROOT
BRANCH   2   3
ATOM      3  C   UNL     1      46.033   6.019  12.485  0.00  0.00    +0.000 A 
ATOM      4  C   UNL     1      46.093   4.743  13.059  0.00  0.00    +0.000 A 
ATOM      5  C   UNL     1      46.980   4.491  14.102  0.00  0.00    +0.000 A 
ATOM      6  F   UNL     1      47.029   3.264  14.637  0.00  0.00    +0.000 F 
ATOM      7  C   UNL     1      47.823   5.483  14.594  0.00  0.00    +0.000 A 
ATOM      8  C   UNL     1      47.807   6.762  14.032  0.00  0.00    +0.000 A 
ATOM      9  C   UNL     1      46.902   7.013  12.985  0.00  0.00    +0.000 A 
BRANCH   8  10
ATOM     10  N   UNL     1      48.636   7.765  14.577  0.00  0.00    +0.000 N 
ATOM     11  H   UNL     1      48.468   7.943  15.564  0.00  0.00    +0.000 HD
BRANCH  10  12
ATOM     12  C   UNL     1      50.042   7.906  14.195  0.00  0.00    +0.000 C 
ATOM     13  C   UNL     1      51.055   7.549  15.250  0.00  0.00    +0.000 C 
ATOM     14  C   UNL     1      50.444   8.770  13.015  0.00  0.00    +0.000 C 
ATOM     15  N   UNL     1      50.266   7.335  12.866  0.00  0.00    +0.000 NA
ATOM     16  H   UNL     1      51.173   6.866  12.819  0.00  0.00    +0.000 HD
ENDBRANCH  10  12
ENDBRANCH   8  10
ENDBRANCH   2   3
BRANCH   2  17
ATOM     17  C   UNL     1      44.036   5.260  11.185  0.00  0.00    +0.000 C 
BRANCH  17  18
ATOM     18  N   UNL     1      43.712   4.944   9.787  0.00  0.00    +0.000 N 
ATOM     19  H   UNL     1      43.520   5.773   9.227  0.00  0.00    +0.000 HD
BRANCH  18  20
ATOM     20  C   UNL     1      44.540   4.032   9.114  0.00  0.00    +0.000 A 
ATOM     21  C   UNL     1      45.535   4.418   8.213  0.00  0.00    +0.000 A 
ATOM     22  C   UNL     1      46.376   3.473   7.626  0.00  0.00    +0.000 A 
ATOM     23  C   UNL     1      46.221   2.144   7.981  0.00  0.00    +0.000 A 
ATOM     24  N   UNL     1      45.304   1.708   8.885  0.00  0.00    +0.000 NA
ATOM     25  C   UNL     1      44.513   2.667   9.433  0.00  0.00    +0.000 A 
BRANCH  23  26
ATOM     26  C   UNL     1      47.112   1.111   7.355  0.00  0.00    +0.000 C 
ATOM     27  N   UNL     1      46.890  -0.179   7.744  0.00  0.00    +0.000 N 
ATOM     28  O   UNL     1      47.986   1.398   6.540  0.00  0.00    +0.000 OA
ATOM     29  H   UNL     1      46.170  -0.377   8.431  0.00  0.00    +0.000 HD
ATOM     30  H   UNL     1      47.470  -0.914   7.372  0.00  0.00    +0.000 HD
ENDBRANCH  23  26
ENDBRANCH  18  20
ENDBRANCH  17  18
ENDBRANCH   2  17
TORSDOF 7
ENDMDL
MODEL 5
REMARK VINA RESULT:    -7.781      2.296      2.999
REMARK INTER + INTRA:         -11.561
REMARK INTER:                 -10.687
REMARK INTRA:                  -0.873
REMARK UNBOUND:                -0.596
REMARK  Name = 
REMARK  9 active torsions:
REMARK  status: ('A' for Active; 'I' for Inactive)
REMARK    1  A    between atoms: C_1  and  C_2
REMARK    2  A    between atoms: C_2  and  C_3
REMARK    3  A    between atoms: C_2  and  C_14
REMARK    4  A    between atoms: C_3  and  N_4
REMARK    5  A    between atoms: N_4  and  C_5
REMARK    6  A    between atoms: C_8  and  C_9
REMARK    7  A    between atoms: C_19  and  N_20
REMARK    8  A    between atoms: N_20  and  C_21
REMARK    9  A    between atoms: C_21  and  C_22
REMARK                            x       y       z     vdW  Elec       q    Type
REMARK                         _______ _______ _______ _____ _____    ______ ____
ROOT
ATOM      1  C   UNL     1      45.429   3.389  12.599  0.00  0.00    +0.000 C 
ATOM      2  C   UNL     1      44.602   4.666  12.382  0.00  0.00    +0.000 C 
ENDROOT
BRANCH   2   3
ATOM      3  C   UNL     1      45.443   5.938  12.295  0.00  0.00    +0.000 A 
ATOM      4  C   UNL     1      44.900   7.185  11.963  0.00  0.00    +0.000 A 
ATOM      5  C   UNL     1      45.712   8.316  11.949  0.00  0.00    +0.000 A 
ATOM      6  F   UNL     1      45.176   9.503  11.635  0.00  0.00    +0.000 F 
ATOM      7  C   UNL     1      47.065   8.242  12.263  0.00  0.00    +0.000 A 
ATOM      8  C   UNL     1      47.639   7.019  12.620  0.00  0.00    +0.000 A 
ATOM      9  C   UNL     1      46.815   5.879  12.624  0.00  0.00    +0.000 A 
BRANCH   8  10
ATOM     10  N   UNL     1      49.023   6.958  12.890  0.00  0.00    +0.000 N 
ATOM     11  H   UNL     1      49.605   7.137  12.075  0.00  0.00    +0.000 HD
BRANCH  10  12
ATOM     12  C   UNL     1      49.596   7.468  14.136  0.00  0.00    +0.000 C 
ATOM     13  C   UNL     1      49.083   6.844  15.406  0.00  0.00    +0.000 C 
ATOM     14  C   UNL     1      50.293   8.814  14.177  0.00  0.00    +0.000 C 
ATOM     15  N   UNL     1      51.050   7.584  14.015  0.00  0.00    +0.000 NA
ATOM     16  H   UNL     1      51.510   7.331  14.892  0.00  0.00    +0.000 HD
ENDBRANCH  10  12
ENDBRANCH   8  10
ENDBRANCH   2   3
BRANCH   2  17
ATOM     17  C   UNL     1      43.719   4.562  11.117  0.00  0.00    +0.000 C 
BRANCH  17  18
ATOM     18  N   UNL     1      43.794   3.234  10.491  0.00  0.00    +0.000 N 
ATOM     19  H   UNL     1      42.877   2.831  10.307  0.00  0.00    +0.000 HD
BRANCH  18  20
ATOM     20  C   UNL     1      44.670   3.069   9.408  0.00  0.00    +0.000 A 
ATOM     21  C   UNL     1      45.198   4.136   8.678  0.00  0.00    +0.000 A 
ATOM     22  C   UNL     1      46.120   3.918   7.655  0.00  0.00    +0.000 A 
ATOM     23  C   UNL     1      46.526   2.619   7.401  0.00  0.00    +0.000 A 
ATOM     24  N   UNL     1      46.087   1.542   8.106  0.00  0.00    +0.000 NA
ATOM     25  C   UNL     1      45.195   1.807   9.094  0.00  0.00    +0.000 A 
BRANCH  23  26
ATOM     26  C   UNL     1      47.513   2.363   6.300  0.00  0.00    +0.000 C 
ATOM     27  N   UNL     1      47.405   3.173   5.206  0.00  0.00    +0.000 N 
ATOM     28  O   UNL     1      48.370   1.485   6.371  0.00  0.00    +0.000 OA
ATOM     29  H   UNL     1      46.675   3.876   5.174  0.00  0.00    +0.000 HD
ATOM     30  H   UNL     1      48.029   3.036   4.426  0.00  0.00    +0.000 HD
ENDBRANCH  23  26
ENDBRANCH  18  20
ENDBRANCH  17  18
ENDBRANCH   2  17
TORSDOF 7
ENDMDL
MODEL 6
REMARK VINA RESULT:    -6.945      2.975      4.122
REMARK INTER + INTRA:         -10.382
REMARK INTER:                  -9.542
REMARK INTRA:                  -0.841
REMARK UNBOUND:                -0.596
REMARK  Name = 
REMARK  9 active torsions:
REMARK  status: ('A' for Active; 'I' for Inactive)
REMARK    1  A    between atoms: C_1  and  C_2
REMARK    2  A    between atoms: C_2  and  C_3
REMARK    3  A    between atoms: C_2  and  C_14
REMARK    4  A    between atoms: C_3  and  N_4
REMARK    5  A    between atoms: N_4  and  C_5
REMARK    6  A    between atoms: C_8  and  C_9
REMARK    7  A    between atoms: C_19  and  N_20
REMARK    8  A    between atoms: N_20  and  C_21
REMARK    9  A    between atoms: C_21  and  C_22
REMARK                            x       y       z     vdW  Elec       q    Type
REMARK                         _______ _______ _______ _____ _____    ______ ____
ROOT
ATOM      1  C   UNL     1      44.584   4.720  12.804  0.00  0.00    +0.000 C 
ATOM      2  C   UNL     1      45.033   6.100  12.301  0.00  0.00    +0.000 C 
ENDROOT
BRANCH   2   3
ATOM      3  C   UNL     1      46.390   6.543  12.845  0.00  0.00    +0.000 A 
ATOM      4  C   UNL     1      46.953   6.005  14.008  0.00  0.00    +0.000 A 
ATOM      5  C   UNL     1      48.217   6.416  14.424  0.00  0.00    +0.000 A 
ATOM      6  F   UNL     1      48.744   5.888  15.536  0.00  0.00    +0.000 F 
ATOM      7  C   UNL     1      48.947   7.357  13.705  0.00  0.00    +0.000 A 
ATOM      8  C   UNL     1      48.427   7.900  12.527  0.00  0.00    +0.000 A 
ATOM      9  C   UNL     1      47.147   7.487  12.117  0.00  0.00    +0.000 A 
BRANCH   8  10
ATOM     10  N   UNL     1      49.165   8.887  11.838  0.00  0.00    +0.000 N 
ATOM     11  H   UNL     1      48.925   9.838  12.108  0.00  0.00    +0.000 HD
BRANCH  10  12
ATOM     12  C   UNL     1      50.581   8.715  11.514  0.00  0.00    +0.000 C 
ATOM     13  C   UNL     1      50.947   7.450  10.784  0.00  0.00    +0.000 C 
ATOM     14  C   UNL     1      51.648   9.505  12.249  0.00  0.00    +0.000 C 
ATOM     15  N   UNL     1      51.131   9.957  10.968  0.00  0.00    +0.000 NA
ATOM     16  H   UNL     1      51.803   9.761  10.224  0.00  0.00    +0.000 HD
ENDBRANCH  10  12
ENDBRANCH   8  10
ENDBRANCH   2   3
BRANCH   2  17
ATOM     17  C   UNL     1      45.069   6.158  10.757  0.00  0.00    +0.000 C 
BRANCH  17  18
ATOM     18  N   UNL     1      44.331   5.047  10.138  0.00  0.00    +0.000 N 
ATOM     19  H   UNL     1      43.435   5.335   9.749  0.00  0.00    +0.000 HD
BRANCH  18  20
ATOM     20  C   UNL     1      45.034   4.196   9.272  0.00  0.00    +0.000 A 
ATOM     21  C   UNL     1      45.912   4.656   8.288  0.00  0.00    +0.000 A 
ATOM     22  C   UNL     1      46.638   3.762   7.501  0.00  0.00    +0.000 A 
ATOM     23  C   UNL     1      46.492   2.406   7.740  0.00  0.00    +0.000 A 
ATOM     24  N   UNL     1      45.691   1.896   8.713  0.00  0.00    +0.000 NA
ATOM     25  C   UNL     1      45.009   2.806   9.455  0.00  0.00    +0.000 A 
BRANCH  23  26
ATOM     26  C   UNL     1      47.260   1.429   6.900  0.00  0.00    +0.000 C 
ATOM     27  N   UNL     1      48.271   1.958   6.149  0.00  0.00    +0.000 N 
ATOM     28  O   UNL     1      47.005   0.227   6.884  0.00  0.00    +0.000 OA
ATOM     29  H   UNL     1      48.442   2.957   6.174  0.00  0.00    +0.000 HD
ATOM     30  H   UNL     1      48.810   1.353   5.550  0.00  0.00    +0.000 HD
ENDBRANCH  23  26
ENDBRANCH  18  20
ENDBRANCH  17  18
ENDBRANCH   2  17
TORSDOF 7
ENDMDL
MODEL 7
REMARK VINA RESULT:    -6.697      2.988      7.642
REMARK INTER + INTRA:         -10.033
REMARK INTER:                  -8.993
REMARK INTRA:                  -1.040
REMARK UNBOUND:                -0.596
REMARK  Name = 
REMARK  9 active torsions:
REMARK  status: ('A' for Active; 'I' for Inactive)
REMARK    1  A    between atoms: C_1  and  C_2
REMARK    2  A    between atoms: C_2  and  C_3
REMARK    3  A    between atoms: C_2  and  C_14
REMARK    4  A    between atoms: C_3  and  N_4
REMARK    5  A    between atoms: N_4  and  C_5
REMARK    6  A    between atoms: C_8  and  C_9
REMARK    7  A    between atoms: C_19  and  N_20
REMARK    8  A    between atoms: N_20  and  C_21
REMARK    9  A    between atoms: C_21  and  C_22
REMARK                            x       y       z     vdW  Elec       q    Type
REMARK                         _______ _______ _______ _____ _____    ______ ____
ROOT
ATOM      1  C   UNL     1      48.107   7.015  11.270  0.00  0.00    +0.000 C 
ATOM      2  C   UNL     1      46.757   7.503  11.815  0.00  0.00    +0.000 C 
ENDROOT
BRANCH   2   3
ATOM      3  C   UNL     1      45.611   6.518  11.598  0.00  0.00    +0.000 A 
ATOM      4  C   UNL     1      44.642   6.254  12.573  0.00  0.00    +0.000 A 
ATOM      5  C   UNL     1      43.593   5.382  12.295  0.00  0.00    +0.000 A 
ATOM      6  F   UNL     1      42.671   5.144  13.236  0.00  0.00    +0.000 F 
ATOM      7  C   UNL     1      43.477   4.758  11.057  0.00  0.00    +0.000 A 
ATOM      8  C   UNL     1      44.413   5.012  10.051  0.00  0.00    +0.000 A 
ATOM      9  C   UNL     1      45.475   5.888  10.341  0.00  0.00    +0.000 A 
BRANCH   8  10
ATOM     10  N   UNL     1      44.303   4.333   8.818  0.00  0.00    +0.000 N 
ATOM     11  H   UNL     1      43.961   4.918   8.059  0.00  0.00    +0.000 HD
BRANCH  10  12
ATOM     12  C   UNL     1      45.287   3.340   8.386  0.00  0.00    +0.000 C 
ATOM     13  C   UNL     1      45.298   2.042   9.148  0.00  0.00    +0.000 C 
ATOM     14  C   UNL     1      46.492   3.748   7.560  0.00  0.00    +0.000 C 
ATOM     15  N   UNL     1      45.291   3.231   6.926  0.00  0.00    +0.000 NA
ATOM     16  H   UNL     1      45.431   2.262   6.634  0.00  0.00    +0.000 HD
ENDBRANCH  10  12
ENDBRANCH   8  10
ENDBRANCH   2   3
BRANCH   2  17
ATOM     17  C   UNL     1      46.843   7.847  13.320  0.00  0.00    +0.000 C 
BRANCH  17  18
ATOM     18  N   UNL     1      48.068   7.325  13.943  0.00  0.00    +0.000 N 
ATOM     19  H   UNL     1      48.687   8.061  14.279  0.00  0.00    +0.000 HD
BRANCH  18  20
ATOM     20  C   UNL     1      47.936   6.281  14.871  0.00  0.00    +0.000 A 
ATOM     21  C   UNL     1      47.177   5.133  14.635  0.00  0.00    +0.000 A 
ATOM     22  C   UNL     1      47.137   4.095  15.564  0.00  0.00    +0.000 A 
ATOM     23  C   UNL     1      47.896   4.215  16.717  0.00  0.00    +0.000 A 
ATOM     24  N   UNL     1      48.692   5.284  16.986  0.00  0.00    +0.000 NA
ATOM     25  C   UNL     1      48.700   6.265  16.047  0.00  0.00    +0.000 A 
BRANCH  23  26
ATOM     26  C   UNL     1      47.862   3.111  17.732  0.00  0.00    +0.000 C 
ATOM     27  N   UNL     1      48.852   3.139  18.672  0.00  0.00    +0.000 N 
ATOM     28  O   UNL     1      47.000   2.235  17.729  0.00  0.00    +0.000 OA
ATOM     29  H   UNL     1      49.557   3.868  18.636  0.00  0.00    +0.000 HD
ATOM     30  H   UNL     1      48.892   2.413  19.370  0.00  0.00    +0.000 HD
ENDBRANCH  23  26
ENDBRANCH  18  20
ENDBRANCH  17  18
ENDBRANCH   2  17
TORSDOF 7
ENDMDL
MODEL 8
REMARK VINA RESULT:    -6.551      3.201      4.677
REMARK INTER + INTRA:          -9.828
REMARK INTER:                  -8.686
REMARK INTRA:                  -1.142
REMARK UNBOUND:                -0.596
REMARK  Name = 
REMARK  9 active torsions:
REMARK  status: ('A' for Active; 'I' for Inactive)
REMARK    1  A    between atoms: C_1  and  C_2
REMARK    2  A    between atoms: C_2  and  C_3
REMARK    3  A    between atoms: C_2  and  C_14
REMARK    4  A    between atoms: C_3  and  N_4
REMARK    5  A    between atoms: N_4  and  C_5
REMARK    6  A    between atoms: C_8  and  C_9
REMARK    7  A    between atoms: C_19  and  N_20
REMARK    8  A    between atoms: N_20  and  C_21
REMARK    9  A    between atoms: C_21  and  C_22
REMARK                            x       y       z     vdW  Elec       q    Type
REMARK                         _______ _______ _______ _____ _____    ______ ____
ROOT
ATOM      1  C   UNL     1      49.241   8.405  11.949  0.00  0.00    +0.000 C 
ATOM      2  C   UNL     1      48.126   7.779  12.800  0.00  0.00    +0.000 C 
ENDROOT
BRANCH   2   3
ATOM      3  C   UNL     1      48.397   7.823  14.303  0.00  0.00    +0.000 A 
ATOM      4  C   UNL     1      48.211   8.977  15.074  0.00  0.00    +0.000 A 
ATOM      5  C   UNL     1      48.429   8.938  16.448  0.00  0.00    +0.000 A 
ATOM      6  F   UNL     1      48.242  10.048  17.173  0.00  0.00    +0.000 F 
ATOM      7  C   UNL     1      48.830   7.768  17.087  0.00  0.00    +0.000 A 
ATOM      8  C   UNL     1      49.005   6.592  16.353  0.00  0.00    +0.000 A 
ATOM      9  C   UNL     1      48.791   6.640  14.965  0.00  0.00    +0.000 A 
BRANCH   8  10
ATOM     10  N   UNL     1      49.456   5.428  17.014  0.00  0.00    +0.000 N 
ATOM     11  H   UNL     1      50.116   5.615  17.764  0.00  0.00    +0.000 HD
BRANCH  10  12
ATOM     12  C   UNL     1      48.570   4.297  17.289  0.00  0.00    +0.000 C 
ATOM     13  C   UNL     1      47.160   4.640  17.693  0.00  0.00    +0.000 C 
ATOM     14  C   UNL     1      49.135   2.923  17.596  0.00  0.00    +0.000 C 
ATOM     15  N   UNL     1      48.713   3.275  16.251  0.00  0.00    +0.000 NA
ATOM     16  H   UNL     1      47.811   2.845  16.037  0.00  0.00    +0.000 HD
ENDBRANCH  10  12
ENDBRANCH   8  10
ENDBRANCH   2   3
BRANCH   2  17
ATOM     17  C   UNL     1      46.757   8.442  12.519  0.00  0.00    +0.000 C 
BRANCH  17  18
ATOM     18  N   UNL     1      45.649   7.733  13.174  0.00  0.00    +0.000 N 
ATOM     19  H   UNL     1      44.839   8.329  13.337  0.00  0.00    +0.000 HD
BRANCH  18  20
ATOM     20  C   UNL     1      45.286   6.476  12.668  0.00  0.00    +0.000 A 
ATOM     21  C   UNL     1      45.562   5.275  13.325  0.00  0.00    +0.000 A 
ATOM     22  C   UNL     1      45.116   4.057  12.811  0.00  0.00    +0.000 A 
ATOM     23  C   UNL     1      44.363   4.070  11.648  0.00  0.00    +0.000 A 
ATOM     24  N   UNL     1      44.020   5.207  10.987  0.00  0.00    +0.000 NA
ATOM     25  C   UNL     1      44.473   6.367  11.530  0.00  0.00    +0.000 A 
BRANCH  23  26
ATOM     26  C   UNL     1      43.879   2.771  11.077  0.00  0.00    +0.000 C 
ATOM     27  N   UNL     1      44.562   2.311   9.986  0.00  0.00    +0.000 N 
ATOM     28  O   UNL     1      42.932   2.150  11.553  0.00  0.00    +0.000 OA
ATOM     29  H   UNL     1      45.328   2.858   9.609  0.00  0.00    +0.000 HD
ATOM     30  H   UNL     1      44.271   1.452   9.547  0.00  0.00    +0.000 HD
ENDBRANCH  23  26
ENDBRANCH  18  20
ENDBRANCH  17  18
ENDBRANCH   2  17
TORSDOF 7
ENDMDL
MODEL 9
REMARK VINA RESULT:    -6.471      3.884      7.343
REMARK INTER + INTRA:          -9.714
REMARK INTER:                  -8.531
REMARK INTRA:                  -1.183
REMARK UNBOUND:                -0.596
REMARK  Name = 
REMARK  9 active torsions:
REMARK  status: ('A' for Active; 'I' for Inactive)
REMARK    1  A    between atoms: C_1  and  C_2
REMARK    2  A    between atoms: C_2  and  C_3
REMARK    3  A    between atoms: C_2  and  C_14
REMARK    4  A    between atoms: C_3  and  N_4
REMARK    5  A    between atoms: N_4  and  C_5
REMARK    6  A    between atoms: C_8  and  C_9
REMARK    7  A    between atoms: C_19  and  N_20
REMARK    8  A    between atoms: N_20  and  C_21
REMARK    9  A    between atoms: C_21  and  C_22
REMARK                            x       y       z     vdW  Elec       q    Type
REMARK                         _______ _______ _______ _____ _____    ______ ____
ROOT
ATOM      1  C   UNL     1      49.656   7.622  11.850  0.00  0.00    +0.000 C 
ATOM      2  C   UNL     1      48.650   8.605  12.465  0.00  0.00    +0.000 C 
ENDROOT
BRANCH   2   3
ATOM      3  C   UNL     1      47.194   8.292  12.125  0.00  0.00    +0.000 A 
ATOM      4  C   UNL     1      46.195   9.273  12.085  0.00  0.00    +0.000 A 
ATOM      5  C   UNL     1      44.897   8.930  11.719  0.00  0.00    +0.000 A 
ATOM      6  F   UNL     1      43.954   9.880  11.681  0.00  0.00    +0.000 F 
ATOM      7  C   UNL     1      44.558   7.622  11.385  0.00  0.00    +0.000 A 
ATOM      8  C   UNL     1      45.532   6.620  11.392  0.00  0.00    +0.000 A 
ATOM      9  C   UNL     1      46.840   6.971  11.771  0.00  0.00    +0.000 A 
BRANCH   8  10
ATOM     10  N   UNL     1      45.157   5.292  11.094  0.00  0.00    +0.000 N 
ATOM     11  H   UNL     1      45.696   4.875  10.339  0.00  0.00    +0.000 HD
BRANCH  10  12
ATOM     12  C   UNL     1      44.787   4.335  12.138  0.00  0.00    +0.000 C 
ATOM     13  C   UNL     1      43.540   4.654  12.918  0.00  0.00    +0.000 C 
ATOM     14  C   UNL     1      45.806   3.362  12.698  0.00  0.00    +0.000 C 
ATOM     15  N   UNL     1      44.900   2.966  11.633  0.00  0.00    +0.000 NA
ATOM     16  H   UNL     1      44.150   2.378  12.004  0.00  0.00    +0.000 HD
ENDBRANCH  10  12
ENDBRANCH   8  10
ENDBRANCH   2   3
BRANCH   2  17
ATOM     17  C   UNL     1      48.799   8.685  14.002  0.00  0.00    +0.000 C 
BRANCH  17  18
ATOM     18  N   UNL     1      49.668   7.625  14.534  0.00  0.00    +0.000 N 
ATOM     19  H   UNL     1      50.518   7.988  14.961  0.00  0.00    +0.000 HD
BRANCH  18  20
ATOM     20  C   UNL     1      49.074   6.620  15.311  0.00  0.00    +0.000 A 
ATOM     21  C   UNL     1      48.029   5.812  14.855  0.00  0.00    +0.000 A 
ATOM     22  C   UNL     1      47.523   4.781  15.645  0.00  0.00    +0.000 A 
ATOM     23  C   UNL     1      48.103   4.554  16.882  0.00  0.00    +0.000 A 
ATOM     24  N   UNL     1      49.151   5.273  17.364  0.00  0.00    +0.000 NA
ATOM     25  C   UNL     1      49.612   6.262  16.556  0.00  0.00    +0.000 A 
BRANCH  23  26
ATOM     26  C   UNL     1      47.568   3.453  17.749  0.00  0.00    +0.000 C 
ATOM     27  N   UNL     1      48.302   3.167  18.866  0.00  0.00    +0.000 N 
ATOM     28  O   UNL     1      46.535   2.843  17.483  0.00  0.00    +0.000 OA
ATOM     29  H   UNL     1      49.158   3.680  19.046  0.00  0.00    +0.000 HD
ATOM     30  H   UNL     1      48.002   2.424  19.477  0.00  0.00    +0.000 HD
ENDBRANCH  23  26
ENDBRANCH  18  20
ENDBRANCH  17  18
ENDBRANCH   2  17
TORSDOF 7
ENDMDL
