MODEL 1
REMARK VINA RESULT:    -7.366      0.000      0.000
REMARK INTER + INTRA:         -11.808
REMARK INTER:                 -10.380
REMARK INTRA:                  -1.428
REMARK UNBOUND:                -1.428
REMARK  Name = 
REMARK  8 active torsions:
REMARK  status: ('A' for Active; 'I' for Inactive)
REMARK    1  A    between atoms: C_1  and  C_2
REMARK    2  A    between atoms: C_2  and  N_3
REMARK    3  A    between atoms: N_3  and  C_4
REMARK    4  A    between atoms: C_4  and  C_5
REMARK    5  A    between atoms: C_8  and  C_9
REMARK    6  A    between atoms: C_9  and  N_10
REMARK    7  A    between atoms: C_11  and  C_13
REMARK    8  A    between atoms: C_20  and  C_22
REMARK                            x       y       z     vdW  Elec       q    Type
REMARK                         _______ _______ _______ _____ _____    ______ ____
ROOT
ATOM      1  C   UNL     1      47.363   7.635  13.746  0.00  0.00    +0.000 C 
ENDROOT
BRANCH   1   2
ATOM      2  C   UNL     1      46.428   6.521  13.346  0.00  0.00    +0.000 A 
ATOM      3  C   UNL     1      45.333   6.790  12.508  0.00  0.00    +0.000 A 
ATOM      4  C   UNL     1      44.597   5.746  11.943  0.00  0.00    +0.000 A 
ATOM      5  C   UNL     1      44.932   4.415  12.216  0.00  0.00    +0.000 A 
ATOM      6  C   UNL     1      45.991   4.149  13.097  0.00  0.00    +0.000 A 
ATOM      7  C   UNL     1      46.725   5.193  13.667  0.00  0.00    +0.000 A 
BRANCH   5   8
ATOM      8  C   UNL     1      44.242   3.290  11.489  0.00  0.00    +0.000 C 
BRANCH   8   9
ATOM      9  N   UNL     1      45.102   2.768  10.454  0.00  0.00    +0.000 N 
ATOM     10  C   UNL     1      45.012   3.182   9.144  0.00  0.00    +0.000 C 
ATOM     11  O   UNL     1      44.195   4.030   8.796  0.00  0.00    +0.000 OA
ATOM     12  H   UNL     1      45.809   2.089  10.703  0.00  0.00    +0.000 HD
BRANCH  10  13
ATOM     13  C   UNL     1      45.937   2.553   8.221  0.00  0.00    +0.000 A 
ATOM     14  C   UNL     1      46.254   1.211   8.132  0.00  0.00    +0.000 A 
ATOM     15  N   UNL     1      47.181   0.869   7.164  0.00  0.00    +0.000 NA
ATOM     16  C   UNL     1      47.558   1.954   6.528  0.00  0.00    +0.000 A 
ATOM     17  S   UNL     1      46.833   3.421   7.040  0.00  0.00    +0.000 S 
ENDBRANCH  10  13
ENDBRANCH   8   9
ENDBRANCH   5   8
ENDBRANCH   1   2
BRANCH   1  18
ATOM     18  N   UNL     1      48.809   7.461  13.649  0.00  0.00    +0.000 N 
ATOM     19  C   UNL     1      49.675   7.666  14.743  0.00  0.00    +0.000 C 
ATOM     20  O   UNL     1      50.889   7.502  14.638  0.00  0.00    +0.000 OA
BRANCH  19  21
ATOM     21  C   UNL     1      49.117   8.038  16.052  0.00  0.00    +0.000 A 
ATOM     22  C   UNL     1      48.844   9.335  16.459  0.00  0.00    +0.000 A 
ATOM     23  S   UNL     1      48.111   9.431  17.999  0.00  0.00    +0.000 S 
ATOM     24  C   UNL     1      48.002   7.737  18.107  0.00  0.00    +0.000 A 
ATOM     25  N   UNL     1      47.357   7.141  19.144  0.00  0.00    +0.000 NA
ATOM     26  C   UNL     1      47.288   5.854  19.052  0.00  0.00    +0.000 A 
ATOM     27  N   UNL     1      47.847   5.110  18.043  0.00  0.00    +0.000 N 
ATOM     28  C   UNL     1      48.625   5.661  17.048  0.00  0.00    +0.000 A 
ATOM     29  O   UNL     1      49.306   4.957  16.309  0.00  0.00    +0.000 OA
ATOM     30  C   UNL     1      48.614   7.112  17.037  0.00  0.00    +0.000 A 
ATOM     31  H   UNL     1      47.819   4.102  18.070  0.00  0.00    +0.000 HD
ENDBRANCH  19  21
BRANCH  18  33
ATOM     32  C   UNL     1      49.521   8.016  11.339  0.00  0.00    +0.000 C 
ATOM     33  C   UNL     1      49.414   6.946  12.417  0.00  0.00    +0.000 C 
ENDBRANCH  18  33
ENDBRANCH   1  18
TORSDOF 7
ENDMDL
MODEL 2
REMARK VINA RESULT:    -7.344      3.297      8.184
REMARK INTER + INTRA:         -11.778
REMARK INTER:                 -10.637
REMARK INTRA:                  -1.141
REMARK UNBOUND:                -1.428
REMARK  Name = 
REMARK  8 active torsions:
REMARK  status: ('A' for Active; 'I' for Inactive)
REMARK    1  A    between atoms: C_1  and  C_2
REMARK    2  A    between atoms: C_2  and  N_3
REMARK    3  A    between atoms: N_3  and  C_4
REMARK    4  A    between atoms: C_4  and  C_5
REMARK    5  A    between atoms: C_8  and  C_9
REMARK    6  A    between atoms: C_9  and  N_10
REMARK    7  A    between atoms: C_11  and  C_13
REMARK    8  A    between atoms: C_20  and  C_22
REMARK                            x       y       z     vdW  Elec       q    Type
REMARK                         _______ _______ _______ _____ _____    ______ ____
ROOT
ATOM      1  C   UNL     1      47.488   6.107  12.671  0.00  0.00    +0.000 C 
ENDROOT
BRANCH   1   2
ATOM      2  C   UNL     1      47.498   5.646  14.107  0.00  0.00    +0.000 A 
ATOM      3  C   UNL     1      46.821   4.470  14.473  0.00  0.00    +0.000 A 
ATOM      4  C   UNL     1      47.008   3.906  15.736  0.00  0.00    +0.000 A 
ATOM      5  C   UNL     1      47.863   4.513  16.663  0.00  0.00    +0.000 A 
ATOM      6  C   UNL     1      48.495   5.717  16.316  0.00  0.00    +0.000 A 
ATOM      7  C   UNL     1      48.305   6.285  15.054  0.00  0.00    +0.000 A 
BRANCH   5   8
ATOM      8  C   UNL     1      48.187   3.828  17.965  0.00  0.00    +0.000 C 
BRANCH   8   9
ATOM      9  N   UNL     1      49.607   3.585  18.057  0.00  0.00    +0.000 N 
ATOM     10  C   UNL     1      50.228   2.576  17.357  0.00  0.00    +0.000 C 
ATOM     11  O   UNL     1      49.597   1.835  16.607  0.00  0.00    +0.000 OA
ATOM     12  H   UNL     1      50.169   4.190  18.641  0.00  0.00    +0.000 HD
BRANCH  10  13
ATOM     13  C   UNL     1      51.658   2.451  17.567  0.00  0.00    +0.000 A 
ATOM     14  C   UNL     1      52.412   1.293  17.556  0.00  0.00    +0.000 A 
ATOM     15  N   UNL     1      53.765   1.448  17.797  0.00  0.00    +0.000 NA
ATOM     16  C   UNL     1      54.025   2.721  17.989  0.00  0.00    +0.000 A 
ATOM     17  S   UNL     1      52.687   3.789  17.889  0.00  0.00    +0.000 S 
ENDBRANCH  10  13
ENDBRANCH   8   9
ENDBRANCH   5   8
ENDBRANCH   1   2
BRANCH   1  18
ATOM     18  N   UNL     1      46.563   7.148  12.233  0.00  0.00    +0.000 N 
ATOM     19  C   UNL     1      45.274   6.861  11.738  0.00  0.00    +0.000 C 
ATOM     20  O   UNL     1      44.509   7.757  11.385  0.00  0.00    +0.000 OA
BRANCH  19  21
ATOM     21  C   UNL     1      44.809   5.466  11.683  0.00  0.00    +0.000 A 
ATOM     22  C   UNL     1      44.066   4.839  12.671  0.00  0.00    +0.000 A 
ATOM     23  S   UNL     1      43.597   3.246  12.269  0.00  0.00    +0.000 S 
ATOM     24  C   UNL     1      44.246   3.397  10.705  0.00  0.00    +0.000 A 
ATOM     25  N   UNL     1      44.081   2.416   9.779  0.00  0.00    +0.000 NA
ATOM     26  C   UNL     1      44.561   2.703   8.615  0.00  0.00    +0.000 A 
ATOM     27  N   UNL     1      45.231   3.861   8.308  0.00  0.00    +0.000 N 
ATOM     28  C   UNL     1      45.541   4.819   9.249  0.00  0.00    +0.000 A 
ATOM     29  O   UNL     1      46.343   5.715   9.004  0.00  0.00    +0.000 OA
ATOM     30  C   UNL     1      44.904   4.600  10.533  0.00  0.00    +0.000 A 
ATOM     31  H   UNL     1      45.645   3.991   7.397  0.00  0.00    +0.000 HD
ENDBRANCH  19  21
BRANCH  18  33
ATOM     32  C   UNL     1      48.309   8.878  11.907  0.00  0.00    +0.000 C 
ATOM     33  C   UNL     1      46.904   8.564  12.401  0.00  0.00    +0.000 C 
ENDBRANCH  18  33
ENDBRANCH   1  18
TORSDOF 7
ENDMDL
MODEL 3
REMARK VINA RESULT:    -7.220      2.258      3.021
REMARK INTER + INTRA:         -11.602
REMARK INTER:                 -10.299
REMARK INTRA:                  -1.303
REMARK UNBOUND:                -1.428
REMARK  Name = 
REMARK  8 active torsions:
REMARK  status: ('A' for Active; 'I' for Inactive)
REMARK    1  A    between atoms: C_1  and  C_2
REMARK    2  A    between atoms: C_2  and  N_3
REMARK    3  A    between atoms: N_3  and  C_4
REMARK    4  A    between atoms: C_4  and  C_5
REMARK    5  A    between atoms: C_8  and  C_9
REMARK    6  A    between atoms: C_9  and  N_10
REMARK    7  A    between atoms: C_11  and  C_13
REMARK    8  A    between atoms: C_20  and  C_22
REMARK                            x       y       z     vdW  Elec       q    Type
REMARK                         _______ _______ _______ _____ _____    ______ ____
ROOT
ATOM      1  C   UNL     1      48.630   6.270  14.426  0.00  0.00    +0.000 C 
ENDROOT
BRANCH   1   2
ATOM      2  C   UNL     1      47.432   6.056  13.536  0.00  0.00    +0.000 A 
ATOM      3  C   UNL     1      47.219   6.895  12.429  0.00  0.00    +0.000 A 
ATOM      4  C   UNL     1      46.256   6.576  11.469  0.00  0.00    +0.000 A 
ATOM      5  C   UNL     1      45.478   5.420  11.604  0.00  0.00    +0.000 A 
ATOM      6  C   UNL     1      45.653   4.614  12.738  0.00  0.00    +0.000 A 
ATOM      7  C   UNL     1      46.613   4.934  13.702  0.00  0.00    +0.000 A 
BRANCH   5   8
ATOM      8  C   UNL     1      44.551   4.992  10.497  0.00  0.00    +0.000 C 
BRANCH   8   9
ATOM      9  N   UNL     1      45.291   4.292   9.474  0.00  0.00    +0.000 N 
ATOM     10  C   UNL     1      45.129   2.945   9.239  0.00  0.00    +0.000 C 
ATOM     11  O   UNL     1      44.333   2.273   9.891  0.00  0.00    +0.000 OA
ATOM     12  H   UNL     1      45.935   4.813   8.895  0.00  0.00    +0.000 HD
BRANCH  10  13
ATOM     13  C   UNL     1      45.955   2.386   8.187  0.00  0.00    +0.000 A 
ATOM     14  C   UNL     1      46.300   1.061   8.002  0.00  0.00    +0.000 A 
ATOM     15  N   UNL     1      47.115   0.792   6.917  0.00  0.00    +0.000 NA
ATOM     16  C   UNL     1      47.381   1.914   6.290  0.00  0.00    +0.000 A 
ATOM     17  S   UNL     1      46.679   3.333   6.949  0.00  0.00    +0.000 S 
ENDBRANCH  10  13
ENDBRANCH   8   9
ENDBRANCH   5   8
ENDBRANCH   1   2
BRANCH   1  18
ATOM     18  N   UNL     1      48.562   7.200  15.550  0.00  0.00    +0.000 N 
ATOM     19  C   UNL     1      48.458   6.768  16.888  0.00  0.00    +0.000 C 
ATOM     20  O   UNL     1      48.415   7.571  17.819  0.00  0.00    +0.000 OA
BRANCH  19  21
ATOM     21  C   UNL     1      48.450   5.328  17.190  0.00  0.00    +0.000 A 
ATOM     22  C   UNL     1      47.325   4.519  17.162  0.00  0.00    +0.000 A 
ATOM     23  S   UNL     1      47.658   2.871  17.465  0.00  0.00    +0.000 S 
ATOM     24  C   UNL     1      49.332   3.164  17.497  0.00  0.00    +0.000 A 
ATOM     25  N   UNL     1      50.222   2.141  17.601  0.00  0.00    +0.000 NA
ATOM     26  C   UNL     1      51.458   2.510  17.535  0.00  0.00    +0.000 A 
ATOM     27  N   UNL     1      51.883   3.810  17.423  0.00  0.00    +0.000 N 
ATOM     28  C   UNL     1      51.022   4.885  17.454  0.00  0.00    +0.000 A 
ATOM     29  O   UNL     1      51.438   6.031  17.597  0.00  0.00    +0.000 OA
ATOM     30  C   UNL     1      49.622   4.511  17.389  0.00  0.00    +0.000 A 
ATOM     31  H   UNL     1      52.866   4.035  17.451  0.00  0.00    +0.000 HD
ENDBRANCH  19  21
BRANCH  18  33
ATOM     32  C   UNL     1      49.725   8.950  14.234  0.00  0.00    +0.000 C 
ATOM     33  C   UNL     1      48.718   8.641  15.333  0.00  0.00    +0.000 C 
ENDBRANCH  18  33
ENDBRANCH   1  18
TORSDOF 7
ENDMDL
MODEL 4
REMARK VINA RESULT:    -7.160      3.253      7.844
REMARK INTER + INTRA:         -11.517
REMARK INTER:                 -10.283
REMARK INTRA:                  -1.235
REMARK UNBOUND:                -1.428
REMARK  Name = 
REMARK  8 active torsions:
REMARK  status: ('A' for Active; 'I' for Inactive)
REMARK    1  A    between atoms: C_1  and  C_2
REMARK    2  A    between atoms: C_2  and  N_3
REMARK    3  A    between atoms: N_3  and  C_4
REMARK    4  A    between atoms: C_4  and  C_5
REMARK    5  A    between atoms: C_8  and  C_9
REMARK    6  A    between atoms: C_9  and  N_10
REMARK    7  A    between atoms: C_11  and  C_13
REMARK    8  A    between atoms: C_20  and  C_22
REMARK                            x       y       z     vdW  Elec       q    Type
REMARK                         _______ _______ _______ _____ _____    ______ ____
ROOT
ATOM      1  C   UNL     1      47.243   6.708  12.083  0.00  0.00    +0.000 C 
ENDROOT
BRANCH   1   2
ATOM      2  C   UNL     1      47.541   5.872  13.302  0.00  0.00    +0.000 A 
ATOM      3  C   UNL     1      48.275   6.419  14.368  0.00  0.00    +0.000 A 
ATOM      4  C   UNL     1      48.363   5.748  15.589  0.00  0.00    +0.000 A 
ATOM      5  C   UNL     1      47.731   4.511  15.765  0.00  0.00    +0.000 A 
ATOM      6  C   UNL     1      47.046   3.940  14.683  0.00  0.00    +0.000 A 
ATOM      7  C   UNL     1      46.961   4.608  13.458  0.00  0.00    +0.000 A 
BRANCH   5   8
ATOM      8  C   UNL     1      47.693   3.860  17.122  0.00  0.00    +0.000 C 
BRANCH   8   9
ATOM      9  N   UNL     1      49.029   3.506  17.540  0.00  0.00    +0.000 N 
ATOM     10  C   UNL     1      49.715   2.445  16.993  0.00  0.00    +0.000 C 
ATOM     11  O   UNL     1      49.219   1.751  16.108  0.00  0.00    +0.000 OA
ATOM     12  H   UNL     1      49.485   4.069  18.245  0.00  0.00    +0.000 HD
BRANCH  10  13
ATOM     13  C   UNL     1      51.041   2.210  17.529  0.00  0.00    +0.000 A 
ATOM     14  C   UNL     1      51.700   1.000  17.644  0.00  0.00    +0.000 A 
ATOM     15  N   UNL     1      52.963   1.049  18.204  0.00  0.00    +0.000 NA
ATOM     16  C   UNL     1      53.252   2.293  18.509  0.00  0.00    +0.000 A 
ATOM     17  S   UNL     1      52.048   3.458  18.145  0.00  0.00    +0.000 S 
ENDBRANCH  10  13
ENDBRANCH   8   9
ENDBRANCH   5   8
ENDBRANCH   1   2
BRANCH   1  18
ATOM     18  N   UNL     1      46.096   7.612  12.065  0.00  0.00    +0.000 N 
ATOM     19  C   UNL     1      44.891   7.298  11.405  0.00  0.00    +0.000 C 
ATOM     20  O   UNL     1      43.935   8.072  11.414  0.00  0.00    +0.000 OA
BRANCH  19  21
ATOM     21  C   UNL     1      44.748   6.000  10.728  0.00  0.00    +0.000 A 
ATOM     22  C   UNL     1      45.300   5.682   9.497  0.00  0.00    +0.000 A 
ATOM     23  S   UNL     1      45.036   4.062   9.025  0.00  0.00    +0.000 S 
ATOM     24  C   UNL     1      44.305   3.695  10.515  0.00  0.00    +0.000 A 
ATOM     25  N   UNL     1      43.942   2.422  10.824  0.00  0.00    +0.000 NA
ATOM     26  C   UNL     1      43.470   2.283  12.018  0.00  0.00    +0.000 A 
ATOM     27  N   UNL     1      43.285   3.309  12.911  0.00  0.00    +0.000 N 
ATOM     28  C   UNL     1      43.509   4.630  12.591  0.00  0.00    +0.000 A 
ATOM     29  O   UNL     1      43.108   5.537  13.314  0.00  0.00    +0.000 OA
ATOM     30  C   UNL     1      44.167   4.816  11.311  0.00  0.00    +0.000 A 
ATOM     31  H   UNL     1      42.843   3.143  13.802  0.00  0.00    +0.000 HD
ENDBRANCH  19  21
BRANCH  18  33
ATOM     32  C   UNL     1      46.898   9.957  12.146  0.00  0.00    +0.000 C 
ATOM     33  C   UNL     1      46.117   8.853  12.845  0.00  0.00    +0.000 C 
ENDBRANCH  18  33
ENDBRANCH   1  18
TORSDOF 7
ENDMDL
MODEL 5
REMARK VINA RESULT:    -6.930      1.447      2.019
REMARK INTER + INTRA:         -11.194
REMARK INTER:                  -9.778
REMARK INTRA:                  -1.417
REMARK UNBOUND:                -1.428
REMARK  Name = 
REMARK  8 active torsions:
REMARK  status: ('A' for Active; 'I' for Inactive)
REMARK    1  A    between atoms: C_1  and  C_2
REMARK    2  A    between atoms: C_2  and  N_3
REMARK    3  A    between atoms: N_3  and  C_4
REMARK    4  A    between atoms: C_4  and  C_5
REMARK    5  A    between atoms: C_8  and  C_9
REMARK    6  A    between atoms: C_9  and  N_10
REMARK    7  A    between atoms: C_11  and  C_13
REMARK    8  A    between atoms: C_20  and  C_22
REMARK                            x       y       z     vdW  Elec       q    Type
REMARK                         _______ _______ _______ _____ _____    ______ ____
ROOT
ATOM      1  C   UNL     1      47.170   8.042  13.768  0.00  0.00    +0.000 C 
ENDROOT
BRANCH   1   2
ATOM      2  C   UNL     1      46.262   7.033  13.111  0.00  0.00    +0.000 A 
ATOM      3  C   UNL     1      45.284   7.457  12.195  0.00  0.00    +0.000 A 
ATOM      4  C   UNL     1      44.595   6.531  11.410  0.00  0.00    +0.000 A 
ATOM      5  C   UNL     1      44.859   5.162  11.535  0.00  0.00    +0.000 A 
ATOM      6  C   UNL     1      45.795   4.736  12.489  0.00  0.00    +0.000 A 
ATOM      7  C   UNL     1      46.482   5.662  13.279  0.00  0.00    +0.000 A 
BRANCH   5   8
ATOM      8  C   UNL     1      44.234   4.174  10.585  0.00  0.00    +0.000 C 
BRANCH   8   9
ATOM      9  N   UNL     1      45.186   3.792   9.569  0.00  0.00    +0.000 N 
ATOM     10  C   UNL     1      45.167   2.553   8.971  0.00  0.00    +0.000 C 
ATOM     11  O   UNL     1      44.324   1.711   9.271  0.00  0.00    +0.000 OA
ATOM     12  H   UNL     1      45.879   4.466   9.272  0.00  0.00    +0.000 HD
BRANCH  10  13
ATOM     13  C   UNL     1      46.198   2.317   7.979  0.00  0.00    +0.000 A 
ATOM     14  C   UNL     1      46.833   1.123   7.694  0.00  0.00    +0.000 A 
ATOM     15  N   UNL     1      47.796   1.170   6.702  0.00  0.00    +0.000 NA
ATOM     16  C   UNL     1      47.882   2.397   6.244  0.00  0.00    +0.000 A 
ATOM     17  S   UNL     1      46.830   3.547   6.960  0.00  0.00    +0.000 S 
ENDBRANCH  10  13
ENDBRANCH   8   9
ENDBRANCH   5   8
ENDBRANCH   1   2
BRANCH   1  18
ATOM     18  N   UNL     1      48.618   7.951  13.609  0.00  0.00    +0.000 N 
ATOM     19  C   UNL     1      49.469   7.504  14.640  0.00  0.00    +0.000 C 
ATOM     20  O   UNL     1      50.686   7.425  14.478  0.00  0.00    +0.000 OA
BRANCH  19  21
ATOM     21  C   UNL     1      48.894   7.075  15.924  0.00  0.00    +0.000 A 
ATOM     22  C   UNL     1      48.663   5.758  16.290  0.00  0.00    +0.000 A 
ATOM     23  S   UNL     1      48.077   5.581  17.884  0.00  0.00    +0.000 S 
ATOM     24  C   UNL     1      48.252   7.245  18.186  0.00  0.00    +0.000 A 
ATOM     25  N   UNL     1      48.031   7.761  19.424  0.00  0.00    +0.000 NA
ATOM     26  C   UNL     1      48.277   9.025  19.520  0.00  0.00    +0.000 A 
ATOM     27  N   UNL     1      48.677   9.826  18.479  0.00  0.00    +0.000 N 
ATOM     28  C   UNL     1      48.779   9.374  17.182  0.00  0.00    +0.000 A 
ATOM     29  O   UNL     1      48.899  10.155  16.243  0.00  0.00    +0.000 OA
ATOM     30  C   UNL     1      48.645   7.935  17.055  0.00  0.00    +0.000 A 
ATOM     31  H   UNL     1      48.781  10.822  18.607  0.00  0.00    +0.000 HD
ENDBRANCH  19  21
BRANCH  18  33
ATOM     32  C   UNL     1      48.560   9.361  11.569  0.00  0.00    +0.000 C 
ATOM     33  C   UNL     1      49.241   8.218  12.309  0.00  0.00    +0.000 C 
ENDBRANCH  18  33
ENDBRANCH   1  18
TORSDOF 7
ENDMDL
MODEL 6
REMARK VINA RESULT:    -6.657      2.109      3.367
REMARK INTER + INTRA:         -10.809
REMARK INTER:                  -9.537
REMARK INTRA:                  -1.272
REMARK UNBOUND:                -1.428
REMARK  Name = 
REMARK  8 active torsions:
REMARK  status: ('A' for Active; 'I' for Inactive)
REMARK    1  A    between atoms: C_1  and  C_2
REMARK    2  A    between atoms: C_2  and  N_3
REMARK    3  A    between atoms: N_3  and  C_4
REMARK    4  A    between atoms: C_4  and  C_5
REMARK    5  A    between atoms: C_8  and  C_9
REMARK    6  A    between atoms: C_9  and  N_10
REMARK    7  A    between atoms: C_11  and  C_13
REMARK    8  A    between atoms: C_20  and  C_22
REMARK                            x       y       z     vdW  Elec       q    Type
REMARK                         _______ _______ _______ _____ _____    ______ ____
ROOT
ATOM      1  C   UNL     1      48.101   4.775  14.974  0.00  0.00    +0.000 C 
ENDROOT
BRANCH   1   2
ATOM      2  C   UNL     1      46.990   4.692  13.959  0.00  0.00    +0.000 A 
ATOM      3  C   UNL     1      46.551   5.853  13.300  0.00  0.00    +0.000 A 
ATOM      4  C   UNL     1      45.693   5.766  12.202  0.00  0.00    +0.000 A 
ATOM      5  C   UNL     1      45.246   4.519  11.749  0.00  0.00    +0.000 A 
ATOM      6  C   UNL     1      45.640   3.365  12.442  0.00  0.00    +0.000 A 
ATOM      7  C   UNL     1      46.495   3.451  13.545  0.00  0.00    +0.000 A 
BRANCH   5   8
ATOM      8  C   UNL     1      44.449   4.411  10.476  0.00  0.00    +0.000 C 
BRANCH   8   9
ATOM      9  N   UNL     1      45.295   3.952   9.400  0.00  0.00    +0.000 N 
ATOM     10  C   UNL     1      45.275   2.651   8.950  0.00  0.00    +0.000 C 
ATOM     11  O   UNL     1      44.521   1.816   9.443  0.00  0.00    +0.000 OA
ATOM     12  H   UNL     1      45.910   4.615   8.946  0.00  0.00    +0.000 HD
BRANCH  10  13
ATOM     13  C   UNL     1      46.194   2.344   7.871  0.00  0.00    +0.000 A 
ATOM     14  C   UNL     1      46.842   1.146   7.634  0.00  0.00    +0.000 A 
ATOM     15  N   UNL     1      47.681   1.118   6.534  0.00  0.00    +0.000 NA
ATOM     16  C   UNL     1      47.662   2.293   5.949  0.00  0.00    +0.000 A 
ATOM     17  S   UNL     1      46.652   3.479   6.666  0.00  0.00    +0.000 S 
ENDBRANCH  10  13
ENDBRANCH   8   9
ENDBRANCH   5   8
ENDBRANCH   1   2
BRANCH   1  18
ATOM     18  N   UNL     1      47.801   4.984  16.388  0.00  0.00    +0.000 N 
ATOM     19  C   UNL     1      48.318   6.071  17.122  0.00  0.00    +0.000 C 
ATOM     20  O   UNL     1      48.041   6.231  18.310  0.00  0.00    +0.000 OA
BRANCH  19  21
ATOM     21  C   UNL     1      49.169   7.065  16.450  0.00  0.00    +0.000 A 
ATOM     22  C   UNL     1      48.731   8.292  15.975  0.00  0.00    +0.000 A 
ATOM     23  S   UNL     1      49.980   9.262  15.330  0.00  0.00    +0.000 S 
ATOM     24  C   UNL     1      51.165   8.137  15.800  0.00  0.00    +0.000 A 
ATOM     25  N   UNL     1      52.488   8.407  15.650  0.00  0.00    +0.000 NA
ATOM     26  C   UNL     1      53.270   7.493  16.121  0.00  0.00    +0.000 A 
ATOM     27  N   UNL     1      52.847   6.315  16.684  0.00  0.00    +0.000 N 
ATOM     28  C   UNL     1      51.522   5.940  16.730  0.00  0.00    +0.000 A 
ATOM     29  O   UNL     1      51.194   4.791  17.011  0.00  0.00    +0.000 OA
ATOM     30  C   UNL     1      50.605   6.994  16.338  0.00  0.00    +0.000 A 
ATOM     31  H   UNL     1      53.512   5.610  16.965  0.00  0.00    +0.000 HD
ENDBRANCH  19  21
BRANCH  18  33
ATOM     32  C   UNL     1      47.488   2.839  17.593  0.00  0.00    +0.000 C 
ATOM     33  C   UNL     1      46.841   4.118  17.079  0.00  0.00    +0.000 C 
ENDBRANCH  18  33
ENDBRANCH   1  18
TORSDOF 7
ENDMDL
MODEL 7
REMARK VINA RESULT:    -6.427      3.441      5.537
REMARK INTER + INTRA:         -10.485
REMARK INTER:                  -8.782
REMARK INTRA:                  -1.703
REMARK UNBOUND:                -1.428
REMARK  Name = 
REMARK  8 active torsions:
REMARK  status: ('A' for Active; 'I' for Inactive)
REMARK    1  A    between atoms: C_1  and  C_2
REMARK    2  A    between atoms: C_2  and  N_3
REMARK    3  A    between atoms: N_3  and  C_4
REMARK    4  A    between atoms: C_4  and  C_5
REMARK    5  A    between atoms: C_8  and  C_9
REMARK    6  A    between atoms: C_9  and  N_10
REMARK    7  A    between atoms: C_11  and  C_13
REMARK    8  A    between atoms: C_20  and  C_22
REMARK                            x       y       z     vdW  Elec       q    Type
REMARK                         _______ _______ _______ _____ _____    ______ ____
ROOT
ATOM      1  C   UNL     1      50.372   7.692  17.869  0.00  0.00    +0.000 C 
ENDROOT
BRANCH   1   2
ATOM      2  C   UNL     1      49.629   7.941  16.581  0.00  0.00    +0.000 A 
ATOM      3  C   UNL     1      49.503   6.913  15.631  0.00  0.00    +0.000 A 
ATOM      4  C   UNL     1      48.633   7.047  14.548  0.00  0.00    +0.000 A 
ATOM      5  C   UNL     1      47.882   8.217  14.385  0.00  0.00    +0.000 A 
ATOM      6  C   UNL     1      48.050   9.265  15.302  0.00  0.00    +0.000 A 
ATOM      7  C   UNL     1      48.924   9.134  16.384  0.00  0.00    +0.000 A 
BRANCH   5   8
ATOM      8  C   UNL     1      46.831   8.305  13.309  0.00  0.00    +0.000 C 
BRANCH   8   9
ATOM      9  N   UNL     1      46.144   7.041  13.183  0.00  0.00    +0.000 N 
ATOM     10  C   UNL     1      45.144   6.836  12.260  0.00  0.00    +0.000 C 
ATOM     11  O   UNL     1      44.793   7.725  11.488  0.00  0.00    +0.000 OA
ATOM     12  H   UNL     1      46.422   6.273  13.779  0.00  0.00    +0.000 HD
BRANCH  10  13
ATOM     13  C   UNL     1      44.543   5.516  12.267  0.00  0.00    +0.000 A 
ATOM     14  C   UNL     1      44.771   4.493  13.167  0.00  0.00    +0.000 A 
ATOM     15  N   UNL     1      44.072   3.320  12.942  0.00  0.00    +0.000 NA
ATOM     16  C   UNL     1      43.323   3.464  11.874  0.00  0.00    +0.000 A 
ATOM     17  S   UNL     1      43.405   4.988  11.092  0.00  0.00    +0.000 S 
ENDBRANCH  10  13
ENDBRANCH   8   9
ENDBRANCH   5   8
ENDBRANCH   1   2
BRANCH   1  18
ATOM     18  N   UNL     1      49.649   7.322  19.083  0.00  0.00    +0.000 N 
ATOM     19  C   UNL     1      49.518   5.986  19.512  0.00  0.00    +0.000 C 
ATOM     20  O   UNL     1      48.914   5.701  20.544  0.00  0.00    +0.000 OA
BRANCH  19  21
ATOM     21  C   UNL     1      50.155   4.908  18.740  0.00  0.00    +0.000 A 
ATOM     22  C   UNL     1      51.467   4.489  18.896  0.00  0.00    +0.000 A 
ATOM     23  S   UNL     1      51.881   3.150  17.920  0.00  0.00    +0.000 S 
ATOM     24  C   UNL     1      50.280   2.995  17.368  0.00  0.00    +0.000 A 
ATOM     25  N   UNL     1      49.908   1.955  16.576  0.00  0.00    +0.000 NA
ATOM     26  C   UNL     1      48.646   1.928  16.300  0.00  0.00    +0.000 A 
ATOM     27  N   UNL     1      47.736   2.872  16.703  0.00  0.00    +0.000 N 
ATOM     28  C   UNL     1      48.093   4.013  17.387  0.00  0.00    +0.000 A 
ATOM     29  O   UNL     1      47.309   4.948  17.520  0.00  0.00    +0.000 OA
ATOM     30  C   UNL     1      49.473   4.015  17.835  0.00  0.00    +0.000 A 
ATOM     31  H   UNL     1      46.777   2.830  16.390  0.00  0.00    +0.000 HD
ENDBRANCH  19  21
BRANCH  18  33
ATOM     32  C   UNL     1      47.652   8.652  19.709  0.00  0.00    +0.000 C 
ATOM     33  C   UNL     1      49.121   8.357  19.977  0.00  0.00    +0.000 C 
ENDBRANCH  18  33
ENDBRANCH   1  18
TORSDOF 7
ENDMDL
MODEL 8
REMARK VINA RESULT:    -6.339      2.786      4.374
REMARK INTER + INTRA:         -10.362
REMARK INTER:                  -9.041
REMARK INTRA:                  -1.321
REMARK UNBOUND:                -1.428
REMARK  Name = 
REMARK  8 active torsions:
REMARK  status: ('A' for Active; 'I' for Inactive)
REMARK    1  A    between atoms: C_1  and  C_2
REMARK    2  A    between atoms: C_2  and  N_3
REMARK    3  A    between atoms: N_3  and  C_4
REMARK    4  A    between atoms: C_4  and  C_5
REMARK    5  A    between atoms: C_8  and  C_9
REMARK    6  A    between atoms: C_9  and  N_10
REMARK    7  A    between atoms: C_11  and  C_13
REMARK    8  A    between atoms: C_20  and  C_22
REMARK                            x       y       z     vdW  Elec       q    Type
REMARK                         _______ _______ _______ _____ _____    ______ ____
ROOT
ATOM      1  C   UNL     1      49.564   7.121  16.027  0.00  0.00    +0.000 C 
ENDROOT
BRANCH   1   2
ATOM      2  C   UNL     1      48.685   7.298  14.815  0.00  0.00    +0.000 A 
ATOM      3  C   UNL     1      48.397   6.199  13.989  0.00  0.00    +0.000 A 
ATOM      4  C   UNL     1      47.411   6.288  13.004  0.00  0.00    +0.000 A 
ATOM      5  C   UNL     1      46.704   7.481  12.816  0.00  0.00    +0.000 A 
ATOM      6  C   UNL     1      47.032   8.594  13.604  0.00  0.00    +0.000 A 
ATOM      7  C   UNL     1      48.022   8.508  14.587  0.00  0.00    +0.000 A 
BRANCH   5   8
ATOM      8  C   UNL     1      45.538   7.535  11.865  0.00  0.00    +0.000 C 
BRANCH   8   9
ATOM      9  N   UNL     1      45.535   6.366  11.018  0.00  0.00    +0.000 N 
ATOM     10  C   UNL     1      44.434   5.549  10.894  0.00  0.00    +0.000 C 
ATOM     11  O   UNL     1      43.390   5.786  11.498  0.00  0.00    +0.000 OA
ATOM     12  H   UNL     1      46.364   6.151  10.480  0.00  0.00    +0.000 HD
BRANCH  10  13
ATOM     13  C   UNL     1      44.593   4.407  10.015  0.00  0.00    +0.000 A 
ATOM     14  C   UNL     1      45.105   4.398   8.731  0.00  0.00    +0.000 A 
ATOM     15  N   UNL     1      45.139   3.168   8.100  0.00  0.00    +0.000 NA
ATOM     16  C   UNL     1      44.654   2.255   8.910  0.00  0.00    +0.000 A 
ATOM     17  S   UNL     1      44.140   2.808  10.450  0.00  0.00    +0.000 S 
ENDBRANCH  10  13
ENDBRANCH   8   9
ENDBRANCH   5   8
ENDBRANCH   1   2
BRANCH   1  18
ATOM     18  N   UNL     1      49.033   7.352  17.368  0.00  0.00    +0.000 N 
ATOM     19  C   UNL     1      48.491   6.319  18.159  0.00  0.00    +0.000 C 
ATOM     20  O   UNL     1      48.061   6.537  19.291  0.00  0.00    +0.000 OA
BRANCH  19  21
ATOM     21  C   UNL     1      48.480   4.940  17.648  0.00  0.00    +0.000 A 
ATOM     22  C   UNL     1      47.477   4.394  16.862  0.00  0.00    +0.000 A 
ATOM     23  S   UNL     1      47.802   2.798  16.348  0.00  0.00    +0.000 S 
ATOM     24  C   UNL     1      49.356   2.840  17.036  0.00  0.00    +0.000 A 
ATOM     25  N   UNL     1      50.230   1.814  16.858  0.00  0.00    +0.000 NA
ATOM     26  C   UNL     1      51.397   2.020  17.373  0.00  0.00    +0.000 A 
ATOM     27  N   UNL     1      51.750   3.136  18.090  0.00  0.00    +0.000 N 
ATOM     28  C   UNL     1      50.856   4.134  18.412  0.00  0.00    +0.000 A 
ATOM     29  O   UNL     1      51.131   4.988  19.249  0.00  0.00    +0.000 OA
ATOM     30  C   UNL     1      49.578   4.009  17.739  0.00  0.00    +0.000 A 
ATOM     31  H   UNL     1      52.657   3.200  18.528  0.00  0.00    +0.000 HD
ENDBRANCH  19  21
BRANCH  18  33
ATOM     32  C   UNL     1      50.523   8.890  18.620  0.00  0.00    +0.000 C 
ATOM     33  C   UNL     1      49.151   8.671  17.996  0.00  0.00    +0.000 C 
ENDBRANCH  18  33
ENDBRANCH   1  18
TORSDOF 7
ENDMDL
MODEL 9
REMARK VINA RESULT:    -5.604      4.351      7.355
REMARK INTER + INTRA:          -9.326
REMARK INTER:                  -8.172
REMARK INTRA:                  -1.153
REMARK UNBOUND:                -1.428
REMARK  Name = 
REMARK  8 active torsions:
REMARK  status: ('A' for Active; 'I' for Inactive)
REMARK    1  A    between atoms: C_1  and  C_2
REMARK    2  A    between atoms: C_2  and  N_3
REMARK    3  A    between atoms: N_3  and  C_4
REMARK    4  A    between atoms: C_4  and  C_5
REMARK    5  A    between atoms: C_8  and  C_9
REMARK    6  A    between atoms: C_9  and  N_10
REMARK    7  A    between atoms: C_11  and  C_13
REMARK    8  A    between atoms: C_20  and  C_22
REMARK                            x       y       z     vdW  Elec       q    Type
REMARK                         _______ _______ _______ _____ _____    ______ ____
ROOT
ATOM      1  C   UNL     1      51.430   9.718  10.654  0.00  0.00    +0.000 C 
ENDROOT
BRANCH   1   2
ATOM      2  C   UNL     1      50.253   9.083  11.353  0.00  0.00    +0.000 A 
ATOM      3  C   UNL     1      49.201   9.885  11.826  0.00  0.00    +0.000 A 
ATOM      4  C   UNL     1      48.008   9.307  12.264  0.00  0.00    +0.000 A 
ATOM      5  C   UNL     1      47.849   7.916  12.251  0.00  0.00    +0.000 A 
ATOM      6  C   UNL     1      48.921   7.115  11.831  0.00  0.00    +0.000 A 
ATOM      7  C   UNL     1      50.117   7.692  11.397  0.00  0.00    +0.000 A 
BRANCH   5   8
ATOM      8  C   UNL     1      46.514   7.298  12.574  0.00  0.00    +0.000 C 
BRANCH   8   9
ATOM      9  N   UNL     1      46.275   6.159  11.719  0.00  0.00    +0.000 N 
ATOM     10  C   UNL     1      45.054   5.926  11.128  0.00  0.00    +0.000 C 
ATOM     11  O   UNL     1      44.106   6.689  11.296  0.00  0.00    +0.000 OA
ATOM     12  H   UNL     1      47.037   5.521  11.531  0.00  0.00    +0.000 HD
BRANCH  10  13
ATOM     13  C   UNL     1      44.969   4.732  10.309  0.00  0.00    +0.000 A 
ATOM     14  C   UNL     1      45.371   4.583   8.995  0.00  0.00    +0.000 A 
ATOM     15  N   UNL     1      45.169   3.334   8.437  0.00  0.00    +0.000 NA
ATOM     16  C   UNL     1      44.616   2.547   9.330  0.00  0.00    +0.000 A 
ATOM     17  S   UNL     1      44.315   3.245  10.868  0.00  0.00    +0.000 S 
ENDBRANCH  10  13
ENDBRANCH   8   9
ENDBRANCH   5   8
ENDBRANCH   1   2
BRANCH   1  18
ATOM     18  N   UNL     1      52.792   9.463  11.114  0.00  0.00    +0.000 N 
ATOM     19  C   UNL     1      53.774   8.873  10.292  0.00  0.00    +0.000 C 
ATOM     20  O   UNL     1      54.918   8.679  10.699  0.00  0.00    +0.000 OA
BRANCH  19  21
ATOM     21  C   UNL     1      53.445   8.524   8.901  0.00  0.00    +0.000 A 
ATOM     22  C   UNL     1      53.313   9.435   7.865  0.00  0.00    +0.000 A 
ATOM     23  S   UNL     1      53.022   8.708   6.346  0.00  0.00    +0.000 S 
ATOM     24  C   UNL     1      53.211   7.150   7.000  0.00  0.00    +0.000 A 
ATOM     25  N   UNL     1      53.201   6.049   6.203  0.00  0.00    +0.000 NA
ATOM     26  C   UNL     1      53.431   4.943   6.830  0.00  0.00    +0.000 A 
ATOM     27  N   UNL     1      53.622   4.836   8.185  0.00  0.00    +0.000 N 
ATOM     28  C   UNL     1      53.503   5.905   9.046  0.00  0.00    +0.000 A 
ATOM     29  O   UNL     1      53.437   5.741  10.260  0.00  0.00    +0.000 OA
ATOM     30  C   UNL     1      53.381   7.184   8.371  0.00  0.00    +0.000 A 
ATOM     31  H   UNL     1      53.725   3.932   8.620  0.00  0.00    +0.000 HD
ENDBRANCH  19  21
BRANCH  18  33
ATOM     32  C   UNL     1      53.035   8.859  13.507  0.00  0.00    +0.000 C 
ATOM     33  C   UNL     1      53.228   9.923  12.436  0.00  0.00    +0.000 C 
ENDBRANCH  18  33
ENDBRANCH   1  18
TORSDOF 7
ENDMDL
