MODEL 1
REMARK VINA RESULT:    -7.632      0.000      0.000
REMARK INTER + INTRA:         -11.468
REMARK INTER:                 -10.532
REMARK INTRA:                  -0.937
REMARK UNBOUND:                -0.937
REMARK  Name = 
REMARK  7 active torsions:
REMARK  status: ('A' for Active; 'I' for Inactive)
REMARK    1  A    between atoms: C_2  and  C_19
REMARK    2  A    between atoms: N_3  and  C_4
REMARK    3  A    between atoms: C_4  and  C_5
REMARK    4  A    between atoms: C_8  and  C_9
REMARK    5  A    between atoms: C_9  and  C_10
REMARK    6  A    between atoms: C_10  and  O_11
REMARK    7  A    between atoms: C_10  and  C_12
REMARK                            x       y       z     vdW  Elec       q    Type
REMARK                         _______ _______ _______ _____ _____    ______ ____
ROOT
ATOM      1  C   UNL     1      46.698   7.234  13.029  0.00  0.00    +0.000 C 
ENDROOT
BRANCH   1   2
ATOM      2  C   UNL     1      46.146   6.147  12.154  0.00  0.00    +0.000 A 
ATOM      3  C   UNL     1      45.661   4.958  12.694  0.00  0.00    +0.000 A 
ATOM      4  C   UNL     1      45.108   3.992  11.855  0.00  0.00    +0.000 A 
ATOM      5  C   UNL     1      45.060   4.231  10.482  0.00  0.00    +0.000 A 
ATOM      6  N   UNL     1      45.559   5.361   9.930  0.00  0.00    +0.000 NA
ATOM      7  C   UNL     1      46.097   6.280  10.769  0.00  0.00    +0.000 A 
BRANCH   5   8
ATOM      8  C   UNL     1      44.470   3.200   9.540  0.00  0.00    +0.000 C 
BRANCH   8   9
ATOM      9  C   UNL     1      45.573   2.393   8.839  0.00  0.00    +0.000 C 
BRANCH   9  10
ATOM     10  C   UNL     1      45.782   2.741   7.343  0.00  0.00    +0.000 C 
ATOM     11  C   UNL     1      46.455   1.577   6.608  0.00  0.00    +0.000 C 
ATOM     12  C   UNL     1      47.925   1.834   6.865  0.00  0.00    +0.000 C 
ATOM     13  N   UNL     1      48.064   3.287   6.722  0.00  0.00    +0.000 NA
ATOM     14  C   UNL     1      46.760   3.885   7.062  0.00  0.00    +0.000 C 
ATOM     15  H   UNL     1      48.274   3.496   5.744  0.00  0.00    +0.000 HD
ENDBRANCH   9  10
BRANCH   9  16
ATOM     16  O   UNL     1      45.229   0.994   8.893  0.00  0.00    +0.000 OA
ATOM     17  H   UNL     1      45.283   0.707   9.820  0.00  0.00    +0.000 HD
ENDBRANCH   9  16
ENDBRANCH   8   9
ENDBRANCH   5   8
ENDBRANCH   1   2
BRANCH   1  20
ATOM     18  O   UNL     1      49.373   6.849  13.836  0.00  0.00    +0.000 OA
ATOM     19  C   UNL     1      48.471   6.616  14.634  0.00  0.00    +0.000 C 
ATOM     20  N   UNL     1      47.148   6.728  14.300  0.00  0.00    +0.000 N 
ATOM     21  H   UNL     1      46.443   6.655  15.025  0.00  0.00    +0.000 HD
BRANCH  19  22
ATOM     22  C   UNL     1      48.757   6.158  15.999  0.00  0.00    +0.000 A 
ATOM     23  C   UNL     1      49.484   6.964  16.865  0.00  0.00    +0.000 A 
ATOM     24  S   UNL     1      49.690   6.289  18.418  0.00  0.00    +0.000 S 
ATOM     25  C   UNL     1      48.782   4.911  17.997  0.00  0.00    +0.000 A 
ATOM     26  N   UNL     1      48.523   3.935  18.913  0.00  0.00    +0.000 NA
ATOM     27  C   UNL     1      47.792   2.971  18.471  0.00  0.00    +0.000 A 
ATOM     28  N   UNL     1      47.306   2.880  17.196  0.00  0.00    +0.000 N 
ATOM     29  C   UNL     1      47.617   3.788  16.216  0.00  0.00    +0.000 A 
ATOM     30  O   UNL     1      47.321   3.587  15.042  0.00  0.00    +0.000 OA
ATOM     31  C   UNL     1      48.372   4.942  16.679  0.00  0.00    +0.000 A 
ATOM     32  H   UNL     1      46.775   2.073  16.899  0.00  0.00    +0.000 HD
ENDBRANCH  19  22
ENDBRANCH   1  20
TORSDOF 7
ENDMDL
MODEL 2
REMARK VINA RESULT:    -7.249      3.495      8.170
REMARK INTER + INTRA:         -10.940
REMARK INTER:                  -9.780
REMARK INTRA:                  -1.160
REMARK UNBOUND:                -0.937
REMARK  Name = 
REMARK  7 active torsions:
REMARK  status: ('A' for Active; 'I' for Inactive)
REMARK    1  A    between atoms: C_2  and  C_19
REMARK    2  A    between atoms: N_3  and  C_4
REMARK    3  A    between atoms: C_4  and  C_5
REMARK    4  A    between atoms: C_8  and  C_9
REMARK    5  A    between atoms: C_9  and  C_10
REMARK    6  A    between atoms: C_10  and  O_11
REMARK    7  A    between atoms: C_10  and  C_12
REMARK                            x       y       z     vdW  Elec       q    Type
REMARK                         _______ _______ _______ _____ _____    ______ ____
ROOT
ATOM      1  C   UNL     1      48.462   7.692  12.192  0.00  0.00    +0.000 C 
ENDROOT
BRANCH   1   2
ATOM      2  C   UNL     1      48.981   7.319  13.550  0.00  0.00    +0.000 A 
ATOM      3  C   UNL     1      50.191   7.820  14.026  0.00  0.00    +0.000 A 
ATOM      4  C   UNL     1      50.616   7.494  15.313  0.00  0.00    +0.000 A 
ATOM      5  C   UNL     1      49.823   6.659  16.100  0.00  0.00    +0.000 A 
ATOM      6  N   UNL     1      48.663   6.130  15.645  0.00  0.00    +0.000 NA
ATOM      7  C   UNL     1      48.279   6.459  14.388  0.00  0.00    +0.000 A 
BRANCH   5   8
ATOM      8  C   UNL     1      50.258   6.280  17.502  0.00  0.00    +0.000 C 
BRANCH   8   9
ATOM      9  C   UNL     1      50.141   4.764  17.728  0.00  0.00    +0.000 C 
BRANCH   9  10
ATOM     10  C   UNL     1      49.068   4.343  18.764  0.00  0.00    +0.000 C 
ATOM     11  C   UNL     1      48.324   3.091  18.290  0.00  0.00    +0.000 C 
ATOM     12  C   UNL     1      47.235   3.671  17.411  0.00  0.00    +0.000 C 
ATOM     13  N   UNL     1      46.779   4.857  18.143  0.00  0.00    +0.000 NA
ATOM     14  C   UNL     1      47.913   5.329  18.957  0.00  0.00    +0.000 C 
ATOM     15  H   UNL     1      46.022   4.576  18.770  0.00  0.00    +0.000 HD
ENDBRANCH   9  10
BRANCH   9  16
ATOM     16  O   UNL     1      51.404   4.271  18.217  0.00  0.00    +0.000 OA
ATOM     17  H   UNL     1      51.629   3.470  17.715  0.00  0.00    +0.000 HD
ENDBRANCH   9  16
ENDBRANCH   8   9
ENDBRANCH   5   8
ENDBRANCH   1   2
BRANCH   1  20
ATOM     18  O   UNL     1      45.665   7.780  11.844  0.00  0.00    +0.000 OA
ATOM     19  C   UNL     1      46.284   6.798  11.447  0.00  0.00    +0.000 C 
ATOM     20  N   UNL     1      47.634   6.658  11.627  0.00  0.00    +0.000 N 
ATOM     21  H   UNL     1      48.122   5.897  11.168  0.00  0.00    +0.000 HD
BRANCH  19  22
ATOM     22  C   UNL     1      45.600   5.680  10.784  0.00  0.00    +0.000 A 
ATOM     23  C   UNL     1      45.748   5.489   9.417  0.00  0.00    +0.000 A 
ATOM     24  S   UNL     1      44.914   4.124   8.823  0.00  0.00    +0.000 S 
ATOM     25  C   UNL     1      44.357   3.720  10.381  0.00  0.00    +0.000 A 
ATOM     26  N   UNL     1      43.614   2.598  10.591  0.00  0.00    +0.000 NA
ATOM     27  C   UNL     1      43.295   2.393  11.823  0.00  0.00    +0.000 A 
ATOM     28  N   UNL     1      43.636   3.212  12.864  0.00  0.00    +0.000 N 
ATOM     29  C   UNL     1      44.302   4.397  12.690  0.00  0.00    +0.000 A 
ATOM     30  O   UNL     1      44.434   5.198  13.612  0.00  0.00    +0.000 OA
ATOM     31  C   UNL     1      44.758   4.640  11.330  0.00  0.00    +0.000 A 
ATOM     32  H   UNL     1      43.315   3.018  13.803  0.00  0.00    +0.000 HD
ENDBRANCH  19  22
ENDBRANCH   1  20
TORSDOF 7
ENDMDL
MODEL 3
REMARK VINA RESULT:    -7.205      4.382      8.830
REMARK INTER + INTRA:         -10.879
REMARK INTER:                 -10.193
REMARK INTRA:                  -0.686
REMARK UNBOUND:                -0.937
REMARK  Name = 
REMARK  7 active torsions:
REMARK  status: ('A' for Active; 'I' for Inactive)
REMARK    1  A    between atoms: C_2  and  C_19
REMARK    2  A    between atoms: N_3  and  C_4
REMARK    3  A    between atoms: C_4  and  C_5
REMARK    4  A    between atoms: C_8  and  C_9
REMARK    5  A    between atoms: C_9  and  C_10
REMARK    6  A    between atoms: C_10  and  O_11
REMARK    7  A    between atoms: C_10  and  C_12
REMARK                            x       y       z     vdW  Elec       q    Type
REMARK                         _______ _______ _______ _____ _____    ______ ____
ROOT
ATOM      1  C   UNL     1      47.160   3.387  16.948  0.00  0.00    +0.000 C 
ENDROOT
BRANCH   1   2
ATOM      2  C   UNL     1      48.641   3.181  17.077  0.00  0.00    +0.000 A 
ATOM      3  C   UNL     1      49.448   4.111  17.731  0.00  0.00    +0.000 A 
ATOM      4  C   UNL     1      50.811   3.863  17.877  0.00  0.00    +0.000 A 
ATOM      5  C   UNL     1      51.348   2.686  17.354  0.00  0.00    +0.000 A 
ATOM      6  N   UNL     1      50.591   1.786  16.683  0.00  0.00    +0.000 NA
ATOM      7  C   UNL     1      49.270   2.058  16.550  0.00  0.00    +0.000 A 
BRANCH   5   8
ATOM      8  C   UNL     1      52.827   2.385  17.491  0.00  0.00    +0.000 C 
BRANCH   8   9
ATOM      9  C   UNL     1      53.072   1.250  18.498  0.00  0.00    +0.000 C 
BRANCH   9  10
ATOM     10  C   UNL     1      54.469   0.587  18.401  0.00  0.00    +0.000 C 
ATOM     11  C   UNL     1      55.052   0.761  16.996  0.00  0.00    +0.000 C 
ATOM     12  C   UNL     1      54.453  -0.411  16.246  0.00  0.00    +0.000 C 
ATOM     13  N   UNL     1      54.527  -1.522  17.201  0.00  0.00    +0.000 NA
ATOM     14  C   UNL     1      54.488  -0.937  18.553  0.00  0.00    +0.000 C 
ATOM     15  H   UNL     1      55.424  -1.995  17.075  0.00  0.00    +0.000 HD
ENDBRANCH   9  10
BRANCH   9  16
ATOM     16  O   UNL     1      52.103   0.209  18.266  0.00  0.00    +0.000 OA
ATOM     17  H   UNL     1      51.279   0.626  17.963  0.00  0.00    +0.000 HD
ENDBRANCH   9  16
ENDBRANCH   8   9
ENDBRANCH   5   8
ENDBRANCH   1   2
BRANCH   1  20
ATOM     18  O   UNL     1      47.203   3.067  14.146  0.00  0.00    +0.000 OA
ATOM     19  C   UNL     1      46.835   4.138  14.617  0.00  0.00    +0.000 C 
ATOM     20  N   UNL     1      46.837   4.388  15.964  0.00  0.00    +0.000 N 
ATOM     21  H   UNL     1      46.402   5.234  16.315  0.00  0.00    +0.000 HD
BRANCH  19  22
ATOM     22  C   UNL     1      46.404   5.246  13.755  0.00  0.00    +0.000 A 
ATOM     23  C   UNL     1      47.253   6.322  13.531  0.00  0.00    +0.000 A 
ATOM     24  S   UNL     1      46.603   7.497  12.478  0.00  0.00    +0.000 S 
ATOM     25  C   UNL     1      45.180   6.589  12.257  0.00  0.00    +0.000 A 
ATOM     26  N   UNL     1      44.202   7.013  11.407  0.00  0.00    +0.000 NA
ATOM     27  C   UNL     1      43.200   6.210  11.305  0.00  0.00    +0.000 A 
ATOM     28  N   UNL     1      43.073   5.029  11.983  0.00  0.00    +0.000 N 
ATOM     29  C   UNL     1      43.986   4.607  12.916  0.00  0.00    +0.000 A 
ATOM     30  O   UNL     1      43.759   3.640  13.639  0.00  0.00    +0.000 OA
ATOM     31  C   UNL     1      45.178   5.434  13.014  0.00  0.00    +0.000 A 
ATOM     32  H   UNL     1      42.239   4.466  11.893  0.00  0.00    +0.000 HD
ENDBRANCH  19  22
ENDBRANCH   1  20
TORSDOF 7
ENDMDL
MODEL 4
REMARK VINA RESULT:    -7.083      2.355      3.147
REMARK INTER + INTRA:         -10.711
REMARK INTER:                  -9.602
REMARK INTRA:                  -1.109
REMARK UNBOUND:                -0.937
REMARK  Name = 
REMARK  7 active torsions:
REMARK  status: ('A' for Active; 'I' for Inactive)
REMARK    1  A    between atoms: C_2  and  C_19
REMARK    2  A    between atoms: N_3  and  C_4
REMARK    3  A    between atoms: C_4  and  C_5
REMARK    4  A    between atoms: C_8  and  C_9
REMARK    5  A    between atoms: C_9  and  C_10
REMARK    6  A    between atoms: C_10  and  O_11
REMARK    7  A    between atoms: C_10  and  C_12
REMARK                            x       y       z     vdW  Elec       q    Type
REMARK                         _______ _______ _______ _____ _____    ______ ____
ROOT
ATOM      1  C   UNL     1      48.501   6.986  14.090  0.00  0.00    +0.000 C 
ENDROOT
BRANCH   1   2
ATOM      2  C   UNL     1      47.451   6.410  13.187  0.00  0.00    +0.000 A 
ATOM      3  C   UNL     1      47.172   6.977  11.945  0.00  0.00    +0.000 A 
ATOM      4  C   UNL     1      46.226   6.385  11.110  0.00  0.00    +0.000 A 
ATOM      5  C   UNL     1      45.564   5.235  11.540  0.00  0.00    +0.000 A 
ATOM      6  N   UNL     1      45.790   4.688  12.758  0.00  0.00    +0.000 NA
ATOM      7  C   UNL     1      46.710   5.289  13.551  0.00  0.00    +0.000 A 
BRANCH   5   8
ATOM      8  C   UNL     1      44.526   4.568  10.660  0.00  0.00    +0.000 C 
BRANCH   8   9
ATOM      9  C   UNL     1      44.875   3.092  10.412  0.00  0.00    +0.000 C 
BRANCH   9  10
ATOM     10  C   UNL     1      44.553   2.579   8.985  0.00  0.00    +0.000 C 
ATOM     11  C   UNL     1      45.657   1.642   8.487  0.00  0.00    +0.000 C 
ATOM     12  C   UNL     1      46.667   2.608   7.903  0.00  0.00    +0.000 C 
ATOM     13  N   UNL     1      45.846   3.605   7.206  0.00  0.00    +0.000 NA
ATOM     14  C   UNL     1      44.540   3.647   7.887  0.00  0.00    +0.000 C 
ATOM     15  H   UNL     1      45.703   3.287   6.245  0.00  0.00    +0.000 HD
ENDBRANCH   9  10
BRANCH   9  16
ATOM     16  O   UNL     1      44.115   2.277  11.326  0.00  0.00    +0.000 OA
ATOM     17  H   UNL     1      44.341   1.347  11.159  0.00  0.00    +0.000 HD
ENDBRANCH   9  16
ENDBRANCH   8   9
ENDBRANCH   5   8
ENDBRANCH   1   2
BRANCH   1  20
ATOM     18  O   UNL     1      50.462   6.272  15.987  0.00  0.00    +0.000 OA
ATOM     19  C   UNL     1      49.291   6.352  16.343  0.00  0.00    +0.000 C 
ATOM     20  N   UNL     1      48.276   6.642  15.470  0.00  0.00    +0.000 N 
ATOM     21  H   UNL     1      47.347   6.827  15.830  0.00  0.00    +0.000 HD
BRANCH  19  22
ATOM     22  C   UNL     1      48.895   6.100  17.734  0.00  0.00    +0.000 A 
ATOM     23  C   UNL     1      49.106   4.850  18.300  0.00  0.00    +0.000 A 
ATOM     24  S   UNL     1      48.619   4.748  19.932  0.00  0.00    +0.000 S 
ATOM     25  C   UNL     1      48.143   6.383  19.948  0.00  0.00    +0.000 A 
ATOM     26  N   UNL     1      47.674   6.966  21.087  0.00  0.00    +0.000 NA
ATOM     27  C   UNL     1      47.390   8.217  20.967  0.00  0.00    +0.000 A 
ATOM     28  N   UNL     1      47.515   8.939  19.812  0.00  0.00    +0.000 N 
ATOM     29  C   UNL     1      47.894   8.374  18.621  0.00  0.00    +0.000 A 
ATOM     30  O   UNL     1      47.822   9.000  17.567  0.00  0.00    +0.000 OA
ATOM     31  C   UNL     1      48.305   6.983  18.715  0.00  0.00    +0.000 A 
ATOM     32  H   UNL     1      47.231   9.908  19.773  0.00  0.00    +0.000 HD
ENDBRANCH  19  22
ENDBRANCH   1  20
TORSDOF 7
ENDMDL
MODEL 5
REMARK VINA RESULT:    -7.052      2.695      3.435
REMARK INTER + INTRA:         -10.669
REMARK INTER:                  -9.111
REMARK INTRA:                  -1.557
REMARK UNBOUND:                -0.937
REMARK  Name = 
REMARK  7 active torsions:
REMARK  status: ('A' for Active; 'I' for Inactive)
REMARK    1  A    between atoms: C_2  and  C_19
REMARK    2  A    between atoms: N_3  and  C_4
REMARK    3  A    between atoms: C_4  and  C_5
REMARK    4  A    between atoms: C_8  and  C_9
REMARK    5  A    between atoms: C_9  and  C_10
REMARK    6  A    between atoms: C_10  and  O_11
REMARK    7  A    between atoms: C_10  and  C_12
REMARK                            x       y       z     vdW  Elec       q    Type
REMARK                         _______ _______ _______ _____ _____    ______ ____
ROOT
ATOM      1  C   UNL     1      48.825   8.276  13.745  0.00  0.00    +0.000 C 
ENDROOT
BRANCH   1   2
ATOM      2  C   UNL     1      47.628   7.834  12.957  0.00  0.00    +0.000 A 
ATOM      3  C   UNL     1      47.730   6.852  11.973  0.00  0.00    +0.000 A 
ATOM      4  C   UNL     1      46.588   6.429  11.296  0.00  0.00    +0.000 A 
ATOM      5  C   UNL     1      45.358   7.007  11.611  0.00  0.00    +0.000 A 
ATOM      6  N   UNL     1      45.239   7.989  12.535  0.00  0.00    +0.000 NA
ATOM      7  C   UNL     1      46.368   8.385  13.172  0.00  0.00    +0.000 A 
BRANCH   5   8
ATOM      8  C   UNL     1      44.095   6.574  10.891  0.00  0.00    +0.000 C 
BRANCH   8   9
ATOM      9  C   UNL     1      43.211   5.704  11.797  0.00  0.00    +0.000 C 
BRANCH   9  10
ATOM     10  C   UNL     1      43.079   4.226  11.350  0.00  0.00    +0.000 C 
ATOM     11  C   UNL     1      43.522   3.282  12.473  0.00  0.00    +0.000 C 
ATOM     12  C   UNL     1      45.020   3.204  12.262  0.00  0.00    +0.000 C 
ATOM     13  N   UNL     1      45.173   3.124  10.805  0.00  0.00    +0.000 NA
ATOM     14  C   UNL     1      44.005   3.796  10.208  0.00  0.00    +0.000 C 
ATOM     15  H   UNL     1      45.156   2.139  10.534  0.00  0.00    +0.000 HD
ENDBRANCH   9  10
BRANCH   9  16
ATOM     16  O   UNL     1      41.878   6.253  11.808  0.00  0.00    +0.000 OA
ATOM     17  H   UNL     1      41.621   6.402  12.733  0.00  0.00    +0.000 HD
ENDBRANCH   9  16
ENDBRANCH   8   9
ENDBRANCH   5   8
ENDBRANCH   1   2
BRANCH   1  20
ATOM     18  O   UNL     1      48.250   8.810  16.454  0.00  0.00    +0.000 OA
ATOM     19  C   UNL     1      48.730   7.723  16.150  0.00  0.00    +0.000 C 
ATOM     20  N   UNL     1      49.085   7.410  14.865  0.00  0.00    +0.000 N 
ATOM     21  H   UNL     1      49.353   6.458  14.641  0.00  0.00    +0.000 HD
BRANCH  19  22
ATOM     22  C   UNL     1      48.996   6.694  17.164  0.00  0.00    +0.000 A 
ATOM     23  C   UNL     1      49.742   7.007  18.292  0.00  0.00    +0.000 A 
ATOM     24  S   UNL     1      49.921   5.702  19.377  0.00  0.00    +0.000 S 
ATOM     25  C   UNL     1      48.974   4.685  18.393  0.00  0.00    +0.000 A 
ATOM     26  N   UNL     1      48.682   3.411  18.777  0.00  0.00    +0.000 NA
ATOM     27  C   UNL     1      47.924   2.767  17.958  0.00  0.00    +0.000 A 
ATOM     28  N   UNL     1      47.442   3.270  16.781  0.00  0.00    +0.000 N 
ATOM     29  C   UNL     1      47.784   4.512  16.309  0.00  0.00    +0.000 A 
ATOM     30  O   UNL     1      47.488   4.866  15.171  0.00  0.00    +0.000 OA
ATOM     31  C   UNL     1      48.572   5.314  17.231  0.00  0.00    +0.000 A 
ATOM     32  H   UNL     1      46.888   2.697  16.159  0.00  0.00    +0.000 HD
ENDBRANCH  19  22
ENDBRANCH   1  20
TORSDOF 7
ENDMDL
MODEL 6
REMARK VINA RESULT:    -7.047      3.510      4.937
REMARK INTER + INTRA:         -10.662
REMARK INTER:                  -9.495
REMARK INTRA:                  -1.167
REMARK UNBOUND:                -0.937
REMARK  Name = 
REMARK  7 active torsions:
REMARK  status: ('A' for Active; 'I' for Inactive)
REMARK    1  A    between atoms: C_2  and  C_19
REMARK    2  A    between atoms: N_3  and  C_4
REMARK    3  A    between atoms: C_4  and  C_5
REMARK    4  A    between atoms: C_8  and  C_9
REMARK    5  A    between atoms: C_9  and  C_10
REMARK    6  A    between atoms: C_10  and  O_11
REMARK    7  A    between atoms: C_10  and  C_12
REMARK                            x       y       z     vdW  Elec       q    Type
REMARK                         _______ _______ _______ _____ _____    ______ ____
ROOT
ATOM      1  C   UNL     1      49.004   6.478  16.646  0.00  0.00    +0.000 C 
ENDROOT
BRANCH   1   2
ATOM      2  C   UNL     1      48.182   5.791  15.596  0.00  0.00    +0.000 A 
ATOM      3  C   UNL     1      48.145   6.258  14.283  0.00  0.00    +0.000 A 
ATOM      4  C   UNL     1      47.412   5.565  13.322  0.00  0.00    +0.000 A 
ATOM      5  C   UNL     1      46.717   4.415  13.696  0.00  0.00    +0.000 A 
ATOM      6  N   UNL     1      46.706   3.963  14.972  0.00  0.00    +0.000 NA
ATOM      7  C   UNL     1      47.422   4.662  15.886  0.00  0.00    +0.000 A 
BRANCH   5   8
ATOM      8  C   UNL     1      45.906   3.638  12.677  0.00  0.00    +0.000 C 
BRANCH   8   9
ATOM      9  C   UNL     1      44.427   4.055  12.711  0.00  0.00    +0.000 C 
BRANCH   9  10
ATOM     10  C   UNL     1      43.861   4.555  11.358  0.00  0.00    +0.000 C 
ATOM     11  C   UNL     1      44.921   5.355  10.594  0.00  0.00    +0.000 C 
ATOM     12  C   UNL     1      44.756   6.747  11.168  0.00  0.00    +0.000 C 
ATOM     13  N   UNL     1      43.304   6.917  11.284  0.00  0.00    +0.000 NA
ATOM     14  C   UNL     1      42.722   5.573  11.454  0.00  0.00    +0.000 C 
ATOM     15  H   UNL     1      42.956   7.315  10.410  0.00  0.00    +0.000 HD
ENDBRANCH   9  10
BRANCH   9  16
ATOM     16  O   UNL     1      44.273   5.139  13.649  0.00  0.00    +0.000 OA
ATOM     17  H   UNL     1      44.683   5.931  13.264  0.00  0.00    +0.000 HD
ENDBRANCH   9  16
ENDBRANCH   8   9
ENDBRANCH   5   8
ENDBRANCH   1   2
BRANCH   1  20
ATOM     18  O   UNL     1      49.625   5.648  19.269  0.00  0.00    +0.000 OA
ATOM     19  C   UNL     1      50.341   5.282  18.344  0.00  0.00    +0.000 C 
ATOM     20  N   UNL     1      50.136   5.685  17.051  0.00  0.00    +0.000 N 
ATOM     21  H   UNL     1      50.669   5.255  16.304  0.00  0.00    +0.000 HD
BRANCH  19  22
ATOM     22  C   UNL     1      51.502   4.412  18.573  0.00  0.00    +0.000 A 
ATOM     23  C   UNL     1      52.562   4.859  19.349  0.00  0.00    +0.000 A 
ATOM     24  S   UNL     1      53.805   3.706  19.538  0.00  0.00    +0.000 S 
ATOM     25  C   UNL     1      52.951   2.555  18.618  0.00  0.00    +0.000 A 
ATOM     26  N   UNL     1      53.444   1.299  18.433  0.00  0.00    +0.000 NA
ATOM     27  C   UNL     1      52.676   0.520  17.752  0.00  0.00    +0.000 A 
ATOM     28  N   UNL     1      51.468   0.882  17.223  0.00  0.00    +0.000 N 
ATOM     29  C   UNL     1      50.974   2.159  17.304  0.00  0.00    +0.000 A 
ATOM     30  O   UNL     1      49.981   2.502  16.669  0.00  0.00    +0.000 OA
ATOM     31  C   UNL     1      51.761   3.060  18.132  0.00  0.00    +0.000 A 
ATOM     32  H   UNL     1      50.933   0.236  16.658  0.00  0.00    +0.000 HD
ENDBRANCH  19  22
ENDBRANCH   1  20
TORSDOF 7
ENDMDL
MODEL 7
REMARK VINA RESULT:    -6.942      2.356      3.678
REMARK INTER + INTRA:         -10.517
REMARK INTER:                  -9.706
REMARK INTRA:                  -0.811
REMARK UNBOUND:                -0.937
REMARK  Name = 
REMARK  7 active torsions:
REMARK  status: ('A' for Active; 'I' for Inactive)
REMARK    1  A    between atoms: C_2  and  C_19
REMARK    2  A    between atoms: N_3  and  C_4
REMARK    3  A    between atoms: C_4  and  C_5
REMARK    4  A    between atoms: C_8  and  C_9
REMARK    5  A    between atoms: C_9  and  C_10
REMARK    6  A    between atoms: C_10  and  O_11
REMARK    7  A    between atoms: C_10  and  C_12
REMARK                            x       y       z     vdW  Elec       q    Type
REMARK                         _______ _______ _______ _____ _____    ______ ____
ROOT
ATOM      1  C   UNL     1      44.414   5.408  13.164  0.00  0.00    +0.000 C 
ENDROOT
BRANCH   1   2
ATOM      2  C   UNL     1      44.578   4.581  11.923  0.00  0.00    +0.000 A 
ATOM      3  C   UNL     1      44.189   3.243  11.887  0.00  0.00    +0.000 A 
ATOM      4  C   UNL     1      44.308   2.520  10.702  0.00  0.00    +0.000 A 
ATOM      5  C   UNL     1      44.827   3.149   9.570  0.00  0.00    +0.000 A 
ATOM      6  N   UNL     1      45.247   4.435   9.590  0.00  0.00    +0.000 NA
ATOM      7  C   UNL     1      45.126   5.112  10.759  0.00  0.00    +0.000 A 
BRANCH   5   8
ATOM      8  C   UNL     1      44.974   2.391   8.266  0.00  0.00    +0.000 C 
BRANCH   8   9
ATOM      9  C   UNL     1      46.410   1.874   8.084  0.00  0.00    +0.000 C 
BRANCH   9  10
ATOM     10  C   UNL     1      47.355   2.836   7.319  0.00  0.00    +0.000 C 
ATOM     11  C   UNL     1      46.629   3.469   6.127  0.00  0.00    +0.000 C 
ATOM     12  C   UNL     1      46.819   2.431   5.040  0.00  0.00    +0.000 C 
ATOM     13  N   UNL     1      48.205   1.983   5.211  0.00  0.00    +0.000 NA
ATOM     14  C   UNL     1      48.553   2.176   6.631  0.00  0.00    +0.000 C 
ATOM     15  H   UNL     1      48.808   2.582   4.644  0.00  0.00    +0.000 HD
ENDBRANCH   9  10
BRANCH   9  16
ATOM     16  O   UNL     1      46.368   0.648   7.327  0.00  0.00    +0.000 OA
ATOM     17  H   UNL     1      47.231   0.529   6.898  0.00  0.00    +0.000 HD
ENDBRANCH   9  16
ENDBRANCH   8   9
ENDBRANCH   5   8
ENDBRANCH   1   2
BRANCH   1  20
ATOM     18  O   UNL     1      46.618   4.153  14.398  0.00  0.00    +0.000 OA
ATOM     19  C   UNL     1      46.693   5.344  14.114  0.00  0.00    +0.000 C 
ATOM     20  N   UNL     1      45.648   6.036  13.563  0.00  0.00    +0.000 N 
ATOM     21  H   UNL     1      45.798   6.979  13.225  0.00  0.00    +0.000 HD
BRANCH  19  22
ATOM     22  C   UNL     1      47.909   6.121  14.390  0.00  0.00    +0.000 A 
ATOM     23  C   UNL     1      48.478   6.093  15.656  0.00  0.00    +0.000 A 
ATOM     24  S   UNL     1      49.902   7.024  15.786  0.00  0.00    +0.000 S 
ATOM     25  C   UNL     1      49.826   7.467  14.144  0.00  0.00    +0.000 A 
ATOM     26  N   UNL     1      50.800   8.233  13.578  0.00  0.00    +0.000 NA
ATOM     27  C   UNL     1      50.638   8.457  12.320  0.00  0.00    +0.000 A 
ATOM     28  N   UNL     1      49.586   8.002  11.574  0.00  0.00    +0.000 N 
ATOM     29  C   UNL     1      48.536   7.308  12.119  0.00  0.00    +0.000 A 
ATOM     30  O   UNL     1      47.521   7.071  11.469  0.00  0.00    +0.000 OA
ATOM     31  C   UNL     1      48.705   6.955  13.519  0.00  0.00    +0.000 A 
ATOM     32  H   UNL     1      49.493   8.253  10.599  0.00  0.00    +0.000 HD
ENDBRANCH  19  22
ENDBRANCH   1  20
TORSDOF 7
ENDMDL
MODEL 8
REMARK VINA RESULT:    -6.907      3.684      4.520
REMARK INTER + INTRA:         -10.469
REMARK INTER:                  -9.307
REMARK INTRA:                  -1.162
REMARK UNBOUND:                -0.937
REMARK  Name = 
REMARK  7 active torsions:
REMARK  status: ('A' for Active; 'I' for Inactive)
REMARK    1  A    between atoms: C_2  and  C_19
REMARK    2  A    between atoms: N_3  and  C_4
REMARK    3  A    between atoms: C_4  and  C_5
REMARK    4  A    between atoms: C_8  and  C_9
REMARK    5  A    between atoms: C_9  and  C_10
REMARK    6  A    between atoms: C_10  and  O_11
REMARK    7  A    between atoms: C_10  and  C_12
REMARK                            x       y       z     vdW  Elec       q    Type
REMARK                         _______ _______ _______ _____ _____    ______ ____
ROOT
ATOM      1  C   UNL     1      44.710   6.499  13.223  0.00  0.00    +0.000 C 
ENDROOT
BRANCH   1   2
ATOM      2  C   UNL     1      44.659   5.397  12.206  0.00  0.00    +0.000 A 
ATOM      3  C   UNL     1      45.486   4.280  12.305  0.00  0.00    +0.000 A 
ATOM      4  C   UNL     1      45.375   3.251  11.372  0.00  0.00    +0.000 A 
ATOM      5  C   UNL     1      44.440   3.364  10.343  0.00  0.00    +0.000 A 
ATOM      6  N   UNL     1      43.651   4.456  10.204  0.00  0.00    +0.000 NA
ATOM      7  C   UNL     1      43.787   5.444  11.123  0.00  0.00    +0.000 A 
BRANCH   5   8
ATOM      8  C   UNL     1      44.295   2.267   9.307  0.00  0.00    +0.000 C 
BRANCH   8   9
ATOM      9  C   UNL     1      45.031   2.630   8.008  0.00  0.00    +0.000 C 
BRANCH   9  10
ATOM     10  C   UNL     1      46.553   2.341   8.021  0.00  0.00    +0.000 C 
ATOM     11  C   UNL     1      47.286   3.272   7.050  0.00  0.00    +0.000 C 
ATOM     12  C   UNL     1      47.165   2.534   5.734  0.00  0.00    +0.000 C 
ATOM     13  N   UNL     1      47.387   1.128   6.090  0.00  0.00    +0.000 NA
ATOM     14  C   UNL     1      46.968   0.964   7.493  0.00  0.00    +0.000 C 
ATOM     15  H   UNL     1      48.388   0.934   6.023  0.00  0.00    +0.000 HD
ENDBRANCH   9  10
BRANCH   9  16
ATOM     16  O   UNL     1      44.881   4.044   7.771  0.00  0.00    +0.000 OA
ATOM     17  H   UNL     1      43.944   4.220   7.585  0.00  0.00    +0.000 HD
ENDBRANCH   9  16
ENDBRANCH   8   9
ENDBRANCH   5   8
ENDBRANCH   1   2
BRANCH   1  20
ATOM     18  O   UNL     1      44.962   8.710  11.491  0.00  0.00    +0.000 OA
ATOM     19  C   UNL     1      45.899   8.422  12.229  0.00  0.00    +0.000 C 
ATOM     20  N   UNL     1      45.872   7.333  13.059  0.00  0.00    +0.000 N 
ATOM     21  H   UNL     1      46.610   7.210  13.743  0.00  0.00    +0.000 HD
BRANCH  19  22
ATOM     22  C   UNL     1      47.137   9.212  12.238  0.00  0.00    +0.000 A 
ATOM     23  C   UNL     1      47.082  10.589  12.074  0.00  0.00    +0.000 A 
ATOM     24  S   UNL     1      48.609  11.347  12.147  0.00  0.00    +0.000 S 
ATOM     25  C   UNL     1      49.391   9.863  12.438  0.00  0.00    +0.000 A 
ATOM     26  N   UNL     1      50.736   9.809  12.655  0.00  0.00    +0.000 NA
ATOM     27  C   UNL     1      51.188   8.628  12.902  0.00  0.00    +0.000 A 
ATOM     28  N   UNL     1      50.428   7.492  12.938  0.00  0.00    +0.000 N 
ATOM     29  C   UNL     1      49.090   7.484  12.635  0.00  0.00    +0.000 A 
ATOM     30  O   UNL     1      48.473   6.431  12.496  0.00  0.00    +0.000 OA
ATOM     31  C   UNL     1      48.509   8.800  12.428  0.00  0.00    +0.000 A 
ATOM     32  H   UNL     1      50.853   6.588  13.093  0.00  0.00    +0.000 HD
ENDBRANCH  19  22
ENDBRANCH   1  20
TORSDOF 7
ENDMDL
MODEL 9
REMARK VINA RESULT:    -6.862      3.976      8.999
REMARK INTER + INTRA:         -10.406
REMARK INTER:                  -9.427
REMARK INTRA:                  -0.979
REMARK UNBOUND:                -0.937
REMARK  Name = 
REMARK  7 active torsions:
REMARK  status: ('A' for Active; 'I' for Inactive)
REMARK    1  A    between atoms: C_2  and  C_19
REMARK    2  A    between atoms: N_3  and  C_4
REMARK    3  A    between atoms: C_4  and  C_5
REMARK    4  A    between atoms: C_8  and  C_9
REMARK    5  A    between atoms: C_9  and  C_10
REMARK    6  A    between atoms: C_10  and  O_11
REMARK    7  A    between atoms: C_10  and  C_12
REMARK                            x       y       z     vdW  Elec       q    Type
REMARK                         _______ _______ _______ _____ _____    ______ ____
ROOT
ATOM      1  C   UNL     1      47.090   3.360  16.863  0.00  0.00    +0.000 C 
ENDROOT
BRANCH   1   2
ATOM      2  C   UNL     1      48.569   3.209  17.062  0.00  0.00    +0.000 A 
ATOM      3  C   UNL     1      49.327   4.216  17.656  0.00  0.00    +0.000 A 
ATOM      4  C   UNL     1      50.690   4.021  17.872  0.00  0.00    +0.000 A 
ATOM      5  C   UNL     1      51.275   2.817  17.478  0.00  0.00    +0.000 A 
ATOM      6  N   UNL     1      50.567   1.839  16.865  0.00  0.00    +0.000 NA
ATOM      7  C   UNL     1      49.245   2.061  16.662  0.00  0.00    +0.000 A 
BRANCH   5   8
ATOM      8  C   UNL     1      52.755   2.572  17.694  0.00  0.00    +0.000 C 
BRANCH   8   9
ATOM      9  C   UNL     1      53.290   3.404  18.869  0.00  0.00    +0.000 C 
BRANCH   9  10
ATOM     10  C   UNL     1      54.556   4.239  18.551  0.00  0.00    +0.000 C 
ATOM     11  C   UNL     1      54.344   5.706  18.938  0.00  0.00    +0.000 C 
ATOM     12  C   UNL     1      53.670   6.275  17.706  0.00  0.00    +0.000 C 
ATOM     13  N   UNL     1      54.388   5.656  16.587  0.00  0.00    +0.000 NA
ATOM     14  C   UNL     1      54.910   4.363  17.067  0.00  0.00    +0.000 C 
ATOM     15  H   UNL     1      55.178   6.255  16.342  0.00  0.00    +0.000 HD
ENDBRANCH   9  10
BRANCH   9  16
ATOM     16  O   UNL     1      53.644   2.511  19.945  0.00  0.00    +0.000 OA
ATOM     17  H   UNL     1      52.922   1.870  20.054  0.00  0.00    +0.000 HD
ENDBRANCH   9  16
ENDBRANCH   8   9
ENDBRANCH   5   8
ENDBRANCH   1   2
BRANCH   1  20
ATOM     18  O   UNL     1      47.214   3.071  14.060  0.00  0.00    +0.000 OA
ATOM     19  C   UNL     1      46.815   4.130  14.532  0.00  0.00    +0.000 C 
ATOM     20  N   UNL     1      46.776   4.366  15.881  0.00  0.00    +0.000 N 
ATOM     21  H   UNL     1      46.318   5.201  16.228  0.00  0.00    +0.000 HD
BRANCH  19  22
ATOM     22  C   UNL     1      46.389   5.240  13.670  0.00  0.00    +0.000 A 
ATOM     23  C   UNL     1      47.253   6.298  13.423  0.00  0.00    +0.000 A 
ATOM     24  S   UNL     1      46.606   7.478  12.373  0.00  0.00    +0.000 S 
ATOM     25  C   UNL     1      45.163   6.594  12.183  0.00  0.00    +0.000 A 
ATOM     26  N   UNL     1      44.178   7.030  11.348  0.00  0.00    +0.000 NA
ATOM     27  C   UNL     1      43.160   6.244  11.269  0.00  0.00    +0.000 A 
ATOM     28  N   UNL     1      43.024   5.070  11.957  0.00  0.00    +0.000 N 
ATOM     29  C   UNL     1      43.945   4.638  12.877  0.00  0.00    +0.000 A 
ATOM     30  O   UNL     1      43.714   3.681  13.612  0.00  0.00    +0.000 OA
ATOM     31  C   UNL     1      45.154   5.444  12.948  0.00  0.00    +0.000 A 
ATOM     32  H   UNL     1      42.179   4.521  11.886  0.00  0.00    +0.000 HD
ENDBRANCH  19  22
ENDBRANCH   1  20
TORSDOF 7
ENDMDL
