MODEL 1
REMARK VINA RESULT:    -8.033      0.000      0.000
REMARK INTER + INTRA:         -12.503
REMARK INTER:                 -11.085
REMARK INTRA:                  -1.418
REMARK UNBOUND:                -1.418
REMARK  Name = 
REMARK  8 active torsions:
REMARK  status: ('A' for Active; 'I' for Inactive)
REMARK    1  A    between atoms: C_1  and  C_2
REMARK    2  A    between atoms: C_2  and  N_3
REMARK    3  A    between atoms: N_3  and  C_4
REMARK    4  A    between atoms: C_4  and  C_5
REMARK    5  A    between atoms: C_8  and  C_9
REMARK    6  A    between atoms: C_9  and  O_10
REMARK    7  A    between atoms: C_9  and  C_11
REMARK    8  A    between atoms: C_19  and  C_21
REMARK                            x       y       z     vdW  Elec       q    Type
REMARK                         _______ _______ _______ _____ _____    ______ ____
ROOT
ATOM      1  N   UNL     1      46.576   7.021  12.141  0.00  0.00    +0.000 N 
ATOM      2  C   UNL     1      45.299   6.730  11.618  0.00  0.00    +0.000 C 
ATOM      3  O   UNL     1      44.545   7.625  11.238  0.00  0.00    +0.000 OA
ENDROOT
BRANCH   2   4
ATOM      4  C   UNL     1      44.832   5.335  11.561  0.00  0.00    +0.000 A 
ATOM      5  C   UNL     1      44.095   4.703  12.550  0.00  0.00    +0.000 A 
ATOM      6  S   UNL     1      43.625   3.112  12.146  0.00  0.00    +0.000 S 
ATOM      7  C   UNL     1      44.265   3.267  10.579  0.00  0.00    +0.000 A 
ATOM      8  N   UNL     1      44.100   2.284   9.654  0.00  0.00    +0.000 NA
ATOM      9  C   UNL     1      44.583   2.571   8.490  0.00  0.00    +0.000 A 
ATOM     10  N   UNL     1      45.251   3.730   8.182  0.00  0.00    +0.000 N 
ATOM     11  C   UNL     1      45.552   4.695   9.120  0.00  0.00    +0.000 A 
ATOM     12  O   UNL     1      46.344   5.597   8.873  0.00  0.00    +0.000 OA
ATOM     13  C   UNL     1      44.920   4.472  10.406  0.00  0.00    +0.000 A 
ATOM     14  H   UNL     1      45.664   3.859   7.270  0.00  0.00    +0.000 HD
ENDBRANCH   2   4
BRANCH   1  16
ATOM     15  C   UNL     1      48.370   8.714  11.923  0.00  0.00    +0.000 C 
ATOM     16  C   UNL     1      46.920   8.436  12.296  0.00  0.00    +0.000 C 
ENDBRANCH   1  16
BRANCH   1  17
ATOM     17  C   UNL     1      47.469   5.986  12.649  0.00  0.00    +0.000 C 
BRANCH  17  18
ATOM     18  C   UNL     1      47.561   5.715  14.122  0.00  0.00    +0.000 A 
ATOM     19  C   UNL     1      46.891   4.630  14.700  0.00  0.00    +0.000 A 
ATOM     20  C   UNL     1      47.212   4.227  15.992  0.00  0.00    +0.000 A 
ATOM     21  C   UNL     1      48.211   4.917  16.671  0.00  0.00    +0.000 A 
ATOM     22  N   UNL     1      48.810   6.032  16.163  0.00  0.00    +0.000 NA
ATOM     23  C   UNL     1      48.458   6.414  14.916  0.00  0.00    +0.000 A 
BRANCH  21  24
ATOM     24  C   UNL     1      48.773   4.374  17.981  0.00  0.00    +0.000 C 
BRANCH  24  25
ATOM     25  C   UNL     1      50.059   3.598  17.831  0.00  0.00    +0.000 A 
ATOM     26  C   UNL     1      50.038   2.270  17.375  0.00  0.00    +0.000 A 
ATOM     27  C   UNL     1      51.223   1.542  17.262  0.00  0.00    +0.000 A 
ATOM     28  C   UNL     1      52.441   2.133  17.598  0.00  0.00    +0.000 A 
ATOM     29  C   UNL     1      52.477   3.457  18.029  0.00  0.00    +0.000 A 
ATOM     30  C   UNL     1      51.295   4.187  18.140  0.00  0.00    +0.000 A 
ENDBRANCH  24  25
BRANCH  24  31
ATOM     31  O   UNL     1      47.800   3.534  18.618  0.00  0.00    +0.000 OA
ATOM     32  H   UNL     1      47.420   4.095  19.324  0.00  0.00    +0.000 HD
ENDBRANCH  24  31
ENDBRANCH  21  24
ENDBRANCH  17  18
ENDBRANCH   1  17
TORSDOF 7
ENDMDL
MODEL 2
REMARK VINA RESULT:    -7.546      2.462      8.046
REMARK INTER + INTRA:         -11.831
REMARK INTER:                 -10.684
REMARK INTRA:                  -1.147
REMARK UNBOUND:                -1.418
REMARK  Name = 
REMARK  8 active torsions:
REMARK  status: ('A' for Active; 'I' for Inactive)
REMARK    1  A    between atoms: C_1  and  C_2
REMARK    2  A    between atoms: C_2  and  N_3
REMARK    3  A    between atoms: N_3  and  C_4
REMARK    4  A    between atoms: C_4  and  C_5
REMARK    5  A    between atoms: C_8  and  C_9
REMARK    6  A    between atoms: C_9  and  O_10
REMARK    7  A    between atoms: C_9  and  C_11
REMARK    8  A    between atoms: C_19  and  C_21
REMARK                            x       y       z     vdW  Elec       q    Type
REMARK                         _______ _______ _______ _____ _____    ______ ____
ROOT
ATOM      1  N   UNL     1      48.298   7.109  15.088  0.00  0.00    +0.000 N 
ATOM      2  C   UNL     1      48.355   6.796  16.462  0.00  0.00    +0.000 C 
ATOM      3  O   UNL     1      48.365   7.679  17.319  0.00  0.00    +0.000 OA
ENDROOT
BRANCH   2   4
ATOM      4  C   UNL     1      48.447   5.390  16.889  0.00  0.00    +0.000 A 
ATOM      5  C   UNL     1      47.399   4.484  16.867  0.00  0.00    +0.000 A 
ATOM      6  S   UNL     1      47.846   2.904  17.337  0.00  0.00    +0.000 S 
ATOM      7  C   UNL     1      49.484   3.346  17.444  0.00  0.00    +0.000 A 
ATOM      8  N   UNL     1      50.445   2.418  17.700  0.00  0.00    +0.000 NA
ATOM      9  C   UNL     1      51.648   2.890  17.687  0.00  0.00    +0.000 A 
ATOM     10  N   UNL     1      51.971   4.209  17.483  0.00  0.00    +0.000 N 
ATOM     11  C   UNL     1      51.024   5.202  17.348  0.00  0.00    +0.000 A 
ATOM     12  O   UNL     1      51.332   6.386  17.403  0.00  0.00    +0.000 OA
ATOM     13  C   UNL     1      49.668   4.699  17.231  0.00  0.00    +0.000 A 
ATOM     14  H   UNL     1      52.928   4.521  17.555  0.00  0.00    +0.000 HD
ENDBRANCH   2   4
BRANCH   1  16
ATOM     15  C   UNL     1      49.354   8.804  13.624  0.00  0.00    +0.000 C 
ATOM     16  C   UNL     1      48.346   8.528  14.731  0.00  0.00    +0.000 C 
ENDBRANCH   1  16
BRANCH   1  17
ATOM     17  C   UNL     1      48.339   6.086  14.049  0.00  0.00    +0.000 C 
BRANCH  17  18
ATOM     18  C   UNL     1      47.110   5.759  13.254  0.00  0.00    +0.000 A 
ATOM     19  C   UNL     1      46.675   6.596  12.220  0.00  0.00    +0.000 A 
ATOM     20  C   UNL     1      45.719   6.142  11.317  0.00  0.00    +0.000 A 
ATOM     21  C   UNL     1      45.231   4.848  11.466  0.00  0.00    +0.000 A 
ATOM     22  N   UNL     1      45.572   4.050  12.519  0.00  0.00    +0.000 NA
ATOM     23  C   UNL     1      46.483   4.529  13.393  0.00  0.00    +0.000 A 
BRANCH  21  24
ATOM     24  C   UNL     1      44.376   4.213  10.374  0.00  0.00    +0.000 C 
BRANCH  24  25
ATOM     25  C   UNL     1      45.167   3.571   9.260  0.00  0.00    +0.000 A 
ATOM     26  C   UNL     1      45.329   2.177   9.216  0.00  0.00    +0.000 A 
ATOM     27  C   UNL     1      46.084   1.584   8.204  0.00  0.00    +0.000 A 
ATOM     28  C   UNL     1      46.679   2.374   7.222  0.00  0.00    +0.000 A 
ATOM     29  C   UNL     1      46.506   3.757   7.240  0.00  0.00    +0.000 A 
ATOM     30  C   UNL     1      45.750   4.352   8.249  0.00  0.00    +0.000 A 
ENDBRANCH  24  25
BRANCH  24  31
ATOM     31  O   UNL     1      43.499   5.197   9.808  0.00  0.00    +0.000 OA
ATOM     32  H   UNL     1      44.022   5.600   9.085  0.00  0.00    +0.000 HD
ENDBRANCH  24  31
ENDBRANCH  21  24
ENDBRANCH  17  18
ENDBRANCH   1  17
TORSDOF 7
ENDMDL
MODEL 3
REMARK VINA RESULT:    -7.476      1.513      2.347
REMARK INTER + INTRA:         -11.734
REMARK INTER:                 -10.427
REMARK INTRA:                  -1.307
REMARK UNBOUND:                -1.418
REMARK  Name = 
REMARK  8 active torsions:
REMARK  status: ('A' for Active; 'I' for Inactive)
REMARK    1  A    between atoms: C_1  and  C_2
REMARK    2  A    between atoms: C_2  and  N_3
REMARK    3  A    between atoms: N_3  and  C_4
REMARK    4  A    between atoms: C_4  and  C_5
REMARK    5  A    between atoms: C_8  and  C_9
REMARK    6  A    between atoms: C_9  and  O_10
REMARK    7  A    between atoms: C_9  and  C_11
REMARK    8  A    between atoms: C_19  and  C_21
REMARK                            x       y       z     vdW  Elec       q    Type
REMARK                         _______ _______ _______ _____ _____    ______ ____
ROOT
ATOM      1  N   UNL     1      46.011   7.160  11.994  0.00  0.00    +0.000 N 
ATOM      2  C   UNL     1      44.740   6.709  11.582  0.00  0.00    +0.000 C 
ATOM      3  O   UNL     1      43.828   7.499  11.342  0.00  0.00    +0.000 OA
ENDROOT
BRANCH   2   4
ATOM      4  C   UNL     1      44.476   5.264  11.474  0.00  0.00    +0.000 A 
ATOM      5  C   UNL     1      43.714   4.528  12.368  0.00  0.00    +0.000 A 
ATOM      6  S   UNL     1      43.515   2.893  11.918  0.00  0.00    +0.000 S 
ATOM      7  C   UNL     1      44.317   3.151  10.441  0.00  0.00    +0.000 A 
ATOM      8  N   UNL     1      44.401   2.165   9.508  0.00  0.00    +0.000 NA
ATOM      9  C   UNL     1      44.980   2.527   8.412  0.00  0.00    +0.000 A 
ATOM     10  N   UNL     1      45.519   3.769   8.182  0.00  0.00    +0.000 N 
ATOM     11  C   UNL     1      45.570   4.755   9.145  0.00  0.00    +0.000 A 
ATOM     12  O   UNL     1      46.257   5.758   8.993  0.00  0.00    +0.000 OA
ATOM     13  C   UNL     1      44.820   4.434  10.345  0.00  0.00    +0.000 A 
ATOM     14  H   UNL     1      46.020   3.962   7.327  0.00  0.00    +0.000 HD
ENDBRANCH   2   4
BRANCH   1  16
ATOM     15  C   UNL     1      47.613   9.045  12.098  0.00  0.00    +0.000 C 
ATOM     16  C   UNL     1      46.162   8.600  12.211  0.00  0.00    +0.000 C 
ENDBRANCH   1  16
BRANCH   1  17
ATOM     17  C   UNL     1      47.094   6.246  12.338  0.00  0.00    +0.000 C 
BRANCH  17  18
ATOM     18  C   UNL     1      47.318   5.834  13.763  0.00  0.00    +0.000 A 
ATOM     19  C   UNL     1      46.707   4.689  14.289  0.00  0.00    +0.000 A 
ATOM     20  C   UNL     1      47.144   4.166  15.502  0.00  0.00    +0.000 A 
ATOM     21  C   UNL     1      48.197   4.799  16.154  0.00  0.00    +0.000 A 
ATOM     22  N   UNL     1      48.744   5.966  15.707  0.00  0.00    +0.000 NA
ATOM     23  C   UNL     1      48.280   6.464  14.539  0.00  0.00    +0.000 A 
BRANCH  21  24
ATOM     24  C   UNL     1      48.877   4.137  17.349  0.00  0.00    +0.000 C 
BRANCH  24  25
ATOM     25  C   UNL     1      48.626   4.828  18.667  0.00  0.00    +0.000 A 
ATOM     26  C   UNL     1      49.579   4.763  19.695  0.00  0.00    +0.000 A 
ATOM     27  C   UNL     1      49.337   5.376  20.925  0.00  0.00    +0.000 A 
ATOM     28  C   UNL     1      48.145   6.067  21.139  0.00  0.00    +0.000 A 
ATOM     29  C   UNL     1      47.201   6.159  20.118  0.00  0.00    +0.000 A 
ATOM     30  C   UNL     1      47.441   5.549  18.888  0.00  0.00    +0.000 A 
ENDBRANCH  24  25
BRANCH  24  31
ATOM     31  O   UNL     1      50.292   4.067  17.128  0.00  0.00    +0.000 OA
ATOM     32  H   UNL     1      50.506   3.117  17.230  0.00  0.00    +0.000 HD
ENDBRANCH  24  31
ENDBRANCH  21  24
ENDBRANCH  17  18
ENDBRANCH   1  17
TORSDOF 7
ENDMDL
MODEL 4
REMARK VINA RESULT:    -7.162      3.396      8.053
REMARK INTER + INTRA:         -11.301
REMARK INTER:                  -9.825
REMARK INTRA:                  -1.476
REMARK UNBOUND:                -1.418
REMARK  Name = 
REMARK  8 active torsions:
REMARK  status: ('A' for Active; 'I' for Inactive)
REMARK    1  A    between atoms: C_1  and  C_2
REMARK    2  A    between atoms: C_2  and  N_3
REMARK    3  A    between atoms: N_3  and  C_4
REMARK    4  A    between atoms: C_4  and  C_5
REMARK    5  A    between atoms: C_8  and  C_9
REMARK    6  A    between atoms: C_9  and  O_10
REMARK    7  A    between atoms: C_9  and  C_11
REMARK    8  A    between atoms: C_19  and  C_21
REMARK                            x       y       z     vdW  Elec       q    Type
REMARK                         _______ _______ _______ _____ _____    ______ ____
ROOT
ATOM      1  N   UNL     1      48.509   9.177  13.918  0.00  0.00    +0.000 N 
ATOM      2  C   UNL     1      49.322   9.426  15.043  0.00  0.00    +0.000 C 
ATOM      3  O   UNL     1      50.464   9.868  14.921  0.00  0.00    +0.000 OA
ENDROOT
BRANCH   2   4
ATOM      4  C   UNL     1      48.820   9.115  16.392  0.00  0.00    +0.000 A 
ATOM      5  C   UNL     1      48.237  10.031  17.252  0.00  0.00    +0.000 A 
ATOM      6  S   UNL     1      47.672   9.342  18.709  0.00  0.00    +0.000 S 
ATOM      7  C   UNL     1      48.056   7.775  18.175  0.00  0.00    +0.000 A 
ATOM      8  N   UNL     1      47.722   6.681  18.912  0.00  0.00    +0.000 NA
ATOM      9  C   UNL     1      48.019   5.557  18.349  0.00  0.00    +0.000 A 
ATOM     10  N   UNL     1      48.655   5.429  17.139  0.00  0.00    +0.000 N 
ATOM     11  C   UNL     1      49.125   6.509  16.420  0.00  0.00    +0.000 A 
ATOM     12  O   UNL     1      49.887   6.359  15.473  0.00  0.00    +0.000 OA
ATOM     13  C   UNL     1      48.702   7.790  16.953  0.00  0.00    +0.000 A 
ATOM     14  H   UNL     1      48.920   4.520  16.790  0.00  0.00    +0.000 HD
ENDBRANCH   2   4
BRANCH   1  16
ATOM     15  C   UNL     1      48.551  10.601  11.892  0.00  0.00    +0.000 C 
ATOM     16  C   UNL     1      49.120   9.381  12.603  0.00  0.00    +0.000 C 
ENDBRANCH   1  16
BRANCH   1  17
ATOM     17  C   UNL     1      47.173   8.603  14.028  0.00  0.00    +0.000 C 
BRANCH  17  18
ATOM     18  C   UNL     1      46.676   7.629  13.001  0.00  0.00    +0.000 A 
ATOM     19  C   UNL     1      47.029   6.275  13.060  0.00  0.00    +0.000 A 
ATOM     20  C   UNL     1      46.342   5.345  12.286  0.00  0.00    +0.000 A 
ATOM     21  C   UNL     1      45.304   5.797  11.478  0.00  0.00    +0.000 A 
ATOM     22  N   UNL     1      45.005   7.121  11.335  0.00  0.00    +0.000 NA
ATOM     23  C   UNL     1      45.708   8.001  12.080  0.00  0.00    +0.000 A 
BRANCH  21  24
ATOM     24  C   UNL     1      44.362   4.806  10.802  0.00  0.00    +0.000 C 
BRANCH  24  25
ATOM     25  C   UNL     1      45.006   3.978   9.716  0.00  0.00    +0.000 A 
ATOM     26  C   UNL     1      45.694   4.601   8.663  0.00  0.00    +0.000 A 
ATOM     27  C   UNL     1      46.265   3.840   7.642  0.00  0.00    +0.000 A 
ATOM     28  C   UNL     1      46.160   2.450   7.666  0.00  0.00    +0.000 A 
ATOM     29  C   UNL     1      45.500   1.818   8.718  0.00  0.00    +0.000 A 
ATOM     30  C   UNL     1      44.931   2.576   9.740  0.00  0.00    +0.000 A 
ENDBRANCH  24  25
BRANCH  24  31
ATOM     31  O   UNL     1      43.238   5.501  10.246  0.00  0.00    +0.000 OA
ATOM     32  H   UNL     1      42.483   5.229  10.806  0.00  0.00    +0.000 HD
ENDBRANCH  24  31
ENDBRANCH  21  24
ENDBRANCH  17  18
ENDBRANCH   1  17
TORSDOF 7
ENDMDL
MODEL 5
REMARK VINA RESULT:    -6.776      2.994      8.341
REMARK INTER + INTRA:         -10.768
REMARK INTER:                  -9.304
REMARK INTRA:                  -1.464
REMARK UNBOUND:                -1.418
REMARK  Name = 
REMARK  8 active torsions:
REMARK  status: ('A' for Active; 'I' for Inactive)
REMARK    1  A    between atoms: C_1  and  C_2
REMARK    2  A    between atoms: C_2  and  N_3
REMARK    3  A    between atoms: N_3  and  C_4
REMARK    4  A    between atoms: C_4  and  C_5
REMARK    5  A    between atoms: C_8  and  C_9
REMARK    6  A    between atoms: C_9  and  O_10
REMARK    7  A    between atoms: C_9  and  C_11
REMARK    8  A    between atoms: C_19  and  C_21
REMARK                            x       y       z     vdW  Elec       q    Type
REMARK                         _______ _______ _______ _____ _____    ______ ____
ROOT
ATOM      1  N   UNL     1      49.610   7.706  14.801  0.00  0.00    +0.000 N 
ATOM      2  C   UNL     1      50.063   6.951  15.903  0.00  0.00    +0.000 C 
ATOM      3  O   UNL     1      51.261   6.726  16.074  0.00  0.00    +0.000 OA
ENDROOT
BRANCH   2   4
ATOM      4  C   UNL     1      49.090   6.383  16.850  0.00  0.00    +0.000 A 
ATOM      5  C   UNL     1      48.592   5.091  16.796  0.00  0.00    +0.000 A 
ATOM      6  S   UNL     1      47.550   4.701  18.092  0.00  0.00    +0.000 S 
ATOM      7  C   UNL     1      47.846   6.197  18.845  0.00  0.00    +0.000 A 
ATOM      8  N   UNL     1      47.338   6.474  20.076  0.00  0.00    +0.000 NA
ATOM      9  C   UNL     1      47.702   7.621  20.547  0.00  0.00    +0.000 A 
ATOM     10  N   UNL     1      48.489   8.529  19.884  0.00  0.00    +0.000 N 
ATOM     11  C   UNL     1      48.918   8.343  18.586  0.00  0.00    +0.000 A 
ATOM     12  O   UNL     1      49.415   9.260  17.943  0.00  0.00    +0.000 OA
ATOM     13  C   UNL     1      48.640   7.018  18.066  0.00  0.00    +0.000 A 
ATOM     14  H   UNL     1      48.677   9.436  20.283  0.00  0.00    +0.000 HD
ENDBRANCH   2   4
BRANCH   1  16
ATOM     15  C   UNL     1      50.298   9.480  13.216  0.00  0.00    +0.000 C 
ATOM     16  C   UNL     1      50.621   8.123  13.826  0.00  0.00    +0.000 C 
ENDBRANCH   1  16
BRANCH   1  17
ATOM     17  C   UNL     1      48.195   7.943  14.542  0.00  0.00    +0.000 C 
BRANCH  17  18
ATOM     18  C   UNL     1      47.468   7.148  13.498  0.00  0.00    +0.000 A 
ATOM     19  C   UNL     1      47.383   5.753  13.582  0.00  0.00    +0.000 A 
ATOM     20  C   UNL     1      46.477   5.065  12.782  0.00  0.00    +0.000 A 
ATOM     21  C   UNL     1      45.666   5.798  11.921  0.00  0.00    +0.000 A 
ATOM     22  N   UNL     1      45.797   7.145  11.757  0.00  0.00    +0.000 NA
ATOM     23  C   UNL     1      46.703   7.782  12.530  0.00  0.00    +0.000 A 
BRANCH  21  24
ATOM     24  C   UNL     1      44.494   5.130  11.207  0.00  0.00    +0.000 C 
BRANCH  24  25
ATOM     25  C   UNL     1      44.896   4.222  10.071  0.00  0.00    +0.000 A 
ATOM     26  C   UNL     1      44.585   2.854  10.111  0.00  0.00    +0.000 A 
ATOM     27  C   UNL     1      44.981   2.007   9.075  0.00  0.00    +0.000 A 
ATOM     28  C   UNL     1      45.684   2.518   7.985  0.00  0.00    +0.000 A 
ATOM     29  C   UNL     1      45.978   3.879   7.921  0.00  0.00    +0.000 A 
ATOM     30  C   UNL     1      45.582   4.727   8.954  0.00  0.00    +0.000 A 
ENDBRANCH  24  25
BRANCH  24  31
ATOM     31  O   UNL     1      43.597   6.129  10.704  0.00  0.00    +0.000 OA
ATOM     32  H   UNL     1      42.767   5.982  11.201  0.00  0.00    +0.000 HD
ENDBRANCH  24  31
ENDBRANCH  21  24
ENDBRANCH  17  18
ENDBRANCH   1  17
TORSDOF 7
ENDMDL
MODEL 6
REMARK VINA RESULT:    -6.431      2.945      7.937
REMARK INTER + INTRA:         -10.292
REMARK INTER:                  -8.764
REMARK INTRA:                  -1.527
REMARK UNBOUND:                -1.418
REMARK  Name = 
REMARK  8 active torsions:
REMARK  status: ('A' for Active; 'I' for Inactive)
REMARK    1  A    between atoms: C_1  and  C_2
REMARK    2  A    between atoms: C_2  and  N_3
REMARK    3  A    between atoms: N_3  and  C_4
REMARK    4  A    between atoms: C_4  and  C_5
REMARK    5  A    between atoms: C_8  and  C_9
REMARK    6  A    between atoms: C_9  and  O_10
REMARK    7  A    between atoms: C_9  and  C_11
REMARK    8  A    between atoms: C_19  and  C_21
REMARK                            x       y       z     vdW  Elec       q    Type
REMARK                         _______ _______ _______ _____ _____    ______ ____
ROOT
ATOM      1  N   UNL     1      48.678   8.162  16.709  0.00  0.00    +0.000 N 
ATOM      2  C   UNL     1      49.158   7.395  17.790  0.00  0.00    +0.000 C 
ATOM      3  O   UNL     1      48.819   7.639  18.948  0.00  0.00    +0.000 OA
ENDROOT
BRANCH   2   4
ATOM      4  C   UNL     1      50.117   6.305  17.545  0.00  0.00    +0.000 A 
ATOM      5  C   UNL     1      51.495   6.426  17.630  0.00  0.00    +0.000 A 
ATOM      6  S   UNL     1      52.331   4.957  17.381  0.00  0.00    +0.000 S 
ATOM      7  C   UNL     1      50.874   4.085  17.296  0.00  0.00    +0.000 A 
ATOM      8  N   UNL     1      50.874   2.729  17.201  0.00  0.00    +0.000 NA
ATOM      9  C   UNL     1      49.695   2.201  17.212  0.00  0.00    +0.000 A 
ATOM     10  N   UNL     1      48.519   2.908  17.266  0.00  0.00    +0.000 N 
ATOM     11  C   UNL     1      48.470   4.286  17.234  0.00  0.00    +0.000 A 
ATOM     12  O   UNL     1      47.415   4.880  17.047  0.00  0.00    +0.000 OA
ATOM     13  C   UNL     1      49.771   4.917  17.349  0.00  0.00    +0.000 A 
ATOM     14  H   UNL     1      47.631   2.435  17.201  0.00  0.00    +0.000 HD
ENDBRANCH   2   4
BRANCH   1  16
ATOM     15  C   UNL     1      48.587  10.630  16.886  0.00  0.00    +0.000 C 
ATOM     16  C   UNL     1      47.837   9.314  17.039  0.00  0.00    +0.000 C 
ENDBRANCH   1  16
BRANCH   1  17
ATOM     17  C   UNL     1      49.104   7.931  15.333  0.00  0.00    +0.000 C 
BRANCH  17  18
ATOM     18  C   UNL     1      48.137   7.406  14.315  0.00  0.00    +0.000 A 
ATOM     19  C   UNL     1      47.958   6.029  14.132  0.00  0.00    +0.000 A 
ATOM     20  C   UNL     1      46.868   5.563  13.403  0.00  0.00    +0.000 A 
ATOM     21  C   UNL     1      45.973   6.493  12.884  0.00  0.00    +0.000 A 
ATOM     22  N   UNL     1      46.178   7.839  12.972  0.00  0.00    +0.000 NA
ATOM     23  C   UNL     1      47.260   8.260  13.663  0.00  0.00    +0.000 A 
BRANCH  21  24
ATOM     24  C   UNL     1      44.641   6.040  12.295  0.00  0.00    +0.000 C 
BRANCH  24  25
ATOM     25  C   UNL     1      44.769   5.108  11.114  0.00  0.00    +0.000 A 
ATOM     26  C   UNL     1      44.212   3.821  11.162  0.00  0.00    +0.000 A 
ATOM     27  C   UNL     1      44.354   2.948  10.082  0.00  0.00    +0.000 A 
ATOM     28  C   UNL     1      45.048   3.353   8.943  0.00  0.00    +0.000 A 
ATOM     29  C   UNL     1      45.586   4.637   8.874  0.00  0.00    +0.000 A 
ATOM     30  C   UNL     1      45.443   5.511   9.950  0.00  0.00    +0.000 A 
ENDBRANCH  24  25
BRANCH  24  31
ATOM     31  O   UNL     1      43.869   7.181  11.899  0.00  0.00    +0.000 OA
ATOM     32  H   UNL     1      44.521   7.783  11.485  0.00  0.00    +0.000 HD
ENDBRANCH  24  31
ENDBRANCH  21  24
ENDBRANCH  17  18
ENDBRANCH   1  17
TORSDOF 7
ENDMDL
MODEL 7
REMARK VINA RESULT:    -6.022      2.891      8.117
REMARK INTER + INTRA:          -9.728
REMARK INTER:                  -8.356
REMARK INTRA:                  -1.371
REMARK UNBOUND:                -1.418
REMARK  Name = 
REMARK  8 active torsions:
REMARK  status: ('A' for Active; 'I' for Inactive)
REMARK    1  A    between atoms: C_1  and  C_2
REMARK    2  A    between atoms: C_2  and  N_3
REMARK    3  A    between atoms: N_3  and  C_4
REMARK    4  A    between atoms: C_4  and  C_5
REMARK    5  A    between atoms: C_8  and  C_9
REMARK    6  A    between atoms: C_9  and  O_10
REMARK    7  A    between atoms: C_9  and  C_11
REMARK    8  A    between atoms: C_19  and  C_21
REMARK                            x       y       z     vdW  Elec       q    Type
REMARK                         _______ _______ _______ _____ _____    ______ ____
ROOT
ATOM      1  N   UNL     1      49.662   8.272  14.768  0.00  0.00    +0.000 N 
ATOM      2  C   UNL     1      49.752   8.449  16.164  0.00  0.00    +0.000 C 
ATOM      3  O   UNL     1      50.145   9.509  16.649  0.00  0.00    +0.000 OA
ENDROOT
BRANCH   2   4
ATOM      4  C   UNL     1      49.412   7.337  17.066  0.00  0.00    +0.000 A 
ATOM      5  C   UNL     1      48.166   7.130  17.636  0.00  0.00    +0.000 A 
ATOM      6  S   UNL     1      48.062   5.699  18.562  0.00  0.00    +0.000 S 
ATOM      7  C   UNL     1      49.634   5.234  18.111  0.00  0.00    +0.000 A 
ATOM      8  N   UNL     1      50.140   4.026  18.476  0.00  0.00    +0.000 NA
ATOM      9  C   UNL     1      51.319   3.786  18.006  0.00  0.00    +0.000 A 
ATOM     10  N   UNL     1      52.052   4.659  17.241  0.00  0.00    +0.000 N 
ATOM     11  C   UNL     1      51.631   5.941  16.955  0.00  0.00    +0.000 A 
ATOM     12  O   UNL     1      52.397   6.770  16.477  0.00  0.00    +0.000 OA
ATOM     13  C   UNL     1      50.263   6.207  17.356  0.00  0.00    +0.000 A 
ATOM     14  H   UNL     1      52.996   4.434  16.965  0.00  0.00    +0.000 HD
ENDBRANCH   2   4
BRANCH   1  16
ATOM     15  C   UNL     1      51.540   9.101  13.383  0.00  0.00    +0.000 C 
ATOM     16  C   UNL     1      50.145   9.371  13.930  0.00  0.00    +0.000 C 
ENDBRANCH   1  16
BRANCH   1  17
ATOM     17  C   UNL     1      49.252   7.010  14.162  0.00  0.00    +0.000 C 
BRANCH  17  18
ATOM     18  C   UNL     1      47.816   6.770  13.799  0.00  0.00    +0.000 A 
ATOM     19  C   UNL     1      47.048   7.772  13.192  0.00  0.00    +0.000 A 
ATOM     20  C   UNL     1      45.827   7.450  12.608  0.00  0.00    +0.000 A 
ATOM     21  C   UNL     1      45.412   6.122  12.634  0.00  0.00    +0.000 A 
ATOM     22  N   UNL     1      46.099   5.150  13.300  0.00  0.00    +0.000 NA
ATOM     23  C   UNL     1      47.267   5.499  13.880  0.00  0.00    +0.000 A 
BRANCH  21  24
ATOM     24  C   UNL     1      44.216   5.670  11.803  0.00  0.00    +0.000 C 
BRANCH  24  25
ATOM     25  C   UNL     1      44.568   4.756  10.654  0.00  0.00    +0.000 A 
ATOM     26  C   UNL     1      45.342   5.228   9.583  0.00  0.00    +0.000 A 
ATOM     27  C   UNL     1      45.645   4.394   8.506  0.00  0.00    +0.000 A 
ATOM     28  C   UNL     1      45.183   3.078   8.490  0.00  0.00    +0.000 A 
ATOM     29  C   UNL     1      44.433   2.590   9.559  0.00  0.00    +0.000 A 
ATOM     30  C   UNL     1      44.132   3.422  10.637  0.00  0.00    +0.000 A 
ENDBRANCH  24  25
BRANCH  24  31
ATOM     31  O   UNL     1      43.521   6.813  11.285  0.00  0.00    +0.000 OA
ATOM     32  H   UNL     1      42.726   6.438  10.855  0.00  0.00    +0.000 HD
ENDBRANCH  24  31
ENDBRANCH  21  24
ENDBRANCH  17  18
ENDBRANCH   1  17
TORSDOF 7
ENDMDL
MODEL 8
REMARK VINA RESULT:    -5.902      3.581      8.127
REMARK INTER + INTRA:          -9.562
REMARK INTER:                  -7.830
REMARK INTRA:                  -1.732
REMARK UNBOUND:                -1.418
REMARK  Name = 
REMARK  8 active torsions:
REMARK  status: ('A' for Active; 'I' for Inactive)
REMARK    1  A    between atoms: C_1  and  C_2
REMARK    2  A    between atoms: C_2  and  N_3
REMARK    3  A    between atoms: N_3  and  C_4
REMARK    4  A    between atoms: C_4  and  C_5
REMARK    5  A    between atoms: C_8  and  C_9
REMARK    6  A    between atoms: C_9  and  O_10
REMARK    7  A    between atoms: C_9  and  C_11
REMARK    8  A    between atoms: C_19  and  C_21
REMARK                            x       y       z     vdW  Elec       q    Type
REMARK                         _______ _______ _______ _____ _____    ______ ____
ROOT
ATOM      1  N   UNL     1      49.686   7.267  19.342  0.00  0.00    +0.000 N 
ATOM      2  C   UNL     1      49.641   5.919  19.752  0.00  0.00    +0.000 C 
ATOM      3  O   UNL     1      49.146   5.595  20.831  0.00  0.00    +0.000 OA
ENDROOT
BRANCH   2   4
ATOM      4  C   UNL     1      50.231   4.874  18.898  0.00  0.00    +0.000 A 
ATOM      5  C   UNL     1      51.544   4.436  18.973  0.00  0.00    +0.000 A 
ATOM      6  S   UNL     1      51.900   3.147  17.911  0.00  0.00    +0.000 S 
ATOM      7  C   UNL     1      50.275   3.036  17.423  0.00  0.00    +0.000 A 
ATOM      8  N   UNL     1      49.861   2.044  16.590  0.00  0.00    +0.000 NA
ATOM      9  C   UNL     1      48.589   2.048  16.359  0.00  0.00    +0.000 A 
ATOM     10  N   UNL     1      47.706   2.977  16.851  0.00  0.00    +0.000 N 
ATOM     11  C   UNL     1      48.102   4.070  17.593  0.00  0.00    +0.000 A 
ATOM     12  O   UNL     1      47.334   4.999  17.817  0.00  0.00    +0.000 OA
ATOM     13  C   UNL     1      49.500   4.035  17.979  0.00  0.00    +0.000 A 
ATOM     14  H   UNL     1      46.736   2.961  16.574  0.00  0.00    +0.000 HD
ENDBRANCH   2   4
BRANCH   1  16
ATOM     15  C   UNL     1      47.743   8.618  20.069  0.00  0.00    +0.000 C 
ATOM     16  C   UNL     1      49.205   8.265  20.300  0.00  0.00    +0.000 C 
ENDBRANCH   1  16
BRANCH   1  17
ATOM     17  C   UNL     1      50.314   7.687  18.095  0.00  0.00    +0.000 C 
BRANCH  17  18
ATOM     18  C   UNL     1      49.545   7.654  16.807  0.00  0.00    +0.000 A 
ATOM     19  C   UNL     1      48.591   8.635  16.511  0.00  0.00    +0.000 A 
ATOM     20  C   UNL     1      48.102   8.757  15.214  0.00  0.00    +0.000 A 
ATOM     21  C   UNL     1      48.595   7.897  14.239  0.00  0.00    +0.000 A 
ATOM     22  N   UNL     1      49.454   6.876  14.524  0.00  0.00    +0.000 NA
ATOM     23  C   UNL     1      49.891   6.768  15.798  0.00  0.00    +0.000 A 
BRANCH  21  24
ATOM     24  C   UNL     1      48.286   8.140  12.765  0.00  0.00    +0.000 C 
BRANCH  24  25
ATOM     25  C   UNL     1      46.992   7.525  12.292  0.00  0.00    +0.000 A 
ATOM     26  C   UNL     1      46.884   6.134  12.132  0.00  0.00    +0.000 A 
ATOM     27  C   UNL     1      45.697   5.565  11.667  0.00  0.00    +0.000 A 
ATOM     28  C   UNL     1      44.605   6.377  11.363  0.00  0.00    +0.000 A 
ATOM     29  C   UNL     1      44.692   7.757  11.540  0.00  0.00    +0.000 A 
ATOM     30  C   UNL     1      45.875   8.327  12.006  0.00  0.00    +0.000 A 
ENDBRANCH  24  25
BRANCH  24  31
ATOM     31  O   UNL     1      49.357   7.641  11.953  0.00  0.00    +0.000 OA
ATOM     32  H   UNL     1      50.157   7.765  12.504  0.00  0.00    +0.000 HD
ENDBRANCH  24  31
ENDBRANCH  21  24
ENDBRANCH  17  18
ENDBRANCH   1  17
TORSDOF 7
ENDMDL
MODEL 9
REMARK VINA RESULT:    -5.602      3.607      7.933
REMARK INTER + INTRA:          -9.148
REMARK INTER:                  -7.217
REMARK INTRA:                  -1.931
REMARK UNBOUND:                -1.418
REMARK  Name = 
REMARK  8 active torsions:
REMARK  status: ('A' for Active; 'I' for Inactive)
REMARK    1  A    between atoms: C_1  and  C_2
REMARK    2  A    between atoms: C_2  and  N_3
REMARK    3  A    between atoms: N_3  and  C_4
REMARK    4  A    between atoms: C_4  and  C_5
REMARK    5  A    between atoms: C_8  and  C_9
REMARK    6  A    between atoms: C_9  and  O_10
REMARK    7  A    between atoms: C_9  and  C_11
REMARK    8  A    between atoms: C_19  and  C_21
REMARK                            x       y       z     vdW  Elec       q    Type
REMARK                         _______ _______ _______ _____ _____    ______ ____
ROOT
ATOM      1  N   UNL     1      50.945   9.619  13.796  0.00  0.00    +0.000 N 
ATOM      2  C   UNL     1      51.149   9.508  15.187  0.00  0.00    +0.000 C 
ATOM      3  O   UNL     1      51.342  10.503  15.886  0.00  0.00    +0.000 OA
ENDROOT
BRANCH   2   4
ATOM      4  C   UNL     1      51.175   8.179  15.820  0.00  0.00    +0.000 A 
ATOM      5  C   UNL     1      52.313   7.410  16.004  0.00  0.00    +0.000 A 
ATOM      6  S   UNL     1      52.030   5.956  16.853  0.00  0.00    +0.000 S 
ATOM      7  C   UNL     1      50.406   6.376  17.130  0.00  0.00    +0.000 A 
ATOM      8  N   UNL     1      49.606   5.601  17.910  0.00  0.00    +0.000 NA
ATOM      9  C   UNL     1      48.418   6.080  18.083  0.00  0.00    +0.000 A 
ATOM     10  N   UNL     1      47.949   7.238  17.514  0.00  0.00    +0.000 N 
ATOM     11  C   UNL     1      48.683   7.985  16.617  0.00  0.00    +0.000 A 
ATOM     12  O   UNL     1      48.162   8.872  15.951  0.00  0.00    +0.000 OA
ATOM     13  C   UNL     1      50.062   7.553  16.492  0.00  0.00    +0.000 A 
ATOM     14  H   UNL     1      46.986   7.517  17.636  0.00  0.00    +0.000 HD
ENDBRANCH   2   4
BRANCH   1  16
ATOM     15  C   UNL     1      51.539  10.909  11.768  0.00  0.00    +0.000 C 
ATOM     16  C   UNL     1      51.068  10.957  13.215  0.00  0.00    +0.000 C 
ENDBRANCH   1  16
BRANCH   1  17
ATOM     17  C   UNL     1      50.769   8.455  12.935  0.00  0.00    +0.000 C 
BRANCH  17  18
ATOM     18  C   UNL     1      49.397   7.918  12.653  0.00  0.00    +0.000 A 
ATOM     19  C   UNL     1      49.003   6.660  13.127  0.00  0.00    +0.000 A 
ATOM     20  C   UNL     1      47.658   6.304  13.107  0.00  0.00    +0.000 A 
ATOM     21  C   UNL     1      46.736   7.227  12.624  0.00  0.00    +0.000 A 
ATOM     22  N   UNL     1      47.108   8.418  12.073  0.00  0.00    +0.000 NA
ATOM     23  C   UNL     1      48.424   8.724  12.082  0.00  0.00    +0.000 A 
BRANCH  21  24
ATOM     24  C   UNL     1      45.240   6.993  12.805  0.00  0.00    +0.000 C 
BRANCH  24  25
ATOM     25  C   UNL     1      44.717   5.755  12.118  0.00  0.00    +0.000 A 
ATOM     26  C   UNL     1      43.913   4.841  12.817  0.00  0.00    +0.000 A 
ATOM     27  C   UNL     1      43.452   3.681  12.192  0.00  0.00    +0.000 A 
ATOM     28  C   UNL     1      43.783   3.426  10.862  0.00  0.00    +0.000 A 
ATOM     29  C   UNL     1      44.561   4.337  10.150  0.00  0.00    +0.000 A 
ATOM     30  C   UNL     1      45.020   5.497  10.771  0.00  0.00    +0.000 A 
ENDBRANCH  24  25
BRANCH  24  31
ATOM     31  O   UNL     1      44.507   8.129  12.328  0.00  0.00    +0.000 OA
ATOM     32  H   UNL     1      44.941   8.358  11.480  0.00  0.00    +0.000 HD
ENDBRANCH  24  31
ENDBRANCH  21  24
ENDBRANCH  17  18
ENDBRANCH   1  17
TORSDOF 7
ENDMDL
