MODEL 1
REMARK VINA RESULT:    -7.496      0.000      0.000
REMARK INTER + INTRA:         -11.822
REMARK INTER:                 -10.564
REMARK INTRA:                  -1.258
REMARK UNBOUND:                -1.258
REMARK  Name = 
REMARK  8 active torsions:
REMARK  status: ('A' for Active; 'I' for Inactive)
REMARK    1  A    between atoms: C_1  and  C_2
REMARK    2  A    between atoms: C_5  and  C_6
REMARK    3  A    between atoms: C_6  and  O_7
REMARK    4  A    between atoms: O_7  and  C_8
REMARK    5  A    between atoms: C_8  and  C_9
REMARK    6  A    between atoms: C_12  and  C_13
REMARK    7  A    between atoms: C_13  and  N_14
REMARK    8  A    between atoms: C_15  and  C_17
REMARK                            x       y       z     vdW  Elec       q    Type
REMARK                         _______ _______ _______ _____ _____    ______ ____
ROOT
ATOM      1  C   UNL     1      48.128   6.852  13.555  0.00  0.00    +0.000 C 
ENDROOT
BRANCH   1   5
ATOM      2  C   UNL     1      44.573   4.826  12.121  0.00  0.00    +0.000 A 
ATOM      3  C   UNL     1      45.355   4.263  13.139  0.00  0.00    +0.000 A 
ATOM      4  C   UNL     1      46.510   4.907  13.596  0.00  0.00    +0.000 A 
ATOM      5  C   UNL     1      46.902   6.136  13.051  0.00  0.00    +0.000 A 
ATOM      6  C   UNL     1      46.138   6.685  12.011  0.00  0.00    +0.000 A 
ATOM      7  C   UNL     1      44.983   6.041  11.557  0.00  0.00    +0.000 A 
BRANCH   2   8
ATOM      8  C   UNL     1      43.325   4.129  11.637  0.00  0.00    +0.000 C 
BRANCH   8   9
ATOM      9  O   UNL     1      43.470   3.830  10.253  0.00  0.00    +0.000 OA
BRANCH   9  10
ATOM     10  C   UNL     1      44.207   2.626  10.041  0.00  0.00    +0.000 C 
BRANCH  10  15
ATOM     11  C   UNL     1      47.846   2.011   6.174  0.00  0.00    +0.000 C 
ATOM     12  C   UNL     1      46.877   2.587   7.149  0.00  0.00    +0.000 A 
ATOM     13  C   UNL     1      46.539   3.910   7.334  0.00  0.00    +0.000 A 
ATOM     14  C   UNL     1      45.571   4.079   8.363  0.00  0.00    +0.000 A 
ATOM     15  C   UNL     1      45.191   2.881   8.939  0.00  0.00    +0.000 A 
ATOM     16  S   UNL     1      46.022   1.563   8.221  0.00  0.00    +0.000 S 
ENDBRANCH  10  15
ENDBRANCH   9  10
ENDBRANCH   8   9
ENDBRANCH   2   8
ENDBRANCH   1   5
BRANCH   1  17
ATOM     17  N   UNL     1      48.222   6.800  14.991  0.00  0.00    +0.000 N 
ATOM     18  C   UNL     1      49.413   7.036  15.631  0.00  0.00    +0.000 C 
ATOM     19  O   UNL     1      50.431   7.344  15.017  0.00  0.00    +0.000 OA
ATOM     20  H   UNL     1      47.469   6.336  15.488  0.00  0.00    +0.000 HD
BRANCH  18  21
ATOM     21  C   UNL     1      49.400   6.962  17.098  0.00  0.00    +0.000 A 
ATOM     22  C   UNL     1      49.772   8.072  17.846  0.00  0.00    +0.000 A 
ATOM     23  S   UNL     1      49.654   7.833  19.530  0.00  0.00    +0.000 S 
ATOM     24  C   UNL     1      49.149   6.222  19.321  0.00  0.00    +0.000 A 
ATOM     25  N   UNL     1      48.891   5.425  20.392  0.00  0.00    +0.000 NA
ATOM     26  C   UNL     1      48.544   4.219  20.089  0.00  0.00    +0.000 A 
ATOM     27  N   UNL     1      48.425   3.739  18.811  0.00  0.00    +0.000 N 
ATOM     28  C   UNL     1      48.648   4.514  17.698  0.00  0.00    +0.000 A 
ATOM     29  O   UNL     1      48.492   4.063  16.566  0.00  0.00    +0.000 OA
ATOM     30  C   UNL     1      49.053   5.875  17.983  0.00  0.00    +0.000 A 
ATOM     31  H   UNL     1      48.138   2.787  18.641  0.00  0.00    +0.000 HD
ENDBRANCH  18  21
ENDBRANCH   1  17
TORSDOF 7
ENDMDL
MODEL 2
REMARK VINA RESULT:    -6.930      1.747      2.317
REMARK INTER + INTRA:         -11.024
REMARK INTER:                 -10.200
REMARK INTRA:                  -0.824
REMARK UNBOUND:                -1.258
REMARK  Name = 
REMARK  8 active torsions:
REMARK  status: ('A' for Active; 'I' for Inactive)
REMARK    1  A    between atoms: C_1  and  C_2
REMARK    2  A    between atoms: C_5  and  C_6
REMARK    3  A    between atoms: C_6  and  O_7
REMARK    4  A    between atoms: O_7  and  C_8
REMARK    5  A    between atoms: C_8  and  C_9
REMARK    6  A    between atoms: C_12  and  C_13
REMARK    7  A    between atoms: C_13  and  N_14
REMARK    8  A    between atoms: C_15  and  C_17
REMARK                            x       y       z     vdW  Elec       q    Type
REMARK                         _______ _______ _______ _____ _____    ______ ____
ROOT
ATOM      1  C   UNL     1      48.506   6.778  14.108  0.00  0.00    +0.000 C 
ENDROOT
BRANCH   1   5
ATOM      2  C   UNL     1      45.368   4.853  11.818  0.00  0.00    +0.000 A 
ATOM      3  C   UNL     1      45.824   4.290  13.018  0.00  0.00    +0.000 A 
ATOM      4  C   UNL     1      46.846   4.902  13.754  0.00  0.00    +0.000 A 
ATOM      5  C   UNL     1      47.425   6.096  13.310  0.00  0.00    +0.000 A 
ATOM      6  C   UNL     1      46.992   6.643  12.093  0.00  0.00    +0.000 A 
ATOM      7  C   UNL     1      45.970   6.032  11.359  0.00  0.00    +0.000 A 
BRANCH   2   8
ATOM      8  C   UNL     1      44.263   4.191  11.031  0.00  0.00    +0.000 C 
BRANCH   8   9
ATOM      9  O   UNL     1      44.551   2.802  10.908  0.00  0.00    +0.000 OA
BRANCH   9  10
ATOM     10  C   UNL     1      44.149   2.284   9.640  0.00  0.00    +0.000 C 
BRANCH  10  15
ATOM     11  C   UNL     1      48.195   2.150   6.149  0.00  0.00    +0.000 C 
ATOM     12  C   UNL     1      47.073   2.595   7.023  0.00  0.00    +0.000 A 
ATOM     13  C   UNL     1      46.561   3.865   7.171  0.00  0.00    +0.000 A 
ATOM     14  C   UNL     1      45.484   3.907   8.100  0.00  0.00    +0.000 A 
ATOM     15  C   UNL     1      45.197   2.667   8.639  0.00  0.00    +0.000 A 
ATOM     16  S   UNL     1      46.248   1.465   8.009  0.00  0.00    +0.000 S 
ENDBRANCH  10  15
ENDBRANCH   9  10
ENDBRANCH   8   9
ENDBRANCH   2   8
ENDBRANCH   1   5
BRANCH   1  17
ATOM     17  N   UNL     1      48.210   6.772  15.518  0.00  0.00    +0.000 N 
ATOM     18  C   UNL     1      49.155   6.393  16.437  0.00  0.00    +0.000 C 
ATOM     19  O   UNL     1      50.299   6.089  16.107  0.00  0.00    +0.000 OA
ATOM     20  H   UNL     1      47.231   6.798  15.786  0.00  0.00    +0.000 HD
BRANCH  18  21
ATOM     21  C   UNL     1      48.753   6.425  17.849  0.00  0.00    +0.000 A 
ATOM     22  C   UNL     1      48.867   5.279  18.624  0.00  0.00    +0.000 A 
ATOM     23  S   UNL     1      48.404   5.501  20.250  0.00  0.00    +0.000 S 
ATOM     24  C   UNL     1      47.986   7.126  19.965  0.00  0.00    +0.000 A 
ATOM     25  N   UNL     1      47.488   7.906  20.961  0.00  0.00    +0.000 NA
ATOM     26  C   UNL     1      47.188   9.108  20.600  0.00  0.00    +0.000 A 
ATOM     27  N   UNL     1      47.348   9.604  19.332  0.00  0.00    +0.000 N 
ATOM     28  C   UNL     1      47.873   8.863  18.301  0.00  0.00    +0.000 A 
ATOM     29  O   UNL     1      48.041   9.352  17.187  0.00  0.00    +0.000 OA
ATOM     30  C   UNL     1      48.215   7.500  18.651  0.00  0.00    +0.000 A 
ATOM     31  H   UNL     1      47.104  10.559  19.117  0.00  0.00    +0.000 HD
ENDBRANCH  18  21
ENDBRANCH   1  17
TORSDOF 7
ENDMDL
MODEL 3
REMARK VINA RESULT:    -6.837      1.817      2.211
REMARK INTER + INTRA:         -10.894
REMARK INTER:                  -9.821
REMARK INTRA:                  -1.073
REMARK UNBOUND:                -1.258
REMARK  Name = 
REMARK  8 active torsions:
REMARK  status: ('A' for Active; 'I' for Inactive)
REMARK    1  A    between atoms: C_1  and  C_2
REMARK    2  A    between atoms: C_5  and  C_6
REMARK    3  A    between atoms: C_6  and  O_7
REMARK    4  A    between atoms: O_7  and  C_8
REMARK    5  A    between atoms: C_8  and  C_9
REMARK    6  A    between atoms: C_12  and  C_13
REMARK    7  A    between atoms: C_13  and  N_14
REMARK    8  A    between atoms: C_15  and  C_17
REMARK                            x       y       z     vdW  Elec       q    Type
REMARK                         _______ _______ _______ _____ _____    ______ ____
ROOT
ATOM      1  C   UNL     1      48.159   5.552  14.388  0.00  0.00    +0.000 C 
ENDROOT
BRANCH   1   5
ATOM      2  C   UNL     1      44.500   4.591  12.269  0.00  0.00    +0.000 A 
ATOM      3  C   UNL     1      45.388   3.578  12.656  0.00  0.00    +0.000 A 
ATOM      4  C   UNL     1      46.576   3.885  13.329  0.00  0.00    +0.000 A 
ATOM      5  C   UNL     1      46.896   5.213  13.639  0.00  0.00    +0.000 A 
ATOM      6  C   UNL     1      46.024   6.229  13.224  0.00  0.00    +0.000 A 
ATOM      7  C   UNL     1      44.836   5.921  12.553  0.00  0.00    +0.000 A 
BRANCH   2   8
ATOM      8  C   UNL     1      43.218   4.253  11.548  0.00  0.00    +0.000 C 
BRANCH   8   9
ATOM      9  O   UNL     1      43.519   3.419  10.435  0.00  0.00    +0.000 OA
BRANCH   9  10
ATOM     10  C   UNL     1      44.152   4.143   9.380  0.00  0.00    +0.000 C 
BRANCH  10  15
ATOM     11  C   UNL     1      47.962   2.117   6.224  0.00  0.00    +0.000 C 
ATOM     12  C   UNL     1      46.881   2.284   7.237  0.00  0.00    +0.000 A 
ATOM     13  C   UNL     1      46.330   1.327   8.061  0.00  0.00    +0.000 A 
ATOM     14  C   UNL     1      45.315   1.861   8.903  0.00  0.00    +0.000 A 
ATOM     15  C   UNL     1      45.115   3.214   8.703  0.00  0.00    +0.000 A 
ATOM     16  S   UNL     1      46.166   3.818   7.489  0.00  0.00    +0.000 S 
ENDBRANCH  10  15
ENDBRANCH   9  10
ENDBRANCH   8   9
ENDBRANCH   2   8
ENDBRANCH   1   5
BRANCH   1  17
ATOM     17  N   UNL     1      47.923   6.541  15.408  0.00  0.00    +0.000 N 
ATOM     18  C   UNL     1      48.876   7.479  15.718  0.00  0.00    +0.000 C 
ATOM     19  O   UNL     1      49.944   7.544  15.115  0.00  0.00    +0.000 OA
ATOM     20  H   UNL     1      47.161   6.366  16.056  0.00  0.00    +0.000 HD
BRANCH  18  21
ATOM     21  C   UNL     1      48.534   8.444  16.770  0.00  0.00    +0.000 A 
ATOM     22  C   UNL     1      48.559   9.804  16.490  0.00  0.00    +0.000 A 
ATOM     23  S   UNL     1      48.090  10.783  17.805  0.00  0.00    +0.000 S 
ATOM     24  C   UNL     1      47.883   9.426  18.811  0.00  0.00    +0.000 A 
ATOM     25  N   UNL     1      47.501   9.569  20.108  0.00  0.00    +0.000 NA
ATOM     26  C   UNL     1      47.409   8.460  20.763  0.00  0.00    +0.000 A 
ATOM     27  N   UNL     1      47.661   7.220  20.236  0.00  0.00    +0.000 N 
ATOM     28  C   UNL     1      48.022   7.025  18.925  0.00  0.00    +0.000 A 
ATOM     29  O   UNL     1      48.199   5.896  18.475  0.00  0.00    +0.000 OA
ATOM     30  C   UNL     1      48.151   8.241  18.147  0.00  0.00    +0.000 A 
ATOM     31  H   UNL     1      47.560   6.390  20.800  0.00  0.00    +0.000 HD
ENDBRANCH  18  21
ENDBRANCH   1  17
TORSDOF 7
ENDMDL
MODEL 4
REMARK VINA RESULT:    -6.831      3.159      8.747
REMARK INTER + INTRA:         -10.885
REMARK INTER:                  -9.422
REMARK INTRA:                  -1.463
REMARK UNBOUND:                -1.258
REMARK  Name = 
REMARK  8 active torsions:
REMARK  status: ('A' for Active; 'I' for Inactive)
REMARK    1  A    between atoms: C_1  and  C_2
REMARK    2  A    between atoms: C_5  and  C_6
REMARK    3  A    between atoms: C_6  and  O_7
REMARK    4  A    between atoms: O_7  and  C_8
REMARK    5  A    between atoms: C_8  and  C_9
REMARK    6  A    between atoms: C_12  and  C_13
REMARK    7  A    between atoms: C_13  and  N_14
REMARK    8  A    between atoms: C_15  and  C_17
REMARK                            x       y       z     vdW  Elec       q    Type
REMARK                         _______ _______ _______ _____ _____    ______ ____
ROOT
ATOM      1  C   UNL     1      47.622   7.771  11.930  0.00  0.00    +0.000 C 
ENDROOT
BRANCH   1   5
ATOM      2  C   UNL     1      48.777   8.101  16.096  0.00  0.00    +0.000 A 
ATOM      3  C   UNL     1      48.221   9.196  15.420  0.00  0.00    +0.000 A 
ATOM      4  C   UNL     1      47.859   9.098  14.072  0.00  0.00    +0.000 A 
ATOM      5  C   UNL     1      48.034   7.897  13.373  0.00  0.00    +0.000 A 
ATOM      6  C   UNL     1      48.620   6.811  14.040  0.00  0.00    +0.000 A 
ATOM      7  C   UNL     1      48.980   6.910  15.388  0.00  0.00    +0.000 A 
BRANCH   2   8
ATOM      8  C   UNL     1      49.161   8.212  17.551  0.00  0.00    +0.000 C 
BRANCH   8   9
ATOM      9  O   UNL     1      48.091   7.722  18.351  0.00  0.00    +0.000 OA
BRANCH   9  10
ATOM     10  C   UNL     1      48.519   6.697  19.247  0.00  0.00    +0.000 C 
BRANCH  10  15
ATOM     11  C   UNL     1      49.765   2.057  16.904  0.00  0.00    +0.000 C 
ATOM     12  C   UNL     1      49.032   3.243  17.431  0.00  0.00    +0.000 A 
ATOM     13  C   UNL     1      47.684   3.515  17.352  0.00  0.00    +0.000 A 
ATOM     14  C   UNL     1      47.347   4.750  17.974  0.00  0.00    +0.000 A 
ATOM     15  C   UNL     1      48.445   5.392  18.515  0.00  0.00    +0.000 A 
ATOM     16  S   UNL     1      49.878   4.482  18.256  0.00  0.00    +0.000 S 
ENDBRANCH  10  15
ENDBRANCH   9  10
ENDBRANCH   8   9
ENDBRANCH   2   8
ENDBRANCH   1   5
BRANCH   1  17
ATOM     17  N   UNL     1      46.926   6.535  11.681  0.00  0.00    +0.000 N 
ATOM     18  C   UNL     1      45.561   6.457  11.794  0.00  0.00    +0.000 C 
ATOM     19  O   UNL     1      44.873   7.438  12.064  0.00  0.00    +0.000 OA
ATOM     20  H   UNL     1      47.479   5.684  11.682  0.00  0.00    +0.000 HD
BRANCH  18  21
ATOM     21  C   UNL     1      44.949   5.151  11.515  0.00  0.00    +0.000 A 
ATOM     22  C   UNL     1      44.234   4.499  12.511  0.00  0.00    +0.000 A 
ATOM     23  S   UNL     1      43.550   3.020  12.008  0.00  0.00    +0.000 S 
ATOM     24  C   UNL     1      44.229   3.173  10.455  0.00  0.00    +0.000 A 
ATOM     25  N   UNL     1      44.042   2.211   9.512  0.00  0.00    +0.000 NA
ATOM     26  C   UNL     1      44.635   2.442   8.388  0.00  0.00    +0.000 A 
ATOM     27  N   UNL     1      45.393   3.552   8.120  0.00  0.00    +0.000 N 
ATOM     28  C   UNL     1      45.586   4.563   9.032  0.00  0.00    +0.000 A 
ATOM     29  O   UNL     1      46.238   5.563   8.743  0.00  0.00    +0.000 OA
ATOM     30  C   UNL     1      44.951   4.347  10.315  0.00  0.00    +0.000 A 
ATOM     31  H   UNL     1      45.822   3.678   7.216  0.00  0.00    +0.000 HD
ENDBRANCH  18  21
ENDBRANCH   1  17
TORSDOF 7
ENDMDL
MODEL 5
REMARK VINA RESULT:    -6.691      1.982      2.818
REMARK INTER + INTRA:         -10.688
REMARK INTER:                  -9.565
REMARK INTRA:                  -1.123
REMARK UNBOUND:                -1.258
REMARK  Name = 
REMARK  8 active torsions:
REMARK  status: ('A' for Active; 'I' for Inactive)
REMARK    1  A    between atoms: C_1  and  C_2
REMARK    2  A    between atoms: C_5  and  C_6
REMARK    3  A    between atoms: C_6  and  O_7
REMARK    4  A    between atoms: O_7  and  C_8
REMARK    5  A    between atoms: C_8  and  C_9
REMARK    6  A    between atoms: C_12  and  C_13
REMARK    7  A    between atoms: C_13  and  N_14
REMARK    8  A    between atoms: C_15  and  C_17
REMARK                            x       y       z     vdW  Elec       q    Type
REMARK                         _______ _______ _______ _____ _____    ______ ____
ROOT
ATOM      1  C   UNL     1      48.196   7.200  12.760  0.00  0.00    +0.000 C 
ENDROOT
BRANCH   1   5
ATOM      2  C   UNL     1      44.625   4.871  11.973  0.00  0.00    +0.000 A 
ATOM      3  C   UNL     1      44.797   6.134  11.389  0.00  0.00    +0.000 A 
ATOM      4  C   UNL     1      45.942   6.894  11.651  0.00  0.00    +0.000 A 
ATOM      5  C   UNL     1      46.946   6.402  12.494  0.00  0.00    +0.000 A 
ATOM      6  C   UNL     1      46.759   5.153  13.103  0.00  0.00    +0.000 A 
ATOM      7  C   UNL     1      45.616   4.393  12.840  0.00  0.00    +0.000 A 
BRANCH   2   8
ATOM      8  C   UNL     1      43.390   4.054  11.682  0.00  0.00    +0.000 C 
BRANCH   8   9
ATOM      9  O   UNL     1      43.396   3.677  10.309  0.00  0.00    +0.000 OA
BRANCH   9  10
ATOM     10  C   UNL     1      44.194   2.517  10.077  0.00  0.00    +0.000 C 
BRANCH  10  15
ATOM     11  C   UNL     1      47.783   2.122   6.136  0.00  0.00    +0.000 C 
ATOM     12  C   UNL     1      46.806   2.639   7.135  0.00  0.00    +0.000 A 
ATOM     13  C   UNL     1      46.407   3.942   7.341  0.00  0.00    +0.000 A 
ATOM     14  C   UNL     1      45.451   4.052   8.390  0.00  0.00    +0.000 A 
ATOM     15  C   UNL     1      45.142   2.832   8.960  0.00  0.00    +0.000 A 
ATOM     16  S   UNL     1      46.023   1.563   8.212  0.00  0.00    +0.000 S 
ENDBRANCH  10  15
ENDBRANCH   9  10
ENDBRANCH   8   9
ENDBRANCH   2   8
ENDBRANCH   1   5
BRANCH   1  17
ATOM     17  N   UNL     1      48.959   6.645  13.848  0.00  0.00    +0.000 N 
ATOM     18  C   UNL     1      48.991   7.259  15.076  0.00  0.00    +0.000 C 
ATOM     19  O   UNL     1      48.339   8.273  15.313  0.00  0.00    +0.000 OA
ATOM     20  H   UNL     1      49.666   5.955  13.614  0.00  0.00    +0.000 HD
BRANCH  18  21
ATOM     21  C   UNL     1      49.796   6.609  16.118  0.00  0.00    +0.000 A 
ATOM     22  C   UNL     1      49.171   5.845  17.094  0.00  0.00    +0.000 A 
ATOM     23  S   UNL     1      50.254   5.123  18.196  0.00  0.00    +0.000 S 
ATOM     24  C   UNL     1      51.594   5.846  17.437  0.00  0.00    +0.000 A 
ATOM     25  N   UNL     1      52.854   5.651  17.908  0.00  0.00    +0.000 NA
ATOM     26  C   UNL     1      53.772   6.281  17.254  0.00  0.00    +0.000 A 
ATOM     27  N   UNL     1      53.544   7.085  16.168  0.00  0.00    +0.000 N 
ATOM     28  C   UNL     1      52.292   7.289  15.640  0.00  0.00    +0.000 A 
ATOM     29  O   UNL     1      52.129   7.984  14.640  0.00  0.00    +0.000 OA
ATOM     30  C   UNL     1      51.222   6.614  16.346  0.00  0.00    +0.000 A 
ATOM     31  H   UNL     1      54.308   7.541  15.694  0.00  0.00    +0.000 HD
ENDBRANCH  18  21
ENDBRANCH   1  17
TORSDOF 7
ENDMDL
MODEL 6
REMARK VINA RESULT:    -6.176      3.548      8.520
REMARK INTER + INTRA:          -9.962
REMARK INTER:                  -8.352
REMARK INTRA:                  -1.610
REMARK UNBOUND:                -1.258
REMARK  Name = 
REMARK  8 active torsions:
REMARK  status: ('A' for Active; 'I' for Inactive)
REMARK    1  A    between atoms: C_1  and  C_2
REMARK    2  A    between atoms: C_5  and  C_6
REMARK    3  A    between atoms: C_6  and  O_7
REMARK    4  A    between atoms: O_7  and  C_8
REMARK    5  A    between atoms: C_8  and  C_9
REMARK    6  A    between atoms: C_12  and  C_13
REMARK    7  A    between atoms: C_13  and  N_14
REMARK    8  A    between atoms: C_15  and  C_17
REMARK                            x       y       z     vdW  Elec       q    Type
REMARK                         _______ _______ _______ _____ _____    ______ ____
ROOT
ATOM      1  C   UNL     1      48.276   8.957  14.603  0.00  0.00    +0.000 C 
ENDROOT
BRANCH   1   5
ATOM      2  C   UNL     1      49.399   8.324  18.743  0.00  0.00    +0.000 A 
ATOM      3  C   UNL     1      48.254   9.065  18.419  0.00  0.00    +0.000 A 
ATOM      4  C   UNL     1      47.895   9.282  17.084  0.00  0.00    +0.000 A 
ATOM      5  C   UNL     1      48.668   8.753  16.044  0.00  0.00    +0.000 A 
ATOM      6  C   UNL     1      49.831   8.038  16.366  0.00  0.00    +0.000 A 
ATOM      7  C   UNL     1      50.188   7.820  17.701  0.00  0.00    +0.000 A 
BRANCH   2   8
ATOM      8  C   UNL     1      49.778   8.088  20.185  0.00  0.00    +0.000 C 
BRANCH   8   9
ATOM      9  O   UNL     1      49.826   6.686  20.427  0.00  0.00    +0.000 OA
BRANCH   9  10
ATOM     10  C   UNL     1      48.524   6.130  20.607  0.00  0.00    +0.000 C 
BRANCH  10  15
ATOM     11  C   UNL     1      48.731   2.500  16.688  0.00  0.00    +0.000 C 
ATOM     12  C   UNL     1      48.316   3.616  17.586  0.00  0.00    +0.000 A 
ATOM     13  C   UNL     1      47.190   4.405  17.499  0.00  0.00    +0.000 A 
ATOM     14  C   UNL     1      47.131   5.374  18.540  0.00  0.00    +0.000 A 
ATOM     15  C   UNL     1      48.212   5.301  19.398  0.00  0.00    +0.000 A 
ATOM     16  S   UNL     1      49.290   4.053  18.924  0.00  0.00    +0.000 S 
ENDBRANCH  10  15
ENDBRANCH   9  10
ENDBRANCH   8   9
ENDBRANCH   2   8
ENDBRANCH   1   5
BRANCH   1  17
ATOM     17  N   UNL     1      47.324   7.968  14.166  0.00  0.00    +0.000 N 
ATOM     18  C   UNL     1      47.733   6.833  13.511  0.00  0.00    +0.000 C 
ATOM     19  O   UNL     1      48.921   6.591  13.311  0.00  0.00    +0.000 OA
ATOM     20  H   UNL     1      46.350   8.251  14.119  0.00  0.00    +0.000 HD
BRANCH  18  21
ATOM     21  C   UNL     1      46.684   5.887  13.111  0.00  0.00    +0.000 A 
ATOM     22  C   UNL     1      46.844   4.533  13.370  0.00  0.00    +0.000 A 
ATOM     23  S   UNL     1      45.514   3.581  12.886  0.00  0.00    +0.000 S 
ATOM     24  C   UNL     1      44.697   4.940  12.269  0.00  0.00    +0.000 A 
ATOM     25  N   UNL     1      43.478   4.816  11.680  0.00  0.00    +0.000 NA
ATOM     26  C   UNL     1      42.985   5.922  11.232  0.00  0.00    +0.000 A 
ATOM     27  N   UNL     1      43.600   7.144  11.325  0.00  0.00    +0.000 N 
ATOM     28  C   UNL     1      44.818   7.322  11.937  0.00  0.00    +0.000 A 
ATOM     29  O   UNL     1      45.321   8.438  12.039  0.00  0.00    +0.000 OA
ATOM     30  C   UNL     1      45.421   6.108  12.447  0.00  0.00    +0.000 A 
ATOM     31  H   UNL     1      43.156   7.974  10.964  0.00  0.00    +0.000 HD
ENDBRANCH  18  21
ENDBRANCH   1  17
TORSDOF 7
ENDMDL
MODEL 7
REMARK VINA RESULT:    -6.066      1.871      3.200
REMARK INTER + INTRA:          -9.806
REMARK INTER:                  -8.768
REMARK INTRA:                  -1.038
REMARK UNBOUND:                -1.258
REMARK  Name = 
REMARK  8 active torsions:
REMARK  status: ('A' for Active; 'I' for Inactive)
REMARK    1  A    between atoms: C_1  and  C_2
REMARK    2  A    between atoms: C_5  and  C_6
REMARK    3  A    between atoms: C_6  and  O_7
REMARK    4  A    between atoms: O_7  and  C_8
REMARK    5  A    between atoms: C_8  and  C_9
REMARK    6  A    between atoms: C_12  and  C_13
REMARK    7  A    between atoms: C_13  and  N_14
REMARK    8  A    between atoms: C_15  and  C_17
REMARK                            x       y       z     vdW  Elec       q    Type
REMARK                         _______ _______ _______ _____ _____    ______ ____
ROOT
ATOM      1  C   UNL     1      47.726   4.197  16.159  0.00  0.00    +0.000 C 
ENDROOT
BRANCH   1   5
ATOM      2  C   UNL     1      46.084   5.051  12.239  0.00  0.00    +0.000 A 
ATOM      3  C   UNL     1      46.108   3.739  12.733  0.00  0.00    +0.000 A 
ATOM      4  C   UNL     1      46.649   3.457  13.993  0.00  0.00    +0.000 A 
ATOM      5  C   UNL     1      47.167   4.484  14.790  0.00  0.00    +0.000 A 
ATOM      6  C   UNL     1      47.172   5.792  14.284  0.00  0.00    +0.000 A 
ATOM      7  C   UNL     1      46.629   6.073  13.026  0.00  0.00    +0.000 A 
BRANCH   2   8
ATOM      8  C   UNL     1      45.494   5.348  10.882  0.00  0.00    +0.000 C 
BRANCH   8   9
ATOM      9  O   UNL     1      44.372   4.499  10.669  0.00  0.00    +0.000 OA
BRANCH   9  10
ATOM     10  C   UNL     1      44.071   4.349   9.281  0.00  0.00    +0.000 C 
BRANCH  10  15
ATOM     11  C   UNL     1      47.926   1.937   6.471  0.00  0.00    +0.000 C 
ATOM     12  C   UNL     1      46.805   2.223   7.411  0.00  0.00    +0.000 A 
ATOM     13  C   UNL     1      46.162   1.349   8.261  0.00  0.00    +0.000 A 
ATOM     14  C   UNL     1      45.135   1.987   9.011  0.00  0.00    +0.000 A 
ATOM     15  C   UNL     1      45.017   3.332   8.718  0.00  0.00    +0.000 A 
ATOM     16  S   UNL     1      46.160   3.804   7.527  0.00  0.00    +0.000 S 
ENDBRANCH  10  15
ENDBRANCH   9  10
ENDBRANCH   8   9
ENDBRANCH   2   8
ENDBRANCH   1   5
BRANCH   1  17
ATOM     17  N   UNL     1      48.174   5.399  16.815  0.00  0.00    +0.000 N 
ATOM     18  C   UNL     1      49.490   5.563  17.169  0.00  0.00    +0.000 C 
ATOM     19  O   UNL     1      50.344   4.722  16.904  0.00  0.00    +0.000 OA
ATOM     20  H   UNL     1      47.463   5.989  17.236  0.00  0.00    +0.000 HD
BRANCH  18  21
ATOM     21  C   UNL     1      49.842   6.827  17.829  0.00  0.00    +0.000 A 
ATOM     22  C   UNL     1      49.812   6.911  19.214  0.00  0.00    +0.000 A 
ATOM     23  S   UNL     1      50.295   8.431  19.819  0.00  0.00    +0.000 S 
ATOM     24  C   UNL     1      50.514   9.047  18.248  0.00  0.00    +0.000 A 
ATOM     25  N   UNL     1      50.910  10.332  18.049  0.00  0.00    +0.000 NA
ATOM     26  C   UNL     1      51.011  10.675  16.808  0.00  0.00    +0.000 A 
ATOM     27  N   UNL     1      50.755   9.845  15.747  0.00  0.00    +0.000 N 
ATOM     28  C   UNL     1      50.380   8.532  15.899  0.00  0.00    +0.000 A 
ATOM     29  O   UNL     1      50.199   7.805  14.925  0.00  0.00    +0.000 OA
ATOM     30  C   UNL     1      50.241   8.100  17.274  0.00  0.00    +0.000 A 
ATOM     31  H   UNL     1      50.863  10.172  14.799  0.00  0.00    +0.000 HD
ENDBRANCH  18  21
ENDBRANCH   1  17
TORSDOF 7
ENDMDL
MODEL 8
REMARK VINA RESULT:    -5.868      5.511      8.019
REMARK INTER + INTRA:          -9.528
REMARK INTER:                  -8.530
REMARK INTRA:                  -0.999
REMARK UNBOUND:                -1.258
REMARK  Name = 
REMARK  8 active torsions:
REMARK  status: ('A' for Active; 'I' for Inactive)
REMARK    1  A    between atoms: C_1  and  C_2
REMARK    2  A    between atoms: C_5  and  C_6
REMARK    3  A    between atoms: C_6  and  O_7
REMARK    4  A    between atoms: O_7  and  C_8
REMARK    5  A    between atoms: C_8  and  C_9
REMARK    6  A    between atoms: C_12  and  C_13
REMARK    7  A    between atoms: C_13  and  N_14
REMARK    8  A    between atoms: C_15  and  C_17
REMARK                            x       y       z     vdW  Elec       q    Type
REMARK                         _______ _______ _______ _____ _____    ______ ____
ROOT
ATOM      1  C   UNL     1      51.395   8.418  11.761  0.00  0.00    +0.000 C 
ENDROOT
BRANCH   1   5
ATOM      2  C   UNL     1      47.118   8.028  12.357  0.00  0.00    +0.000 A 
ATOM      3  C   UNL     1      47.709   9.293  12.225  0.00  0.00    +0.000 A 
ATOM      4  C   UNL     1      49.090   9.424  12.045  0.00  0.00    +0.000 A 
ATOM      5  C   UNL     1      49.910   8.290  11.982  0.00  0.00    +0.000 A 
ATOM      6  C   UNL     1      49.324   7.027  12.146  0.00  0.00    +0.000 A 
ATOM      7  C   UNL     1      47.943   6.897  12.323  0.00  0.00    +0.000 A 
BRANCH   2   8
ATOM      8  C   UNL     1      45.627   7.894  12.545  0.00  0.00    +0.000 C 
BRANCH   8   9
ATOM      9  O   UNL     1      45.331   6.566  12.966  0.00  0.00    +0.000 OA
BRANCH   9  10
ATOM     10  C   UNL     1      44.134   6.070  12.368  0.00  0.00    +0.000 C 
BRANCH  10  15
ATOM     11  C   UNL     1      44.728   1.964   8.997  0.00  0.00    +0.000 C 
ATOM     12  C   UNL     1      44.797   3.303   9.649  0.00  0.00    +0.000 A 
ATOM     13  C   UNL     1      45.440   4.436   9.200  0.00  0.00    +0.000 A 
ATOM     14  C   UNL     1      45.285   5.532  10.094  0.00  0.00    +0.000 A 
ATOM     15  C   UNL     1      44.527   5.211  11.204  0.00  0.00    +0.000 A 
ATOM     16  S   UNL     1      44.014   3.575  11.146  0.00  0.00    +0.000 S 
ENDBRANCH  10  15
ENDBRANCH   9  10
ENDBRANCH   8   9
ENDBRANCH   2   8
ENDBRANCH   1   5
BRANCH   1  17
ATOM     17  N   UNL     1      51.776   7.978  10.443  0.00  0.00    +0.000 N 
ATOM     18  C   UNL     1      52.668   8.697   9.688  0.00  0.00    +0.000 C 
ATOM     19  O   UNL     1      53.211   9.712  10.115  0.00  0.00    +0.000 OA
ATOM     20  H   UNL     1      51.182   7.287   9.996  0.00  0.00    +0.000 HD
BRANCH  18  21
ATOM     21  C   UNL     1      52.992   8.159   8.360  0.00  0.00    +0.000 A 
ATOM     22  C   UNL     1      52.934   8.990   7.249  0.00  0.00    +0.000 A 
ATOM     23  S   UNL     1      53.387   8.221   5.795  0.00  0.00    +0.000 S 
ATOM     24  C   UNL     1      53.629   6.738   6.592  0.00  0.00    +0.000 A 
ATOM     25  N   UNL     1      54.014   5.629   5.905  0.00  0.00    +0.000 NA
ATOM     26  C   UNL     1      54.134   4.567   6.628  0.00  0.00    +0.000 A 
ATOM     27  N   UNL     1      53.910   4.514   7.979  0.00  0.00    +0.000 N 
ATOM     28  C   UNL     1      53.548   5.613   8.720  0.00  0.00    +0.000 A 
ATOM     29  O   UNL     1      53.395   5.539   9.937  0.00  0.00    +0.000 OA
ATOM     30  C   UNL     1      53.387   6.831   7.952  0.00  0.00    +0.000 A 
ATOM     31  H   UNL     1      54.032   3.653   8.490  0.00  0.00    +0.000 HD
ENDBRANCH  18  21
ENDBRANCH   1  17
TORSDOF 7
ENDMDL
MODEL 9
REMARK VINA RESULT:    -5.561      3.383      9.726
REMARK INTER + INTRA:          -9.095
REMARK INTER:                  -8.153
REMARK INTRA:                  -0.942
REMARK UNBOUND:                -1.258
REMARK  Name = 
REMARK  8 active torsions:
REMARK  status: ('A' for Active; 'I' for Inactive)
REMARK    1  A    between atoms: C_1  and  C_2
REMARK    2  A    between atoms: C_5  and  C_6
REMARK    3  A    between atoms: C_6  and  O_7
REMARK    4  A    between atoms: O_7  and  C_8
REMARK    5  A    between atoms: C_8  and  C_9
REMARK    6  A    between atoms: C_12  and  C_13
REMARK    7  A    between atoms: C_13  and  N_14
REMARK    8  A    between atoms: C_15  and  C_17
REMARK                            x       y       z     vdW  Elec       q    Type
REMARK                         _______ _______ _______ _____ _____    ______ ____
ROOT
ATOM      1  C   UNL     1      44.162   3.468  11.910  0.00  0.00    +0.000 C 
ENDROOT
BRANCH   1   5
ATOM      2  C   UNL     1      46.189   7.146  12.985  0.00  0.00    +0.000 A 
ATOM      3  C   UNL     1      44.988   7.177  12.262  0.00  0.00    +0.000 A 
ATOM      4  C   UNL     1      44.337   5.992  11.902  0.00  0.00    +0.000 A 
ATOM      5  C   UNL     1      44.868   4.749  12.268  0.00  0.00    +0.000 A 
ATOM      6  C   UNL     1      46.086   4.716  12.963  0.00  0.00    +0.000 A 
ATOM      7  C   UNL     1      46.735   5.902  13.324  0.00  0.00    +0.000 A 
BRANCH   2   8
ATOM      8  C   UNL     1      46.883   8.429  13.374  0.00  0.00    +0.000 C 
BRANCH   8   9
ATOM      9  O   UNL     1      48.266   8.162  13.578  0.00  0.00    +0.000 OA
BRANCH   9  10
ATOM     10  C   UNL     1      48.786   8.868  14.704  0.00  0.00    +0.000 C 
BRANCH  10  15
ATOM     11  C   UNL     1      52.323   6.358  17.830  0.00  0.00    +0.000 C 
ATOM     12  C   UNL     1      51.110   6.714  17.040  0.00  0.00    +0.000 A 
ATOM     13  C   UNL     1      49.950   5.987  16.886  0.00  0.00    +0.000 A 
ATOM     14  C   UNL     1      49.005   6.651  16.055  0.00  0.00    +0.000 A 
ATOM     15  C   UNL     1      49.465   7.870  15.593  0.00  0.00    +0.000 A 
ATOM     16  S   UNL     1      51.046   8.191  16.177  0.00  0.00    +0.000 S 
ENDBRANCH  10  15
ENDBRANCH   9  10
ENDBRANCH   8   9
ENDBRANCH   2   8
ENDBRANCH   1   5
BRANCH   1  17
ATOM     17  N   UNL     1      44.897   2.710  10.931  0.00  0.00    +0.000 N 
ATOM     18  C   UNL     1      44.713   2.922   9.587  0.00  0.00    +0.000 C 
ATOM     19  O   UNL     1      43.955   3.791   9.165  0.00  0.00    +0.000 OA
ATOM     20  H   UNL     1      45.345   1.855  11.247  0.00  0.00    +0.000 HD
BRANCH  18  21
ATOM     21  C   UNL     1      45.515   2.100   8.673  0.00  0.00    +0.000 A 
ATOM     22  C   UNL     1      45.423   0.716   8.733  0.00  0.00    +0.000 A 
ATOM     23  S   UNL     1      46.382  -0.086   7.572  0.00  0.00    +0.000 S 
ATOM     24  C   UNL     1      46.993   1.388   6.980  0.00  0.00    +0.000 A 
ATOM     25  N   UNL     1      47.902   1.413   5.969  0.00  0.00    +0.000 NA
ATOM     26  C   UNL     1      48.300   2.596   5.638  0.00  0.00    +0.000 A 
ATOM     27  N   UNL     1      47.867   3.757   6.224  0.00  0.00    +0.000 N 
ATOM     28  C   UNL     1      46.930   3.783   7.228  0.00  0.00    +0.000 A 
ATOM     29  O   UNL     1      46.534   4.845   7.702  0.00  0.00    +0.000 OA
ATOM     30  C   UNL     1      46.458   2.479   7.646  0.00  0.00    +0.000 A 
ATOM     31  H   UNL     1      48.210   4.652   5.910  0.00  0.00    +0.000 HD
ENDBRANCH  18  21
ENDBRANCH   1  17
TORSDOF 7
ENDMDL
