MODEL 1
REMARK VINA RESULT:    -7.513      0.000      0.000
REMARK INTER + INTRA:          -9.841
REMARK INTER:                  -9.489
REMARK INTRA:                  -0.352
REMARK UNBOUND:                -0.352
REMARK  Name = 
REMARK  5 active torsions:
REMARK  status: ('A' for Active; 'I' for Inactive)
REMARK    1  A    between atoms: N_1  and  C_2
REMARK    2  A    between atoms: C_2  and  C_3
REMARK    3  A    between atoms: C_6  and  O_7
REMARK    4  A    between atoms: O_7  and  N_8
REMARK    5  A    between atoms: C_9  and  C_10
REMARK                            x       y       z     vdW  Elec       q    Type
REMARK                         _______ _______ _______ _____ _____    ______ ____
ROOT
ATOM      1  C   UNL     1      46.600   2.220   7.474  0.00  0.00    +0.000 A 
ATOM      2  C   UNL     1      46.542   3.613   7.317  0.00  0.00    +0.000 A 
ATOM      3  C   UNL     1      45.691   4.386   8.114  0.00  0.00    +0.000 A 
ATOM      4  C   UNL     1      44.887   3.778   9.080  0.00  0.00    +0.000 A 
ATOM      5  C   UNL     1      44.908   2.387   9.205  0.00  0.00    +0.000 A 
ATOM      6  F   UNL     1      44.103   1.741  10.064  0.00  0.00    +0.000 F 
ATOM      7  C   UNL     1      45.761   1.613   8.416  0.00  0.00    +0.000 A 
ENDROOT
BRANCH   1   8
ATOM      8  C   UNL     1      47.553   1.396   6.648  0.00  0.00    +0.000 C 
BRANCH   8   9
ATOM      9  N   UNL     1      48.650   2.214   6.143  0.00  0.00    +0.000 NA
ATOM     10  H   UNL     1      49.202   1.667   5.486  0.00  0.00    +0.000 HD
ATOM     11  H   UNL     1      49.269   2.448   6.917  0.00  0.00    +0.000 HD
ENDBRANCH   8   9
ENDBRANCH   1   8
BRANCH   4  12
ATOM     12  O   UNL     1      44.104   4.631   9.823  0.00  0.00    +0.000 OA
BRANCH  12  13
ATOM     13  N   UNL     1      44.901   5.393  10.680  0.00  0.00    +0.000 NA
ATOM     14  C   UNL     1      45.242   4.683  11.705  0.00  0.00    +0.000 C 
BRANCH  14  15
ATOM     15  C   UNL     1      46.165   5.220  12.723  0.00  0.00    +0.000 A 
ATOM     16  C   UNL     1      46.884   6.394  12.479  0.00  0.00    +0.000 A 
ATOM     17  C   UNL     1      47.807   6.854  13.419  0.00  0.00    +0.000 A 
ATOM     18  C   UNL     1      48.014   6.141  14.604  0.00  0.00    +0.000 A 
ATOM     19 CL   UNL     1      49.194   6.748  15.710  0.00  0.00    +0.000 Cl
ATOM     20  C   UNL     1      47.283   4.972  14.851  0.00  0.00    +0.000 A 
ATOM     21 CL   UNL     1      47.494   4.037  16.290  0.00  0.00    +0.000 Cl
ATOM     22  C   UNL     1      46.354   4.511  13.912  0.00  0.00    +0.000 A 
ENDBRANCH  14  15
ENDBRANCH  12  13
ENDBRANCH   4  12
TORSDOF 5
ENDMDL
MODEL 2
REMARK VINA RESULT:    -7.241      1.330      2.068
REMARK INTER + INTRA:          -9.498
REMARK INTER:                  -9.166
REMARK INTRA:                  -0.332
REMARK UNBOUND:                -0.352
REMARK  Name = 
REMARK  5 active torsions:
REMARK  status: ('A' for Active; 'I' for Inactive)
REMARK    1  A    between atoms: N_1  and  C_2
REMARK    2  A    between atoms: C_2  and  C_3
REMARK    3  A    between atoms: C_6  and  O_7
REMARK    4  A    between atoms: O_7  and  N_8
REMARK    5  A    between atoms: C_9  and  C_10
REMARK                            x       y       z     vdW  Elec       q    Type
REMARK                         _______ _______ _______ _____ _____    ______ ____
ROOT
ATOM      1  C   UNL     1      46.358   2.157   7.778  0.00  0.00    +0.000 A 
ATOM      2  C   UNL     1      46.447   3.540   7.557  0.00  0.00    +0.000 A 
ATOM      3  C   UNL     1      45.705   4.436   8.334  0.00  0.00    +0.000 A 
ATOM      4  C   UNL     1      44.864   3.962   9.344  0.00  0.00    +0.000 A 
ATOM      5  C   UNL     1      44.737   2.584   9.533  0.00  0.00    +0.000 A 
ATOM      6  F   UNL     1      43.889   2.069  10.437  0.00  0.00    +0.000 F 
ATOM      7  C   UNL     1      45.482   1.688   8.764  0.00  0.00    +0.000 A 
ENDROOT
BRANCH   1   8
ATOM      8  C   UNL     1      47.195   1.198   6.972  0.00  0.00    +0.000 C 
BRANCH   8   9
ATOM      9  N   UNL     1      48.350   1.874   6.391  0.00  0.00    +0.000 NA
ATOM     10  H   UNL     1      48.102   2.228   5.469  0.00  0.00    +0.000 HD
ATOM     11  H   UNL     1      49.093   1.192   6.249  0.00  0.00    +0.000 HD
ENDBRANCH   8   9
ENDBRANCH   1   8
BRANCH   4  12
ATOM     12  O   UNL     1      44.197   4.928  10.061  0.00  0.00    +0.000 OA
BRANCH  12  13
ATOM     13  N   UNL     1      45.109   5.806  10.652  0.00  0.00    +0.000 NA
ATOM     14  C   UNL     1      45.654   5.242  11.679  0.00  0.00    +0.000 C 
BRANCH  14  15
ATOM     15  C   UNL     1      46.727   5.920  12.433  0.00  0.00    +0.000 A 
ATOM     16  C   UNL     1      47.002   5.554  13.754  0.00  0.00    +0.000 A 
ATOM     17  C   UNL     1      47.970   6.249  14.481  0.00  0.00    +0.000 A 
ATOM     18  C   UNL     1      48.662   7.310  13.890  0.00  0.00    +0.000 A 
ATOM     19 CL   UNL     1      49.823   8.149  14.856  0.00  0.00    +0.000 Cl
ATOM     20  C   UNL     1      48.392   7.665  12.562  0.00  0.00    +0.000 A 
ATOM     21 CL   UNL     1      49.204   8.971  11.772  0.00  0.00    +0.000 Cl
ATOM     22  C   UNL     1      47.425   6.968  11.830  0.00  0.00    +0.000 A 
ENDBRANCH  14  15
ENDBRANCH  12  13
ENDBRANCH   4  12
TORSDOF 5
ENDMDL
MODEL 3
REMARK VINA RESULT:    -6.858      4.028      6.807
REMARK INTER + INTRA:          -9.014
REMARK INTER:                  -9.522
REMARK INTRA:                   0.508
REMARK UNBOUND:                -0.352
REMARK  Name = 
REMARK  5 active torsions:
REMARK  status: ('A' for Active; 'I' for Inactive)
REMARK    1  A    between atoms: N_1  and  C_2
REMARK    2  A    between atoms: C_2  and  C_3
REMARK    3  A    between atoms: C_6  and  O_7
REMARK    4  A    between atoms: O_7  and  N_8
REMARK    5  A    between atoms: C_9  and  C_10
REMARK                            x       y       z     vdW  Elec       q    Type
REMARK                         _______ _______ _______ _____ _____    ______ ____
ROOT
ATOM      1  C   UNL     1      44.974   7.244  12.504  0.00  0.00    +0.000 A 
ATOM      2  C   UNL     1      43.917   7.184  11.583  0.00  0.00    +0.000 A 
ATOM      3  C   UNL     1      43.296   5.966  11.288  0.00  0.00    +0.000 A 
ATOM      4  C   UNL     1      43.720   4.791  11.912  0.00  0.00    +0.000 A 
ATOM      5  C   UNL     1      44.803   4.841  12.793  0.00  0.00    +0.000 A 
ATOM      6  F   UNL     1      45.303   3.733  13.363  0.00  0.00    +0.000 F 
ATOM      7  C   UNL     1      45.421   6.055  13.094  0.00  0.00    +0.000 A 
ENDROOT
BRANCH   1   8
ATOM      8  C   UNL     1      45.609   8.565  12.856  0.00  0.00    +0.000 C 
BRANCH   8   9
ATOM      9  N   UNL     1      44.635   9.647  12.788  0.00  0.00    +0.000 NA
ATOM     10  H   UNL     1      45.104  10.503  12.500  0.00  0.00    +0.000 HD
ATOM     11  H   UNL     1      44.268   9.820  13.722  0.00  0.00    +0.000 HD
ENDBRANCH   8   9
ENDBRANCH   1   8
BRANCH   4  12
ATOM     12  O   UNL     1      43.028   3.653  11.567  0.00  0.00    +0.000 OA
BRANCH  12  13
ATOM     13  N   UNL     1      43.721   2.951  10.577  0.00  0.00    +0.000 NA
ATOM     14  C   UNL     1      44.440   3.770   9.884  0.00  0.00    +0.000 C 
BRANCH  14  15
ATOM     15  C   UNL     1      45.346   3.274   8.829  0.00  0.00    +0.000 A 
ATOM     16  C   UNL     1      45.885   4.156   7.887  0.00  0.00    +0.000 A 
ATOM     17  C   UNL     1      46.683   3.667   6.852  0.00  0.00    +0.000 A 
ATOM     18  C   UNL     1      46.942   2.297   6.755  0.00  0.00    +0.000 A 
ATOM     19 CL   UNL     1      47.910   1.755   5.431  0.00  0.00    +0.000 Cl
ATOM     20  C   UNL     1      46.410   1.418   7.708  0.00  0.00    +0.000 A 
ATOM     21 CL   UNL     1      46.684  -0.288   7.644  0.00  0.00    +0.000 Cl
ATOM     22  C   UNL     1      45.614   1.906   8.749  0.00  0.00    +0.000 A 
ENDBRANCH  14  15
ENDBRANCH  12  13
ENDBRANCH   4  12
TORSDOF 5
ENDMDL
MODEL 4
REMARK VINA RESULT:    -6.685      3.953      6.977
REMARK INTER + INTRA:          -8.796
REMARK INTER:                  -8.680
REMARK INTRA:                  -0.116
REMARK UNBOUND:                -0.352
REMARK  Name = 
REMARK  5 active torsions:
REMARK  status: ('A' for Active; 'I' for Inactive)
REMARK    1  A    between atoms: N_1  and  C_2
REMARK    2  A    between atoms: C_2  and  C_3
REMARK    3  A    between atoms: C_6  and  O_7
REMARK    4  A    between atoms: O_7  and  N_8
REMARK    5  A    between atoms: C_9  and  C_10
REMARK                            x       y       z     vdW  Elec       q    Type
REMARK                         _______ _______ _______ _____ _____    ______ ____
ROOT
ATOM      1  C   UNL     1      45.941   7.514  12.893  0.00  0.00    +0.000 A 
ATOM      2  C   UNL     1      46.390   6.256  13.323  0.00  0.00    +0.000 A 
ATOM      3  C   UNL     1      45.672   5.097  13.012  0.00  0.00    +0.000 A 
ATOM      4  C   UNL     1      44.494   5.179  12.264  0.00  0.00    +0.000 A 
ATOM      5  C   UNL     1      44.020   6.435  11.877  0.00  0.00    +0.000 A 
ATOM      6  F   UNL     1      42.856   6.581  11.224  0.00  0.00    +0.000 F 
ATOM      7  C   UNL     1      44.738   7.592  12.180  0.00  0.00    +0.000 A 
ENDROOT
BRANCH   1   8
ATOM      8  C   UNL     1      46.744   8.755  13.188  0.00  0.00    +0.000 C 
BRANCH   8   9
ATOM      9  N   UNL     1      47.062   8.846  14.608  0.00  0.00    +0.000 NA
ATOM     10  H   UNL     1      46.657   9.698  14.988  0.00  0.00    +0.000 HD
ATOM     11  H   UNL     1      48.071   8.933  14.714  0.00  0.00    +0.000 HD
ENDBRANCH   8   9
ENDBRANCH   1   8
BRANCH   4  12
ATOM     12  O   UNL     1      43.877   3.979  11.997  0.00  0.00    +0.000 OA
BRANCH  12  13
ATOM     13  N   UNL     1      44.635   3.241  11.084  0.00  0.00    +0.000 NA
ATOM     14  C   UNL     1      44.718   3.883   9.966  0.00  0.00    +0.000 C 
BRANCH  14  15
ATOM     15  C   UNL     1      45.543   3.367   8.857  0.00  0.00    +0.000 A 
ATOM     16  C   UNL     1      46.037   4.236   7.879  0.00  0.00    +0.000 A 
ATOM     17  C   UNL     1      46.756   3.729   6.796  0.00  0.00    +0.000 A 
ATOM     18  C   UNL     1      46.981   2.353   6.687  0.00  0.00    +0.000 A 
ATOM     19 CL   UNL     1      47.850   1.789   5.305  0.00  0.00    +0.000 Cl
ATOM     20  C   UNL     1      46.495   1.487   7.675  0.00  0.00    +0.000 A 
ATOM     21 CL   UNL     1      46.729  -0.224   7.600  0.00  0.00    +0.000 Cl
ATOM     22  C   UNL     1      45.777   1.994   8.764  0.00  0.00    +0.000 A 
ENDBRANCH  14  15
ENDBRANCH  12  13
ENDBRANCH   4  12
TORSDOF 5
ENDMDL
MODEL 5
REMARK VINA RESULT:    -6.391      1.706      2.481
REMARK INTER + INTRA:          -8.425
REMARK INTER:                  -8.061
REMARK INTRA:                  -0.363
REMARK UNBOUND:                -0.352
REMARK  Name = 
REMARK  5 active torsions:
REMARK  status: ('A' for Active; 'I' for Inactive)
REMARK    1  A    between atoms: N_1  and  C_2
REMARK    2  A    between atoms: C_2  and  C_3
REMARK    3  A    between atoms: C_6  and  O_7
REMARK    4  A    between atoms: O_7  and  N_8
REMARK    5  A    between atoms: C_9  and  C_10
REMARK                            x       y       z     vdW  Elec       q    Type
REMARK                         _______ _______ _______ _____ _____    ______ ____
ROOT
ATOM      1  C   UNL     1      45.376   3.529   8.567  0.00  0.00    +0.000 A 
ATOM      2  C   UNL     1      45.565   4.828   9.063  0.00  0.00    +0.000 A 
ATOM      3  C   UNL     1      45.031   5.205  10.299  0.00  0.00    +0.000 A 
ATOM      4  C   UNL     1      44.300   4.288  11.059  0.00  0.00    +0.000 A 
ATOM      5  C   UNL     1      44.069   3.010  10.545  0.00  0.00    +0.000 A 
ATOM      6  F   UNL     1      43.312   2.112  11.195  0.00  0.00    +0.000 F 
ATOM      7  C   UNL     1      44.607   2.628   9.315  0.00  0.00    +0.000 A 
ENDROOT
BRANCH   1   8
ATOM      8  C   UNL     1      45.994   3.111   7.258  0.00  0.00    +0.000 C 
BRANCH   8   9
ATOM      9  N   UNL     1      46.803   4.187   6.696  0.00  0.00    +0.000 NA
ATOM     10  H   UNL     1      47.261   3.855   5.849  0.00  0.00    +0.000 HD
ATOM     11  H   UNL     1      47.545   4.419   7.353  0.00  0.00    +0.000 HD
ENDBRANCH   8   9
ENDBRANCH   1   8
BRANCH   4  12
ATOM     12  O   UNL     1      43.837   4.755  12.267  0.00  0.00    +0.000 OA
BRANCH  12  13
ATOM     13  N   UNL     1      44.844   5.462  12.928  0.00  0.00    +0.000 NA
ATOM     14  C   UNL     1      45.578   4.644  13.608  0.00  0.00    +0.000 C 
BRANCH  14  15
ATOM     15  C   UNL     1      46.774   5.121  14.328  0.00  0.00    +0.000 A 
ATOM     16  C   UNL     1      47.141   4.546  15.549  0.00  0.00    +0.000 A 
ATOM     17  C   UNL     1      48.232   5.051  16.257  0.00  0.00    +0.000 A 
ATOM     18  C   UNL     1      48.957   6.132  15.747  0.00  0.00    +0.000 A 
ATOM     19 CL   UNL     1      50.276   6.730  16.690  0.00  0.00    +0.000 Cl
ATOM     20  C   UNL     1      48.594   6.698  14.518  0.00  0.00    +0.000 A 
ATOM     21 CL   UNL     1      49.441   8.041  13.834  0.00  0.00    +0.000 Cl
ATOM     22  C   UNL     1      47.503   6.190  13.805  0.00  0.00    +0.000 A 
ENDBRANCH  14  15
ENDBRANCH  12  13
ENDBRANCH   4  12
TORSDOF 5
ENDMDL
MODEL 6
REMARK VINA RESULT:    -6.310      5.318      7.924
REMARK INTER + INTRA:          -8.322
REMARK INTER:                  -7.949
REMARK INTRA:                  -0.373
REMARK UNBOUND:                -0.352
REMARK  Name = 
REMARK  5 active torsions:
REMARK  status: ('A' for Active; 'I' for Inactive)
REMARK    1  A    between atoms: N_1  and  C_2
REMARK    2  A    between atoms: C_2  and  C_3
REMARK    3  A    between atoms: C_6  and  O_7
REMARK    4  A    between atoms: O_7  and  N_8
REMARK    5  A    between atoms: C_9  and  C_10
REMARK                            x       y       z     vdW  Elec       q    Type
REMARK                         _______ _______ _______ _____ _____    ______ ____
ROOT
ATOM      1  C   UNL     1      50.826   2.427  17.331  0.00  0.00    +0.000 A 
ATOM      2  C   UNL     1      49.651   1.855  16.820  0.00  0.00    +0.000 A 
ATOM      3  C   UNL     1      48.530   2.648  16.552  0.00  0.00    +0.000 A 
ATOM      4  C   UNL     1      48.568   4.023  16.789  0.00  0.00    +0.000 A 
ATOM      5  C   UNL     1      49.719   4.587  17.344  0.00  0.00    +0.000 A 
ATOM      6  F   UNL     1      49.787   5.889  17.663  0.00  0.00    +0.000 F 
ATOM      7  C   UNL     1      50.842   3.800  17.605  0.00  0.00    +0.000 A 
ENDROOT
BRANCH   1   8
ATOM      8  C   UNL     1      52.048   1.579  17.573  0.00  0.00    +0.000 C 
BRANCH   8   9
ATOM      9  N   UNL     1      51.676   0.248  18.037  0.00  0.00    +0.000 NA
ATOM     10  H   UNL     1      52.377  -0.085  18.696  0.00  0.00    +0.000 HD
ATOM     11  H   UNL     1      51.694  -0.394  17.247  0.00  0.00    +0.000 HD
ENDBRANCH   8   9
ENDBRANCH   1   8
BRANCH   4  12
ATOM     12  O   UNL     1      47.420   4.712  16.472  0.00  0.00    +0.000 OA
BRANCH  12  13
ATOM     13  N   UNL     1      46.869   4.210  15.290  0.00  0.00    +0.000 NA
ATOM     14  C   UNL     1      46.548   5.188  14.508  0.00  0.00    +0.000 C 
BRANCH  14  15
ATOM     15  C   UNL     1      46.029   4.933  13.151  0.00  0.00    +0.000 A 
ATOM     16  C   UNL     1      46.417   5.745  12.080  0.00  0.00    +0.000 A 
ATOM     17  C   UNL     1      45.865   5.540  10.815  0.00  0.00    +0.000 A 
ATOM     18  C   UNL     1      44.925   4.524  10.618  0.00  0.00    +0.000 A 
ATOM     19 CL   UNL     1      44.258   4.346   9.034  0.00  0.00    +0.000 Cl
ATOM     20  C   UNL     1      44.548   3.705  11.689  0.00  0.00    +0.000 A 
ATOM     21 CL   UNL     1      43.386   2.437  11.518  0.00  0.00    +0.000 Cl
ATOM     22  C   UNL     1      45.103   3.906  12.958  0.00  0.00    +0.000 A 
ENDBRANCH  14  15
ENDBRANCH  12  13
ENDBRANCH   4  12
TORSDOF 5
ENDMDL
MODEL 7
REMARK VINA RESULT:    -6.250      3.957      7.030
REMARK INTER + INTRA:          -8.247
REMARK INTER:                  -8.206
REMARK INTRA:                  -0.040
REMARK UNBOUND:                -0.352
REMARK  Name = 
REMARK  5 active torsions:
REMARK  status: ('A' for Active; 'I' for Inactive)
REMARK    1  A    between atoms: N_1  and  C_2
REMARK    2  A    between atoms: C_2  and  C_3
REMARK    3  A    between atoms: C_6  and  O_7
REMARK    4  A    between atoms: O_7  and  N_8
REMARK    5  A    between atoms: C_9  and  C_10
REMARK                            x       y       z     vdW  Elec       q    Type
REMARK                         _______ _______ _______ _____ _____    ______ ____
ROOT
ATOM      1  C   UNL     1      46.530   8.279  12.907  0.00  0.00    +0.000 A 
ATOM      2  C   UNL     1      45.691   8.867  11.949  0.00  0.00    +0.000 A 
ATOM      3  C   UNL     1      44.628   8.147  11.394  0.00  0.00    +0.000 A 
ATOM      4  C   UNL     1      44.388   6.829  11.790  0.00  0.00    +0.000 A 
ATOM      5  C   UNL     1      45.252   6.226  12.708  0.00  0.00    +0.000 A 
ATOM      6  F   UNL     1      45.115   4.941  13.069  0.00  0.00    +0.000 F 
ATOM      7  C   UNL     1      46.309   6.945  13.269  0.00  0.00    +0.000 A 
ENDROOT
BRANCH   1   8
ATOM      8  C   UNL     1      47.644   9.073  13.539  0.00  0.00    +0.000 C 
BRANCH   8   9
ATOM      9  N   UNL     1      47.507   9.102  14.991  0.00  0.00    +0.000 NA
ATOM     10  H   UNL     1      48.388   9.400  15.405  0.00  0.00    +0.000 HD
ATOM     11  H   UNL     1      47.338   8.154  15.324  0.00  0.00    +0.000 HD
ENDBRANCH   8   9
ENDBRANCH   1   8
BRANCH   4  12
ATOM     12  O   UNL     1      43.306   6.219  11.198  0.00  0.00    +0.000 OA
BRANCH  12  13
ATOM     13  N   UNL     1      43.648   4.930  10.784  0.00  0.00    +0.000 NA
ATOM     14  C   UNL     1      44.332   4.990   9.690  0.00  0.00    +0.000 C 
BRANCH  14  15
ATOM     15  C   UNL     1      44.900   3.770   9.084  0.00  0.00    +0.000 A 
ATOM     16  C   UNL     1      44.514   2.506   9.542  0.00  0.00    +0.000 A 
ATOM     17  C   UNL     1      45.110   1.361   9.012  0.00  0.00    +0.000 A 
ATOM     18  C   UNL     1      46.093   1.477   8.026  0.00  0.00    +0.000 A 
ATOM     19 CL   UNL     1      46.814   0.021   7.437  0.00  0.00    +0.000 Cl
ATOM     20  C   UNL     1      46.470   2.744   7.561  0.00  0.00    +0.000 A 
ATOM     21 CL   UNL     1      47.684   2.960   6.350  0.00  0.00    +0.000 Cl
ATOM     22  C   UNL     1      45.870   3.893   8.088  0.00  0.00    +0.000 A 
ENDBRANCH  14  15
ENDBRANCH  12  13
ENDBRANCH   4  12
TORSDOF 5
ENDMDL
MODEL 8
REMARK VINA RESULT:    -6.234      1.619      2.059
REMARK INTER + INTRA:          -8.226
REMARK INTER:                  -8.116
REMARK INTRA:                  -0.110
REMARK UNBOUND:                -0.352
REMARK  Name = 
REMARK  5 active torsions:
REMARK  status: ('A' for Active; 'I' for Inactive)
REMARK    1  A    between atoms: N_1  and  C_2
REMARK    2  A    between atoms: C_2  and  C_3
REMARK    3  A    between atoms: C_6  and  O_7
REMARK    4  A    between atoms: O_7  and  N_8
REMARK    5  A    between atoms: C_9  and  C_10
REMARK                            x       y       z     vdW  Elec       q    Type
REMARK                         _______ _______ _______ _____ _____    ______ ____
ROOT
ATOM      1  C   UNL     1      45.947   3.442   7.898  0.00  0.00    +0.000 A 
ATOM      2  C   UNL     1      45.470   2.348   8.635  0.00  0.00    +0.000 A 
ATOM      3  C   UNL     1      44.909   2.532   9.903  0.00  0.00    +0.000 A 
ATOM      4  C   UNL     1      44.814   3.813  10.451  0.00  0.00    +0.000 A 
ATOM      5  C   UNL     1      45.333   4.898   9.739  0.00  0.00    +0.000 A 
ATOM      6  F   UNL     1      45.338   6.140  10.248  0.00  0.00    +0.000 F 
ATOM      7  C   UNL     1      45.887   4.719   8.471  0.00  0.00    +0.000 A 
ENDROOT
BRANCH   1   8
ATOM      8  C   UNL     1      46.507   3.246   6.512  0.00  0.00    +0.000 C 
BRANCH   8   9
ATOM      9  N   UNL     1      47.923   2.903   6.565  0.00  0.00    +0.000 NA
ATOM     10  H   UNL     1      48.353   3.377   7.356  0.00  0.00    +0.000 HD
ATOM     11  H   UNL     1      48.381   3.263   5.729  0.00  0.00    +0.000 HD
ENDBRANCH   8   9
ENDBRANCH   1   8
BRANCH   4  12
ATOM     12  O   UNL     1      44.227   3.885  11.693  0.00  0.00    +0.000 OA
BRANCH  12  13
ATOM     13  N   UNL     1      44.929   4.778  12.506  0.00  0.00    +0.000 NA
ATOM     14  C   UNL     1      45.825   4.140  13.183  0.00  0.00    +0.000 C 
BRANCH  14  15
ATOM     15  C   UNL     1      46.772   4.862  14.054  0.00  0.00    +0.000 A 
ATOM     16  C   UNL     1      47.407   6.023  13.601  0.00  0.00    +0.000 A 
ATOM     17  C   UNL     1      48.355   6.658  14.405  0.00  0.00    +0.000 A 
ATOM     18  C   UNL     1      48.670   6.135  15.662  0.00  0.00    +0.000 A 
ATOM     19 CL   UNL     1      49.875   6.951  16.593  0.00  0.00    +0.000 Cl
ATOM     20  C   UNL     1      48.023   4.978  16.118  0.00  0.00    +0.000 A 
ATOM     21 CL   UNL     1      48.370   4.272  17.657  0.00  0.00    +0.000 Cl
ATOM     22  C   UNL     1      47.070   4.342  15.315  0.00  0.00    +0.000 A 
ENDBRANCH  14  15
ENDBRANCH  12  13
ENDBRANCH   4  12
TORSDOF 5
ENDMDL
MODEL 9
REMARK VINA RESULT:    -6.079      3.518      4.978
REMARK INTER + INTRA:          -8.030
REMARK INTER:                  -7.709
REMARK INTRA:                  -0.322
REMARK UNBOUND:                -0.352
REMARK  Name = 
REMARK  5 active torsions:
REMARK  status: ('A' for Active; 'I' for Inactive)
REMARK    1  A    between atoms: N_1  and  C_2
REMARK    2  A    between atoms: C_2  and  C_3
REMARK    3  A    between atoms: C_6  and  O_7
REMARK    4  A    between atoms: O_7  and  N_8
REMARK    5  A    between atoms: C_9  and  C_10
REMARK                            x       y       z     vdW  Elec       q    Type
REMARK                         _______ _______ _______ _____ _____    ______ ____
ROOT
ATOM      1  C   UNL     1      44.928   4.402  10.392  0.00  0.00    +0.000 A 
ATOM      2  C   UNL     1      44.938   3.217  11.142  0.00  0.00    +0.000 A 
ATOM      3  C   UNL     1      45.210   3.243  12.514  0.00  0.00    +0.000 A 
ATOM      4  C   UNL     1      45.474   4.455  13.156  0.00  0.00    +0.000 A 
ATOM      5  C   UNL     1      45.513   5.630  12.402  0.00  0.00    +0.000 A 
ATOM      6  F   UNL     1      45.835   6.812  12.950  0.00  0.00    +0.000 F 
ATOM      7  C   UNL     1      45.234   5.609  11.034  0.00  0.00    +0.000 A 
ENDROOT
BRANCH   1   8
ATOM      8  C   UNL     1      44.586   4.377   8.925  0.00  0.00    +0.000 C 
BRANCH   8   9
ATOM      9  N   UNL     1      45.732   4.771   8.114  0.00  0.00    +0.000 NA
ATOM     10  H   UNL     1      46.276   3.944   7.877  0.00  0.00    +0.000 HD
ATOM     11  H   UNL     1      46.342   5.366   8.673  0.00  0.00    +0.000 HD
ENDBRANCH   8   9
ENDBRANCH   1   8
BRANCH   4  12
ATOM     12  O   UNL     1      45.709   4.371  14.509  0.00  0.00    +0.000 OA
BRANCH  12  13
ATOM     13  N   UNL     1      47.066   4.142  14.748  0.00  0.00    +0.000 NA
ATOM     14  C   UNL     1      47.273   4.030  16.019  0.00  0.00    +0.000 C 
BRANCH  14  15
ATOM     15  C   UNL     1      48.610   3.691  16.541  0.00  0.00    +0.000 A 
ATOM     16  C   UNL     1      49.032   2.359  16.598  0.00  0.00    +0.000 A 
ATOM     17  C   UNL     1      50.270   2.043  17.160  0.00  0.00    +0.000 A 
ATOM     18  C   UNL     1      51.087   3.057  17.667  0.00  0.00    +0.000 A 
ATOM     19 CL   UNL     1      52.592   2.595  18.379  0.00  0.00    +0.000 Cl
ATOM     20  C   UNL     1      50.667   4.392  17.598  0.00  0.00    +0.000 A 
ATOM     21 CL   UNL     1      51.623   5.694  18.213  0.00  0.00    +0.000 Cl
ATOM     22  C   UNL     1      49.428   4.711  17.031  0.00  0.00    +0.000 A 
ENDBRANCH  14  15
ENDBRANCH  12  13
ENDBRANCH   4  12
TORSDOF 5
ENDMDL
