MODEL 1
REMARK VINA RESULT:    -8.823      0.000      0.000
REMARK INTER + INTRA:         -12.578
REMARK INTER:                 -11.401
REMARK INTRA:                  -1.176
REMARK UNBOUND:                -1.176
REMARK  Name = 
REMARK  5 active torsions:
REMARK  status: ('A' for Active; 'I' for Inactive)
REMARK    1  A    between atoms: C_2  and  C_4
REMARK    2  A    between atoms: C_7  and  N_8
REMARK    3  A    between atoms: N_8  and  C_9
REMARK    4  A    between atoms: C_9  and  C_10
REMARK    5  A    between atoms: C_14  and  C_15
REMARK                            x       y       z     vdW  Elec       q    Type
REMARK                         _______ _______ _______ _____ _____    ______ ____
ROOT
ATOM      1  N   UNL     1      43.767   4.912   9.852  0.00  0.00    +0.000 N 
ATOM      2  H   UNL     1      42.950   5.247   9.350  0.00  0.00    +0.000 HD
ENDROOT
BRANCH   1   6
ATOM      3  C   UNL     1      46.347   2.250   7.820  0.00  0.00    +0.000 A 
ATOM      4  C   UNL     1      45.378   1.741   8.687  0.00  0.00    +0.000 A 
ATOM      5  C   UNL     1      44.495   2.612   9.340  0.00  0.00    +0.000 A 
ATOM      6  C   UNL     1      44.536   3.997   9.129  0.00  0.00    +0.000 A 
ATOM      7  C   UNL     1      45.515   4.490   8.253  0.00  0.00    +0.000 A 
ATOM      8  C   UNL     1      46.414   3.630   7.606  0.00  0.00    +0.000 A 
BRANCH   3  10
ATOM      9  N   UNL     1      48.413   1.972   6.550  0.00  0.00    +0.000 N 
ATOM     10  C   UNL     1      47.352   1.371   7.168  0.00  0.00    +0.000 C 
ATOM     11  O   UNL     1      47.265   0.149   7.216  0.00  0.00    +0.000 OA
ATOM     12  H   UNL     1      49.135   1.353   6.197  0.00  0.00    +0.000 HD
ATOM     13  H   UNL     1      48.647   2.941   6.692  0.00  0.00    +0.000 HD
ENDBRANCH   3  10
ENDBRANCH   1   6
BRANCH   1  14
ATOM     14  C   UNL     1      43.563   4.731  11.278  0.00  0.00    +0.000 C 
BRANCH  14  15
ATOM     15  C   UNL     1      44.826   5.010  12.057  0.00  0.00    +0.000 A 
ATOM     16  C   UNL     1      45.411   4.008  12.840  0.00  0.00    +0.000 A 
ATOM     17  C   UNL     1      46.625   4.240  13.479  0.00  0.00    +0.000 A 
ATOM     18  C   UNL     1      47.278   5.465  13.325  0.00  0.00    +0.000 A 
ATOM     19  C   UNL     1      46.743   6.486  12.518  0.00  0.00    +0.000 A 
ATOM     20  C   UNL     1      45.490   6.243  11.920  0.00  0.00    +0.000 A 
BRANCH  19  21
ATOM     21  C   UNL     1      47.509   7.721  12.227  0.00  0.00    +0.000 A 
ATOM     22  C   UNL     1      48.863   7.654  11.838  0.00  0.00    +0.000 A 
ATOM     23  C   UNL     1      49.579   8.797  11.470  0.00  0.00    +0.000 A 
ATOM     24  C   UNL     1      48.956  10.039  11.476  0.00  0.00    +0.000 A 
ATOM     25  C   UNL     1      47.624  10.140  11.870  0.00  0.00    +0.000 A 
ATOM     26  C   UNL     1      46.913   8.995  12.251  0.00  0.00    +0.000 A 
ENDBRANCH  19  21
ENDBRANCH  14  15
ENDBRANCH   1  14
TORSDOF 5
ENDMDL
MODEL 2
REMARK VINA RESULT:    -8.366      1.723      3.526
REMARK INTER + INTRA:         -11.988
REMARK INTER:                 -11.059
REMARK INTRA:                  -0.929
REMARK UNBOUND:                -1.176
REMARK  Name = 
REMARK  5 active torsions:
REMARK  status: ('A' for Active; 'I' for Inactive)
REMARK    1  A    between atoms: C_2  and  C_4
REMARK    2  A    between atoms: C_7  and  N_8
REMARK    3  A    between atoms: N_8  and  C_9
REMARK    4  A    between atoms: C_9  and  C_10
REMARK    5  A    between atoms: C_14  and  C_15
REMARK                            x       y       z     vdW  Elec       q    Type
REMARK                         _______ _______ _______ _____ _____    ______ ____
ROOT
ATOM      1  N   UNL     1      43.764   4.751  10.056  0.00  0.00    +0.000 N 
ATOM      2  H   UNL     1      42.823   4.905   9.703  0.00  0.00    +0.000 HD
ENDROOT
BRANCH   1   6
ATOM      3  C   UNL     1      46.302   2.180   7.862  0.00  0.00    +0.000 A 
ATOM      4  C   UNL     1      45.374   1.636   8.751  0.00  0.00    +0.000 A 
ATOM      5  C   UNL     1      44.504   2.476   9.458  0.00  0.00    +0.000 A 
ATOM      6  C   UNL     1      44.518   3.867   9.282  0.00  0.00    +0.000 A 
ATOM      7  C   UNL     1      45.456   4.396   8.383  0.00  0.00    +0.000 A 
ATOM      8  C   UNL     1      46.342   3.566   7.681  0.00  0.00    +0.000 A 
BRANCH   3  10
ATOM      9  N   UNL     1      48.243   1.965   6.397  0.00  0.00    +0.000 N 
ATOM     10  C   UNL     1      47.294   1.332   7.151  0.00  0.00    +0.000 C 
ATOM     11  O   UNL     1      47.297   0.112   7.265  0.00  0.00    +0.000 OA
ATOM     12  H   UNL     1      48.966   1.376   6.000  0.00  0.00    +0.000 HD
ATOM     13  H   UNL     1      48.423   2.954   6.467  0.00  0.00    +0.000 HD
ENDBRANCH   3  10
ENDBRANCH   1   6
BRANCH   1  14
ATOM     14  C   UNL     1      43.866   4.727  11.504  0.00  0.00    +0.000 C 
BRANCH  14  15
ATOM     15  C   UNL     1      45.190   5.281  11.974  0.00  0.00    +0.000 A 
ATOM     16  C   UNL     1      45.774   6.371  11.319  0.00  0.00    +0.000 A 
ATOM     17  C   UNL     1      46.944   6.938  11.812  0.00  0.00    +0.000 A 
ATOM     18  C   UNL     1      47.531   6.438  12.977  0.00  0.00    +0.000 A 
ATOM     19  C   UNL     1      46.957   5.368  13.687  0.00  0.00    +0.000 A 
ATOM     20  C   UNL     1      45.798   4.781  13.141  0.00  0.00    +0.000 A 
BRANCH  19  21
ATOM     21  C   UNL     1      47.488   4.942  15.005  0.00  0.00    +0.000 A 
ATOM     22  C   UNL     1      48.266   5.821  15.785  0.00  0.00    +0.000 A 
ATOM     23  C   UNL     1      48.700   5.476  17.069  0.00  0.00    +0.000 A 
ATOM     24  C   UNL     1      48.360   4.240  17.608  0.00  0.00    +0.000 A 
ATOM     25  C   UNL     1      47.605   3.345  16.855  0.00  0.00    +0.000 A 
ATOM     26  C   UNL     1      47.183   3.689  15.565  0.00  0.00    +0.000 A 
ENDBRANCH  19  21
ENDBRANCH  14  15
ENDBRANCH   1  14
TORSDOF 5
ENDMDL
MODEL 3
REMARK VINA RESULT:    -8.145      1.586      2.398
REMARK INTER + INTRA:         -11.703
REMARK INTER:                 -10.607
REMARK INTRA:                  -1.095
REMARK UNBOUND:                -1.176
REMARK  Name = 
REMARK  5 active torsions:
REMARK  status: ('A' for Active; 'I' for Inactive)
REMARK    1  A    between atoms: C_2  and  C_4
REMARK    2  A    between atoms: C_7  and  N_8
REMARK    3  A    between atoms: N_8  and  C_9
REMARK    4  A    between atoms: C_9  and  C_10
REMARK    5  A    between atoms: C_14  and  C_15
REMARK                            x       y       z     vdW  Elec       q    Type
REMARK                         _______ _______ _______ _____ _____    ______ ____
ROOT
ATOM      1  N   UNL     1      43.633   3.711  10.592  0.00  0.00    +0.000 N 
ATOM      2  H   UNL     1      42.719   3.355  10.327  0.00  0.00    +0.000 HD
ENDROOT
BRANCH   1   6
ATOM      3  C   UNL     1      46.453   2.734   7.599  0.00  0.00    +0.000 A 
ATOM      4  C   UNL     1      46.161   4.074   7.857  0.00  0.00    +0.000 A 
ATOM      5  C   UNL     1      45.254   4.411   8.870  0.00  0.00    +0.000 A 
ATOM      6  C   UNL     1      44.638   3.433   9.663  0.00  0.00    +0.000 A 
ATOM      7  C   UNL     1      44.946   2.091   9.391  0.00  0.00    +0.000 A 
ATOM      8  C   UNL     1      45.841   1.741   8.369  0.00  0.00    +0.000 A 
BRANCH   3  10
ATOM      9  N   UNL     1      47.204   2.977   5.289  0.00  0.00    +0.000 N 
ATOM     10  C   UNL     1      47.349   2.329   6.485  0.00  0.00    +0.000 C 
ATOM     11  O   UNL     1      48.219   1.478   6.635  0.00  0.00    +0.000 OA
ATOM     12  H   UNL     1      47.888   2.755   4.574  0.00  0.00    +0.000 HD
ATOM     13  H   UNL     1      46.679   3.831   5.193  0.00  0.00    +0.000 HD
ENDBRANCH   3  10
ENDBRANCH   1   6
BRANCH   1  14
ATOM     14  C   UNL     1      43.913   3.644  12.016  0.00  0.00    +0.000 C 
BRANCH  14  15
ATOM     15  C   UNL     1      44.854   4.745  12.446  0.00  0.00    +0.000 A 
ATOM     16  C   UNL     1      46.062   4.435  13.081  0.00  0.00    +0.000 A 
ATOM     17  C   UNL     1      46.968   5.445  13.390  0.00  0.00    +0.000 A 
ATOM     18  C   UNL     1      46.687   6.770  13.048  0.00  0.00    +0.000 A 
ATOM     19  C   UNL     1      45.502   7.119  12.376  0.00  0.00    +0.000 A 
ATOM     20  C   UNL     1      44.580   6.086  12.117  0.00  0.00    +0.000 A 
BRANCH  19  21
ATOM     21  C   UNL     1      45.277   8.496  11.872  0.00  0.00    +0.000 A 
ATOM     22  C   UNL     1      44.145   8.800  11.089  0.00  0.00    +0.000 A 
ATOM     23  C   UNL     1      43.863  10.107  10.681  0.00  0.00    +0.000 A 
ATOM     24  C   UNL     1      44.707  11.147  11.051  0.00  0.00    +0.000 A 
ATOM     25  C   UNL     1      45.841  10.876  11.811  0.00  0.00    +0.000 A 
ATOM     26  C   UNL     1      46.127   9.564  12.209  0.00  0.00    +0.000 A 
ENDBRANCH  19  21
ENDBRANCH  14  15
ENDBRANCH   1  14
TORSDOF 5
ENDMDL
MODEL 4
REMARK VINA RESULT:    -7.634      1.458      2.365
REMARK INTER + INTRA:         -11.042
REMARK INTER:                 -10.192
REMARK INTRA:                  -0.850
REMARK UNBOUND:                -1.176
REMARK  Name = 
REMARK  5 active torsions:
REMARK  status: ('A' for Active; 'I' for Inactive)
REMARK    1  A    between atoms: C_2  and  C_4
REMARK    2  A    between atoms: C_7  and  N_8
REMARK    3  A    between atoms: N_8  and  C_9
REMARK    4  A    between atoms: C_9  and  C_10
REMARK    5  A    between atoms: C_14  and  C_15
REMARK                            x       y       z     vdW  Elec       q    Type
REMARK                         _______ _______ _______ _____ _____    ______ ____
ROOT
ATOM      1  N   UNL     1      43.775   3.599  10.411  0.00  0.00    +0.000 N 
ATOM      2  H   UNL     1      43.006   2.935  10.371  0.00  0.00    +0.000 HD
ENDROOT
BRANCH   1   6
ATOM      3  C   UNL     1      46.617   2.702   7.414  0.00  0.00    +0.000 A 
ATOM      4  C   UNL     1      46.312   4.035   7.696  0.00  0.00    +0.000 A 
ATOM      5  C   UNL     1      45.397   4.345   8.710  0.00  0.00    +0.000 A 
ATOM      6  C   UNL     1      44.786   3.346   9.482  0.00  0.00    +0.000 A 
ATOM      7  C   UNL     1      45.107   2.013   9.186  0.00  0.00    +0.000 A 
ATOM      8  C   UNL     1      46.010   1.690   8.163  0.00  0.00    +0.000 A 
BRANCH   3  10
ATOM      9  N   UNL     1      47.320   2.933   5.088  0.00  0.00    +0.000 N 
ATOM     10  C   UNL     1      47.522   2.326   6.297  0.00  0.00    +0.000 C 
ATOM     11  O   UNL     1      48.445   1.536   6.455  0.00  0.00    +0.000 OA
ATOM     12  H   UNL     1      48.007   2.735   4.368  0.00  0.00    +0.000 HD
ATOM     13  H   UNL     1      46.741   3.749   4.979  0.00  0.00    +0.000 HD
ENDBRANCH   3  10
ENDBRANCH   1   6
BRANCH   1  14
ATOM     14  C   UNL     1      44.107   4.051  11.751  0.00  0.00    +0.000 C 
BRANCH  14  15
ATOM     15  C   UNL     1      44.712   5.435  11.732  0.00  0.00    +0.000 A 
ATOM     16  C   UNL     1      43.921   6.548  11.427  0.00  0.00    +0.000 A 
ATOM     17  C   UNL     1      44.459   7.830  11.504  0.00  0.00    +0.000 A 
ATOM     18  C   UNL     1      45.783   8.012  11.908  0.00  0.00    +0.000 A 
ATOM     19  C   UNL     1      46.601   6.923  12.258  0.00  0.00    +0.000 A 
ATOM     20  C   UNL     1      46.048   5.634  12.127  0.00  0.00    +0.000 A 
BRANCH  19  21
ATOM     21  C   UNL     1      47.951   7.126  12.838  0.00  0.00    +0.000 A 
ATOM     22  C   UNL     1      49.002   7.643  12.053  0.00  0.00    +0.000 A 
ATOM     23  C   UNL     1      50.256   7.930  12.600  0.00  0.00    +0.000 A 
ATOM     24  C   UNL     1      50.490   7.710  13.953  0.00  0.00    +0.000 A 
ATOM     25  C   UNL     1      49.477   7.185  14.751  0.00  0.00    +0.000 A 
ATOM     26  C   UNL     1      48.225   6.888  14.197  0.00  0.00    +0.000 A 
ENDBRANCH  19  21
ENDBRANCH  14  15
ENDBRANCH   1  14
TORSDOF 5
ENDMDL
MODEL 5
REMARK VINA RESULT:    -7.470      3.266      6.721
REMARK INTER + INTRA:         -10.830
REMARK INTER:                  -9.862
REMARK INTRA:                  -0.967
REMARK UNBOUND:                -1.176
REMARK  Name = 
REMARK  5 active torsions:
REMARK  status: ('A' for Active; 'I' for Inactive)
REMARK    1  A    between atoms: C_2  and  C_4
REMARK    2  A    between atoms: C_7  and  N_8
REMARK    3  A    between atoms: N_8  and  C_9
REMARK    4  A    between atoms: C_9  and  C_10
REMARK    5  A    between atoms: C_14  and  C_15
REMARK                            x       y       z     vdW  Elec       q    Type
REMARK                         _______ _______ _______ _____ _____    ______ ____
ROOT
ATOM      1  N   UNL     1      44.817   6.998  12.690  0.00  0.00    +0.000 N 
ATOM      2  H   UNL     1      44.365   7.561  13.406  0.00  0.00    +0.000 HD
ENDROOT
BRANCH   1   6
ATOM      3  C   UNL     1      48.840   8.219  12.255  0.00  0.00    +0.000 A 
ATOM      4  C   UNL     1      48.552   6.876  12.504  0.00  0.00    +0.000 A 
ATOM      5  C   UNL     1      47.221   6.454  12.616  0.00  0.00    +0.000 A 
ATOM      6  C   UNL     1      46.150   7.345  12.459  0.00  0.00    +0.000 A 
ATOM      7  C   UNL     1      46.459   8.690  12.207  0.00  0.00    +0.000 A 
ATOM      8  C   UNL     1      47.787   9.127  12.108  0.00  0.00    +0.000 A 
BRANCH   3  10
ATOM      9  N   UNL     1      51.238   7.846  12.518  0.00  0.00    +0.000 N 
ATOM     10  C   UNL     1      50.237   8.723  12.206  0.00  0.00    +0.000 C 
ATOM     11  O   UNL     1      50.496   9.869  11.856  0.00  0.00    +0.000 OA
ATOM     12  H   UNL     1      52.186   8.181  12.385  0.00  0.00    +0.000 HD
ATOM     13  H   UNL     1      51.092   6.851  12.575  0.00  0.00    +0.000 HD
ENDBRANCH   3  10
ENDBRANCH   1   6
BRANCH   1  14
ATOM     14  C   UNL     1      43.953   6.631  11.582  0.00  0.00    +0.000 C 
BRANCH  14  15
ATOM     15  C   UNL     1      44.065   5.159  11.259  0.00  0.00    +0.000 A 
ATOM     16  C   UNL     1      43.235   4.230  11.895  0.00  0.00    +0.000 A 
ATOM     17  C   UNL     1      43.275   2.889  11.527  0.00  0.00    +0.000 A 
ATOM     18  C   UNL     1      44.128   2.467  10.504  0.00  0.00    +0.000 A 
ATOM     19  C   UNL     1      44.952   3.373   9.814  0.00  0.00    +0.000 A 
ATOM     20  C   UNL     1      44.927   4.717  10.238  0.00  0.00    +0.000 A 
BRANCH  19  21
ATOM     21  C   UNL     1      45.736   2.955   8.627  0.00  0.00    +0.000 A 
ATOM     22  C   UNL     1      46.092   1.604   8.439  0.00  0.00    +0.000 A 
ATOM     23  C   UNL     1      46.750   1.171   7.283  0.00  0.00    +0.000 A 
ATOM     24  C   UNL     1      47.064   2.082   6.281  0.00  0.00    +0.000 A 
ATOM     25  C   UNL     1      46.740   3.425   6.445  0.00  0.00    +0.000 A 
ATOM     26  C   UNL     1      46.091   3.858   7.609  0.00  0.00    +0.000 A 
ENDBRANCH  19  21
ENDBRANCH  14  15
ENDBRANCH   1  14
TORSDOF 5
ENDMDL
MODEL 6
REMARK VINA RESULT:    -7.245      3.509      7.103
REMARK INTER + INTRA:         -10.538
REMARK INTER:                 -10.064
REMARK INTRA:                  -0.474
REMARK UNBOUND:                -1.176
REMARK  Name = 
REMARK  5 active torsions:
REMARK  status: ('A' for Active; 'I' for Inactive)
REMARK    1  A    between atoms: C_2  and  C_4
REMARK    2  A    between atoms: C_7  and  N_8
REMARK    3  A    between atoms: N_8  and  C_9
REMARK    4  A    between atoms: C_9  and  C_10
REMARK    5  A    between atoms: C_14  and  C_15
REMARK                            x       y       z     vdW  Elec       q    Type
REMARK                         _______ _______ _______ _____ _____    ______ ____
ROOT
ATOM      1  N   UNL     1      47.428   6.859  12.493  0.00  0.00    +0.000 N 
ATOM      2  H   UNL     1      48.043   6.593  11.729  0.00  0.00    +0.000 HD
ENDROOT
BRANCH   1   6
ATOM      3  C   UNL     1      47.519   4.518  16.012  0.00  0.00    +0.000 A 
ATOM      4  C   UNL     1      46.797   4.069  14.905  0.00  0.00    +0.000 A 
ATOM      5  C   UNL     1      46.788   4.819  13.722  0.00  0.00    +0.000 A 
ATOM      6  C   UNL     1      47.511   6.014  13.602  0.00  0.00    +0.000 A 
ATOM      7  C   UNL     1      48.233   6.449  14.724  0.00  0.00    +0.000 A 
ATOM      8  C   UNL     1      48.237   5.714  15.918  0.00  0.00    +0.000 A 
BRANCH   3  10
ATOM      9  N   UNL     1      48.400   4.170  18.262  0.00  0.00    +0.000 N 
ATOM     10  C   UNL     1      47.494   3.794  17.309  0.00  0.00    +0.000 C 
ATOM     11  O   UNL     1      46.666   2.920  17.542  0.00  0.00    +0.000 OA
ATOM     12  H   UNL     1      48.302   3.731  19.171  0.00  0.00    +0.000 HD
ATOM     13  H   UNL     1      48.926   5.027  18.204  0.00  0.00    +0.000 HD
ENDBRANCH   3  10
ENDBRANCH   1   6
BRANCH   1  14
ATOM     14  C   UNL     1      46.144   7.393  12.074  0.00  0.00    +0.000 C 
BRANCH  14  15
ATOM     15  C   UNL     1      45.275   6.322  11.459  0.00  0.00    +0.000 A 
ATOM     16  C   UNL     1      43.893   6.318  11.681  0.00  0.00    +0.000 A 
ATOM     17  C   UNL     1      43.084   5.387  11.037  0.00  0.00    +0.000 A 
ATOM     18  C   UNL     1      43.643   4.466  10.148  0.00  0.00    +0.000 A 
ATOM     19  C   UNL     1      45.022   4.459   9.868  0.00  0.00    +0.000 A 
ATOM     20  C   UNL     1      45.825   5.381  10.569  0.00  0.00    +0.000 A 
BRANCH  19  21
ATOM     21  C   UNL     1      45.590   3.592   8.809  0.00  0.00    +0.000 A 
ATOM     22  C   UNL     1      46.201   4.153   7.669  0.00  0.00    +0.000 A 
ATOM     23  C   UNL     1      46.825   3.358   6.703  0.00  0.00    +0.000 A 
ATOM     24  C   UNL     1      46.858   1.977   6.856  0.00  0.00    +0.000 A 
ATOM     25  C   UNL     1      46.250   1.392   7.963  0.00  0.00    +0.000 A 
ATOM     26  C   UNL     1      45.615   2.190   8.923  0.00  0.00    +0.000 A 
ENDBRANCH  19  21
ENDBRANCH  14  15
ENDBRANCH   1  14
TORSDOF 5
ENDMDL
MODEL 7
REMARK VINA RESULT:    -7.079      3.322      7.108
REMARK INTER + INTRA:         -10.325
REMARK INTER:                  -9.665
REMARK INTRA:                  -0.660
REMARK UNBOUND:                -1.176
REMARK  Name = 
REMARK  5 active torsions:
REMARK  status: ('A' for Active; 'I' for Inactive)
REMARK    1  A    between atoms: C_2  and  C_4
REMARK    2  A    between atoms: C_7  and  N_8
REMARK    3  A    between atoms: N_8  and  C_9
REMARK    4  A    between atoms: C_9  and  C_10
REMARK    5  A    between atoms: C_14  and  C_15
REMARK                            x       y       z     vdW  Elec       q    Type
REMARK                         _______ _______ _______ _____ _____    ______ ____
ROOT
ATOM      1  N   UNL     1      45.893   7.093  11.387  0.00  0.00    +0.000 N 
ATOM      2  H   UNL     1      46.339   7.018  10.477  0.00  0.00    +0.000 HD
ENDROOT
BRANCH   1   6
ATOM      3  C   UNL     1      48.316   6.528  14.805  0.00  0.00    +0.000 A 
ATOM      4  C   UNL     1      47.619   5.443  14.269  0.00  0.00    +0.000 A 
ATOM      5  C   UNL     1      46.840   5.611  13.116  0.00  0.00    +0.000 A 
ATOM      6  C   UNL     1      46.755   6.846  12.458  0.00  0.00    +0.000 A 
ATOM      7  C   UNL     1      47.464   7.924  13.010  0.00  0.00    +0.000 A 
ATOM      8  C   UNL     1      48.234   7.771  14.172  0.00  0.00    +0.000 A 
BRANCH   3  10
ATOM      9  N   UNL     1      48.386   6.294  17.234  0.00  0.00    +0.000 N 
ATOM     10  C   UNL     1      49.090   6.413  16.068  0.00  0.00    +0.000 C 
ATOM     11  O   UNL     1      50.315   6.380  16.070  0.00  0.00    +0.000 OA
ATOM     12  H   UNL     1      48.931   6.120  18.071  0.00  0.00    +0.000 HD
ATOM     13  H   UNL     1      47.403   6.077  17.256  0.00  0.00    +0.000 HD
ENDBRANCH   3  10
ENDBRANCH   1   6
BRANCH   1  14
ATOM     14  C   UNL     1      44.522   6.615  11.426  0.00  0.00    +0.000 C 
BRANCH  14  15
ATOM     15  C   UNL     1      44.434   5.157  11.042  0.00  0.00    +0.000 A 
ATOM     16  C   UNL     1      43.463   4.331  11.618  0.00  0.00    +0.000 A 
ATOM     17  C   UNL     1      43.324   3.013  11.192  0.00  0.00    +0.000 A 
ATOM     18  C   UNL     1      44.137   2.516  10.171  0.00  0.00    +0.000 A 
ATOM     19  C   UNL     1      45.101   3.323   9.540  0.00  0.00    +0.000 A 
ATOM     20  C   UNL     1      45.253   4.638  10.022  0.00  0.00    +0.000 A 
BRANCH  19  21
ATOM     21  C   UNL     1      45.851   2.845   8.353  0.00  0.00    +0.000 A 
ATOM     22  C   UNL     1      46.265   1.501   8.257  0.00  0.00    +0.000 A 
ATOM     23  C   UNL     1      46.892   1.006   7.109  0.00  0.00    +0.000 A 
ATOM     24  C   UNL     1      47.116   1.845   6.024  0.00  0.00    +0.000 A 
ATOM     25  C   UNL     1      46.732   3.181   6.095  0.00  0.00    +0.000 A 
ATOM     26  C   UNL     1      46.115   3.677   7.251  0.00  0.00    +0.000 A 
ENDBRANCH  19  21
ENDBRANCH  14  15
ENDBRANCH   1  14
TORSDOF 5
ENDMDL
MODEL 8
REMARK VINA RESULT:    -6.709      3.253      7.077
REMARK INTER + INTRA:          -9.846
REMARK INTER:                  -8.881
REMARK INTRA:                  -0.965
REMARK UNBOUND:                -1.176
REMARK  Name = 
REMARK  5 active torsions:
REMARK  status: ('A' for Active; 'I' for Inactive)
REMARK    1  A    between atoms: C_2  and  C_4
REMARK    2  A    between atoms: C_7  and  N_8
REMARK    3  A    between atoms: N_8  and  C_9
REMARK    4  A    between atoms: C_9  and  C_10
REMARK    5  A    between atoms: C_14  and  C_15
REMARK                            x       y       z     vdW  Elec       q    Type
REMARK                         _______ _______ _______ _____ _____    ______ ____
ROOT
ATOM      1  N   UNL     1      47.111   5.173  13.392  0.00  0.00    +0.000 N 
ATOM      2  H   UNL     1      47.813   4.693  13.949  0.00  0.00    +0.000 HD
ENDROOT
BRANCH   1   6
ATOM      3  C   UNL     1      48.029   9.160  12.330  0.00  0.00    +0.000 A 
ATOM      4  C   UNL     1      46.777   8.863  12.871  0.00  0.00    +0.000 A 
ATOM      5  C   UNL     1      46.474   7.551  13.259  0.00  0.00    +0.000 A 
ATOM      6  C   UNL     1      47.409   6.514  13.142  0.00  0.00    +0.000 A 
ATOM      7  C   UNL     1      48.663   6.831  12.598  0.00  0.00    +0.000 A 
ATOM      8  C   UNL     1      48.973   8.137  12.193  0.00  0.00    +0.000 A 
BRANCH   3  10
ATOM      9  N   UNL     1      48.500  11.516  12.762  0.00  0.00    +0.000 N 
ATOM     10  C   UNL     1      48.365  10.520  11.835  0.00  0.00    +0.000 C 
ATOM     11  O   UNL     1      48.559  10.742  10.645  0.00  0.00    +0.000 OA
ATOM     12  H   UNL     1      48.823  12.411  12.414  0.00  0.00    +0.000 HD
ATOM     13  H   UNL     1      48.586  11.332  13.749  0.00  0.00    +0.000 HD
ENDBRANCH   3  10
ENDBRANCH   1   6
BRANCH   1  14
ATOM     14  C   UNL     1      45.745   4.765  13.668  0.00  0.00    +0.000 C 
BRANCH  14  15
ATOM     15  C   UNL     1      44.954   4.584  12.393  0.00  0.00    +0.000 A 
ATOM     16  C   UNL     1      43.717   5.216  12.231  0.00  0.00    +0.000 A 
ATOM     17  C   UNL     1      43.037   5.124  11.021  0.00  0.00    +0.000 A 
ATOM     18  C   UNL     1      43.596   4.417   9.954  0.00  0.00    +0.000 A 
ATOM     19  C   UNL     1      44.854   3.797  10.062  0.00  0.00    +0.000 A 
ATOM     20  C   UNL     1      45.500   3.866  11.312  0.00  0.00    +0.000 A 
BRANCH  19  21
ATOM     21  C   UNL     1      45.518   3.186   8.885  0.00  0.00    +0.000 A 
ATOM     22  C   UNL     1      46.041   3.993   7.854  0.00  0.00    +0.000 A 
ATOM     23  C   UNL     1      46.751   3.446   6.781  0.00  0.00    +0.000 A 
ATOM     24  C   UNL     1      46.961   2.073   6.716  0.00  0.00    +0.000 A 
ATOM     25  C   UNL     1      46.444   1.249   7.711  0.00  0.00    +0.000 A 
ATOM     26  C   UNL     1      45.722   1.799   8.778  0.00  0.00    +0.000 A 
ENDBRANCH  19  21
ENDBRANCH  14  15
ENDBRANCH   1  14
TORSDOF 5
ENDMDL
MODEL 9
REMARK VINA RESULT:    -6.139      3.382      5.740
REMARK INTER + INTRA:          -9.110
REMARK INTER:                  -8.057
REMARK INTRA:                  -1.053
REMARK UNBOUND:                -1.176
REMARK  Name = 
REMARK  5 active torsions:
REMARK  status: ('A' for Active; 'I' for Inactive)
REMARK    1  A    between atoms: C_2  and  C_4
REMARK    2  A    between atoms: C_7  and  N_8
REMARK    3  A    between atoms: N_8  and  C_9
REMARK    4  A    between atoms: C_9  and  C_10
REMARK    5  A    between atoms: C_14  and  C_15
REMARK                            x       y       z     vdW  Elec       q    Type
REMARK                         _______ _______ _______ _____ _____    ______ ____
ROOT
ATOM      1  N   UNL     1      46.548   7.877  12.098  0.00  0.00    +0.000 N 
ATOM      2  H   UNL     1      46.087   8.560  12.694  0.00  0.00    +0.000 HD
ENDROOT
BRANCH   1   6
ATOM      3  C   UNL     1      44.528   4.244  11.331  0.00  0.00    +0.000 A 
ATOM      4  C   UNL     1      44.597   4.730  12.638  0.00  0.00    +0.000 A 
ATOM      5  C   UNL     1      45.234   5.951  12.899  0.00  0.00    +0.000 A 
ATOM      6  C   UNL     1      45.793   6.725  11.873  0.00  0.00    +0.000 A 
ATOM      7  C   UNL     1      45.712   6.221  10.565  0.00  0.00    +0.000 A 
ATOM      8  C   UNL     1      45.090   4.994  10.293  0.00  0.00    +0.000 A 
BRANCH   3  10
ATOM      9  N   UNL     1      44.541   2.160  10.060  0.00  0.00    +0.000 N 
ATOM     10  C   UNL     1      43.931   2.920  11.019  0.00  0.00    +0.000 C 
ATOM     11  O   UNL     1      42.954   2.496  11.626  0.00  0.00    +0.000 OA
ATOM     12  H   UNL     1      44.176   1.223   9.932  0.00  0.00    +0.000 HD
ATOM     13  H   UNL     1      45.466   2.359   9.715  0.00  0.00    +0.000 HD
ENDBRANCH   3  10
ENDBRANCH   1   6
BRANCH   1  14
ATOM     14  C   UNL     1      47.985   7.786  12.291  0.00  0.00    +0.000 C 
BRANCH  14  15
ATOM     15  C   UNL     1      48.348   7.819  13.756  0.00  0.00    +0.000 A 
ATOM     16  C   UNL     1      48.433   9.039  14.437  0.00  0.00    +0.000 A 
ATOM     17  C   UNL     1      48.675   9.060  15.807  0.00  0.00    +0.000 A 
ATOM     18  C   UNL     1      48.812   7.864  16.514  0.00  0.00    +0.000 A 
ATOM     19  C   UNL     1      48.697   6.616  15.876  0.00  0.00    +0.000 A 
ATOM     20  C   UNL     1      48.499   6.622  14.481  0.00  0.00    +0.000 A 
BRANCH  19  21
ATOM     21  C   UNL     1      48.682   5.351  16.650  0.00  0.00    +0.000 A 
ATOM     22  C   UNL     1      47.551   4.511  16.635  0.00  0.00    +0.000 A 
ATOM     23  C   UNL     1      47.547   3.271  17.281  0.00  0.00    +0.000 A 
ATOM     24  C   UNL     1      48.682   2.837  17.957  0.00  0.00    +0.000 A 
ATOM     25  C   UNL     1      49.810   3.651  18.002  0.00  0.00    +0.000 A 
ATOM     26  C   UNL     1      49.806   4.898  17.364  0.00  0.00    +0.000 A 
ENDBRANCH  19  21
ENDBRANCH  14  15
ENDBRANCH   1  14
TORSDOF 5
ENDMDL
