MODEL 1
REMARK VINA RESULT:    -7.578      0.000      0.000
REMARK INTER + INTRA:         -10.081
REMARK INTER:                  -9.350
REMARK INTRA:                  -0.732
REMARK UNBOUND:                -0.732
REMARK  Name = 
REMARK  6 active torsions:
REMARK  status: ('A' for Active; 'I' for Inactive)
REMARK    1  A    between atoms: C_1  and  C_2
REMARK    2  A    between atoms: C_2  and  C_3
REMARK    3  A    between atoms: C_2  and  C_4
REMARK    4  A    between atoms: C_2  and  C_15
REMARK    5  A    between atoms: C_5  and  C_6
REMARK    6  A    between atoms: C_9  and  C_10
REMARK                            x       y       z     vdW  Elec       q    Type
REMARK                         _______ _______ _______ _____ _____    ______ ____
ROOT
ATOM      1  C   UNL     1      45.229   3.977  12.136  0.00  0.00    +0.000 C 
ATOM      2  C   UNL     1      45.945   5.092  12.361  0.00  0.00    +0.000 C 
ENDROOT
BRANCH   2   3
ATOM      3  C   UNL     1      46.794   5.230  13.544  0.00  0.00    +0.000 A 
ATOM      4  C   UNL     1      46.644   4.367  14.630  0.00  0.00    +0.000 A 
ATOM      5  C   UNL     1      47.457   4.519  15.752  0.00  0.00    +0.000 A 
ATOM      6  C   UNL     1      48.404   5.535  15.748  0.00  0.00    +0.000 A 
ATOM      7  N   UNL     1      48.591   6.393  14.705  0.00  0.00    +0.000 NA
ATOM      8  C   UNL     1      47.780   6.213  13.632  0.00  0.00    +0.000 A 
BRANCH   6   9
ATOM      9  C   UNL     1      49.284   5.730  16.947  0.00  0.00    +0.000 C 
ATOM     10  N   UNL     1      48.811   6.605  17.886  0.00  0.00    +0.000 N 
ATOM     11  O   UNL     1      50.352   5.149  17.086  0.00  0.00    +0.000 OA
ATOM     12  H   UNL     1      47.918   7.061  17.743  0.00  0.00    +0.000 HD
ATOM     13  H   UNL     1      49.347   6.775  18.725  0.00  0.00    +0.000 HD
ENDBRANCH   6   9
ENDBRANCH   2   3
BRANCH   1  15
ATOM     14  C   UNL     1      43.342   2.567  11.405  0.00  0.00    +0.000 C 
ATOM     15  C   UNL     1      44.295   3.696  10.951  0.00  0.00    +0.000 C 
ATOM     16  C   UNL     1      43.424   4.954  10.717  0.00  0.00    +0.000 C 
BRANCH  15  17
ATOM     17  C   UNL     1      45.045   3.367   9.639  0.00  0.00    +0.000 A 
ATOM     18  C   UNL     1      45.354   4.396   8.722  0.00  0.00    +0.000 A 
ATOM     19  C   UNL     1      46.031   4.127   7.526  0.00  0.00    +0.000 A 
ATOM     20  C   UNL     1      46.407   2.824   7.224  0.00  0.00    +0.000 A 
ATOM     21  F   UNL     1      47.057   2.588   6.076  0.00  0.00    +0.000 F 
ATOM     22  C   UNL     1      46.111   1.789   8.101  0.00  0.00    +0.000 A 
ATOM     23 CL   UNL     1      46.567   0.169   7.735  0.00  0.00    +0.000 Cl
ATOM     24  C   UNL     1      45.437   2.057   9.299  0.00  0.00    +0.000 A 
ENDBRANCH  15  17
ENDBRANCH   1  15
TORSDOF 4
ENDMDL
MODEL 2
REMARK VINA RESULT:    -6.848      1.610      1.915
REMARK INTER + INTRA:          -9.181
REMARK INTER:                  -8.454
REMARK INTRA:                  -0.726
REMARK UNBOUND:                -0.732
REMARK  Name = 
REMARK  6 active torsions:
REMARK  status: ('A' for Active; 'I' for Inactive)
REMARK    1  A    between atoms: C_1  and  C_2
REMARK    2  A    between atoms: C_2  and  C_3
REMARK    3  A    between atoms: C_2  and  C_4
REMARK    4  A    between atoms: C_2  and  C_15
REMARK    5  A    between atoms: C_5  and  C_6
REMARK    6  A    between atoms: C_9  and  C_10
REMARK                            x       y       z     vdW  Elec       q    Type
REMARK                         _______ _______ _______ _____ _____    ______ ____
ROOT
ATOM      1  C   UNL     1      45.351   5.082  13.130  0.00  0.00    +0.000 C 
ATOM      2  C   UNL     1      46.581   5.522  13.443  0.00  0.00    +0.000 C 
ENDROOT
BRANCH   2   3
ATOM      3  C   UNL     1      47.278   5.058  14.643  0.00  0.00    +0.000 A 
ATOM      4  C   UNL     1      47.037   3.782  15.154  0.00  0.00    +0.000 A 
ATOM      5  C   UNL     1      47.705   3.361  16.303  0.00  0.00    +0.000 A 
ATOM      6  C   UNL     1      48.602   4.235  16.904  0.00  0.00    +0.000 A 
ATOM      7  N   UNL     1      48.874   5.485  16.431  0.00  0.00    +0.000 NA
ATOM      8  C   UNL     1      48.204   5.859  15.312  0.00  0.00    +0.000 A 
BRANCH   6   9
ATOM      9  C   UNL     1      49.325   3.813  18.148  0.00  0.00    +0.000 C 
ATOM     10  N   UNL     1      48.533   3.329  19.153  0.00  0.00    +0.000 N 
ATOM     11  O   UNL     1      50.541   3.890  18.265  0.00  0.00    +0.000 OA
ATOM     12  H   UNL     1      47.531   3.271  19.017  0.00  0.00    +0.000 HD
ATOM     13  H   UNL     1      48.956   3.016  20.015  0.00  0.00    +0.000 HD
ENDBRANCH   6   9
ENDBRANCH   2   3
BRANCH   1  15
ATOM     14  C   UNL     1      43.031   5.195  12.301  0.00  0.00    +0.000 C 
ATOM     15  C   UNL     1      44.500   5.484  11.918  0.00  0.00    +0.000 C 
ATOM     16  C   UNL     1      44.624   7.015  11.731  0.00  0.00    +0.000 C 
BRANCH  15  17
ATOM     17  C   UNL     1      44.933   4.792  10.604  0.00  0.00    +0.000 A 
ATOM     18  C   UNL     1      45.656   5.514   9.628  0.00  0.00    +0.000 A 
ATOM     19  C   UNL     1      46.059   4.913   8.429  0.00  0.00    +0.000 A 
ATOM     20  C   UNL     1      45.743   3.582   8.183  0.00  0.00    +0.000 A 
ATOM     21  F   UNL     1      46.142   3.025   7.031  0.00  0.00    +0.000 F 
ATOM     22  C   UNL     1      45.028   2.848   9.120  0.00  0.00    +0.000 A 
ATOM     23 CL   UNL     1      44.627   1.200   8.824  0.00  0.00    +0.000 Cl
ATOM     24  C   UNL     1      44.627   3.446  10.320  0.00  0.00    +0.000 A 
ENDBRANCH  15  17
ENDBRANCH   1  15
TORSDOF 4
ENDMDL
MODEL 3
REMARK VINA RESULT:    -6.588      1.983      2.466
REMARK INTER + INTRA:          -8.860
REMARK INTER:                  -8.225
REMARK INTRA:                  -0.635
REMARK UNBOUND:                -0.732
REMARK  Name = 
REMARK  6 active torsions:
REMARK  status: ('A' for Active; 'I' for Inactive)
REMARK    1  A    between atoms: C_1  and  C_2
REMARK    2  A    between atoms: C_2  and  C_3
REMARK    3  A    between atoms: C_2  and  C_4
REMARK    4  A    between atoms: C_2  and  C_15
REMARK    5  A    between atoms: C_5  and  C_6
REMARK    6  A    between atoms: C_9  and  C_10
REMARK                            x       y       z     vdW  Elec       q    Type
REMARK                         _______ _______ _______ _____ _____    ______ ____
ROOT
ATOM      1  C   UNL     1      45.616   5.215  11.241  0.00  0.00    +0.000 C 
ATOM      2  C   UNL     1      45.981   5.300  12.531  0.00  0.00    +0.000 C 
ENDROOT
BRANCH   2   3
ATOM      3  C   UNL     1      46.764   6.430  13.032  0.00  0.00    +0.000 A 
ATOM      4  C   UNL     1      46.231   7.719  13.030  0.00  0.00    +0.000 A 
ATOM      5  C   UNL     1      46.995   8.784  13.504  0.00  0.00    +0.000 A 
ATOM      6  C   UNL     1      48.276   8.520  13.974  0.00  0.00    +0.000 A 
ATOM      7  N   UNL     1      48.830   7.275  14.003  0.00  0.00    +0.000 NA
ATOM      8  C   UNL     1      48.056   6.265  13.533  0.00  0.00    +0.000 A 
BRANCH   6   9
ATOM      9  C   UNL     1      49.126   9.648  14.478  0.00  0.00    +0.000 C 
ATOM     10  N   UNL     1      48.442  10.700  15.024  0.00  0.00    +0.000 N 
ATOM     11  O   UNL     1      50.348   9.636  14.415  0.00  0.00    +0.000 OA
ATOM     12  H   UNL     1      47.430  10.672  15.069  0.00  0.00    +0.000 HD
ATOM     13  H   UNL     1      48.952  11.489  15.395  0.00  0.00    +0.000 HD
ENDBRANCH   6   9
ENDBRANCH   2   3
BRANCH   1  15
ATOM     14  C   UNL     1      44.573   3.020  11.663  0.00  0.00    +0.000 C 
ATOM     15  C   UNL     1      44.807   4.093  10.576  0.00  0.00    +0.000 C 
ATOM     16  C   UNL     1      43.418   4.662  10.199  0.00  0.00    +0.000 C 
BRANCH  15  17
ATOM     17  C   UNL     1      45.470   3.529   9.297  0.00  0.00    +0.000 A 
ATOM     18  C   UNL     1      45.863   4.401   8.259  0.00  0.00    +0.000 A 
ATOM     19  C   UNL     1      46.465   3.917   7.090  0.00  0.00    +0.000 A 
ATOM     20  C   UNL     1      46.678   2.553   6.939  0.00  0.00    +0.000 A 
ATOM     21  F   UNL     1      47.259   2.110   5.814  0.00  0.00    +0.000 F 
ATOM     22  C   UNL     1      46.296   1.668   7.938  0.00  0.00    +0.000 A 
ATOM     23 CL   UNL     1      46.552  -0.025   7.759  0.00  0.00    +0.000 Cl
ATOM     24  C   UNL     1      45.698   2.151   9.109  0.00  0.00    +0.000 A 
ENDBRANCH  15  17
ENDBRANCH   1  15
TORSDOF 4
ENDMDL
MODEL 4
REMARK VINA RESULT:    -6.471      1.977      2.957
REMARK INTER + INTRA:          -8.716
REMARK INTER:                  -8.030
REMARK INTRA:                  -0.686
REMARK UNBOUND:                -0.732
REMARK  Name = 
REMARK  6 active torsions:
REMARK  status: ('A' for Active; 'I' for Inactive)
REMARK    1  A    between atoms: C_1  and  C_2
REMARK    2  A    between atoms: C_2  and  C_3
REMARK    3  A    between atoms: C_2  and  C_4
REMARK    4  A    between atoms: C_2  and  C_15
REMARK    5  A    between atoms: C_5  and  C_6
REMARK    6  A    between atoms: C_9  and  C_10
REMARK                            x       y       z     vdW  Elec       q    Type
REMARK                         _______ _______ _______ _____ _____    ______ ____
ROOT
ATOM      1  C   UNL     1      46.204   5.701  13.312  0.00  0.00    +0.000 C 
ATOM      2  C   UNL     1      47.454   5.834  13.787  0.00  0.00    +0.000 C 
ENDROOT
BRANCH   2   3
ATOM      3  C   UNL     1      47.808   5.405  15.140  0.00  0.00    +0.000 A 
ATOM      4  C   UNL     1      47.207   4.280  15.708  0.00  0.00    +0.000 A 
ATOM      5  C   UNL     1      47.552   3.891  17.002  0.00  0.00    +0.000 A 
ATOM      6  C   UNL     1      48.498   4.643  17.687  0.00  0.00    +0.000 A 
ATOM      7  N   UNL     1      49.116   5.740  17.165  0.00  0.00    +0.000 NA
ATOM      8  C   UNL     1      48.754   6.088  15.905  0.00  0.00    +0.000 A 
BRANCH   6   9
ATOM      9  C   UNL     1      48.879   4.255  19.084  0.00  0.00    +0.000 C 
ATOM     10  N   UNL     1      48.270   3.129  19.569  0.00  0.00    +0.000 N 
ATOM     11  O   UNL     1      49.682   4.892  19.753  0.00  0.00    +0.000 OA
ATOM     12  H   UNL     1      47.618   2.621  18.984  0.00  0.00    +0.000 HD
ATOM     13  H   UNL     1      48.490   2.804  20.499  0.00  0.00    +0.000 HD
ENDBRANCH   6   9
ENDBRANCH   2   3
BRANCH   1  15
ATOM     14  C   UNL     1      44.534   7.110  12.169  0.00  0.00    +0.000 C 
ATOM     15  C   UNL     1      45.688   6.111  11.927  0.00  0.00    +0.000 C 
ATOM     16  C   UNL     1      46.814   6.892  11.207  0.00  0.00    +0.000 C 
BRANCH  15  17
ATOM     17  C   UNL     1      45.278   4.912  11.040  0.00  0.00    +0.000 A 
ATOM     18  C   UNL     1      44.519   3.854  11.586  0.00  0.00    +0.000 A 
ATOM     19  C   UNL     1      44.135   2.755  10.807  0.00  0.00    +0.000 A 
ATOM     20  C   UNL     1      44.506   2.695   9.469  0.00  0.00    +0.000 A 
ATOM     21  F   UNL     1      44.125   1.637   8.739  0.00  0.00    +0.000 F 
ATOM     22  C   UNL     1      45.259   3.716   8.904  0.00  0.00    +0.000 A 
ATOM     23 CL   UNL     1      45.728   3.650   7.249  0.00  0.00    +0.000 Cl
ATOM     24  C   UNL     1      45.641   4.816   9.682  0.00  0.00    +0.000 A 
ENDBRANCH  15  17
ENDBRANCH   1  15
TORSDOF 4
ENDMDL
MODEL 5
REMARK VINA RESULT:    -6.324      5.224      8.571
REMARK INTER + INTRA:          -8.534
REMARK INTER:                  -7.892
REMARK INTRA:                  -0.642
REMARK UNBOUND:                -0.732
REMARK  Name = 
REMARK  6 active torsions:
REMARK  status: ('A' for Active; 'I' for Inactive)
REMARK    1  A    between atoms: C_1  and  C_2
REMARK    2  A    between atoms: C_2  and  C_3
REMARK    3  A    between atoms: C_2  and  C_4
REMARK    4  A    between atoms: C_2  and  C_15
REMARK    5  A    between atoms: C_5  and  C_6
REMARK    6  A    between atoms: C_9  and  C_10
REMARK                            x       y       z     vdW  Elec       q    Type
REMARK                         _______ _______ _______ _____ _____    ______ ____
ROOT
ATOM      1  C   UNL     1      47.609   4.779  15.913  0.00  0.00    +0.000 C 
ATOM      2  C   UNL     1      47.626   5.409  14.726  0.00  0.00    +0.000 C 
ENDROOT
BRANCH   2   3
ATOM      3  C   UNL     1      46.737   5.011  13.635  0.00  0.00    +0.000 A 
ATOM      4  C   UNL     1      46.311   5.945  12.690  0.00  0.00    +0.000 A 
ATOM      5  C   UNL     1      45.458   5.548  11.661  0.00  0.00    +0.000 A 
ATOM      6  C   UNL     1      45.060   4.218  11.609  0.00  0.00    +0.000 A 
ATOM      7  N   UNL     1      45.462   3.271  12.506  0.00  0.00    +0.000 NA
ATOM      8  C   UNL     1      46.291   3.697  13.492  0.00  0.00    +0.000 A 
BRANCH   6   9
ATOM      9  C   UNL     1      44.133   3.764  10.522  0.00  0.00    +0.000 C 
ATOM     10  N   UNL     1      44.128   4.539   9.394  0.00  0.00    +0.000 N 
ATOM     11  O   UNL     1      43.428   2.770  10.624  0.00  0.00    +0.000 OA
ATOM     12  H   UNL     1      44.733   5.350   9.339  0.00  0.00    +0.000 HD
ATOM     13  H   UNL     1      43.536   4.285   8.616  0.00  0.00    +0.000 HD
ENDBRANCH   6   9
ENDBRANCH   2   3
BRANCH   1  15
ATOM     14  C   UNL     1      48.952   6.544  16.991  0.00  0.00    +0.000 C 
ATOM     15  C   UNL     1      48.482   5.079  17.138  0.00  0.00    +0.000 C 
ATOM     16  C   UNL     1      47.582   5.019  18.396  0.00  0.00    +0.000 C 
BRANCH  15  17
ATOM     17  C   UNL     1      49.650   4.082  17.323  0.00  0.00    +0.000 A 
ATOM     18  C   UNL     1      49.458   2.708  17.060  0.00  0.00    +0.000 A 
ATOM     19  C   UNL     1      50.498   1.783  17.220  0.00  0.00    +0.000 A 
ATOM     20  C   UNL     1      51.746   2.217  17.649  0.00  0.00    +0.000 A 
ATOM     21  F   UNL     1      52.729   1.316  17.792  0.00  0.00    +0.000 F 
ATOM     22  C   UNL     1      51.965   3.560  17.923  0.00  0.00    +0.000 A 
ATOM     23 CL   UNL     1      53.508   4.107  18.460  0.00  0.00    +0.000 Cl
ATOM     24  C   UNL     1      50.928   4.486  17.760  0.00  0.00    +0.000 A 
ENDBRANCH  15  17
ENDBRANCH   1  15
TORSDOF 4
ENDMDL
MODEL 6
REMARK VINA RESULT:    -6.296      4.901      8.211
REMARK INTER + INTRA:          -8.499
REMARK INTER:                  -7.782
REMARK INTRA:                  -0.718
REMARK UNBOUND:                -0.732
REMARK  Name = 
REMARK  6 active torsions:
REMARK  status: ('A' for Active; 'I' for Inactive)
REMARK    1  A    between atoms: C_1  and  C_2
REMARK    2  A    between atoms: C_2  and  C_3
REMARK    3  A    between atoms: C_2  and  C_4
REMARK    4  A    between atoms: C_2  and  C_15
REMARK    5  A    between atoms: C_5  and  C_6
REMARK    6  A    between atoms: C_9  and  C_10
REMARK                            x       y       z     vdW  Elec       q    Type
REMARK                         _______ _______ _______ _____ _____    ______ ____
ROOT
ATOM      1  C   UNL     1      47.177   4.006  15.902  0.00  0.00    +0.000 C 
ATOM      2  C   UNL     1      47.364   5.027  15.049  0.00  0.00    +0.000 C 
ENDROOT
BRANCH   2   3
ATOM      3  C   UNL     1      46.793   5.014  13.702  0.00  0.00    +0.000 A 
ATOM      4  C   UNL     1      46.042   3.924  13.260  0.00  0.00    +0.000 A 
ATOM      5  C   UNL     1      45.512   3.927  11.970  0.00  0.00    +0.000 A 
ATOM      6  C   UNL     1      45.748   5.032  11.162  0.00  0.00    +0.000 A 
ATOM      7  N   UNL     1      46.467   6.121  11.558  0.00  0.00    +0.000 NA
ATOM      8  C   UNL     1      46.967   6.081  12.819  0.00  0.00    +0.000 A 
BRANCH   6   9
ATOM      9  C   UNL     1      45.201   5.057   9.766  0.00  0.00    +0.000 C 
ATOM     10  N   UNL     1      43.853   4.851   9.660  0.00  0.00    +0.000 N 
ATOM     11  O   UNL     1      45.903   5.252   8.783  0.00  0.00    +0.000 OA
ATOM     12  H   UNL     1      43.301   4.703  10.496  0.00  0.00    +0.000 HD
ATOM     13  H   UNL     1      43.415   4.868   8.750  0.00  0.00    +0.000 HD
ENDBRANCH   6   9
ENDBRANCH   2   3
BRANCH   1  15
ATOM     14  C   UNL     1      47.146   5.075  18.123  0.00  0.00    +0.000 C 
ATOM     15  C   UNL     1      47.718   3.878  17.331  0.00  0.00    +0.000 C 
ATOM     16  C   UNL     1      47.119   2.596  17.958  0.00  0.00    +0.000 C 
BRANCH  15  17
ATOM     17  C   UNL     1      49.261   3.783  17.402  0.00  0.00    +0.000 A 
ATOM     18  C   UNL     1      50.041   4.959  17.454  0.00  0.00    +0.000 A 
ATOM     19  C   UNL     1      51.439   4.903  17.518  0.00  0.00    +0.000 A 
ATOM     20  C   UNL     1      52.080   3.671  17.526  0.00  0.00    +0.000 A 
ATOM     21  F   UNL     1      53.419   3.639  17.592  0.00  0.00    +0.000 F 
ATOM     22  C   UNL     1      51.342   2.496  17.469  0.00  0.00    +0.000 A 
ATOM     23 CL   UNL     1      52.127   0.963  17.474  0.00  0.00    +0.000 Cl
ATOM     24  C   UNL     1      49.944   2.551  17.409  0.00  0.00    +0.000 A 
ENDBRANCH  15  17
ENDBRANCH   1  15
TORSDOF 4
ENDMDL
MODEL 7
REMARK VINA RESULT:    -6.208      5.478      7.854
REMARK INTER + INTRA:          -8.392
REMARK INTER:                  -7.757
REMARK INTRA:                  -0.635
REMARK UNBOUND:                -0.732
REMARK  Name = 
REMARK  6 active torsions:
REMARK  status: ('A' for Active; 'I' for Inactive)
REMARK    1  A    between atoms: C_1  and  C_2
REMARK    2  A    between atoms: C_2  and  C_3
REMARK    3  A    between atoms: C_2  and  C_4
REMARK    4  A    between atoms: C_2  and  C_15
REMARK    5  A    between atoms: C_5  and  C_6
REMARK    6  A    between atoms: C_9  and  C_10
REMARK                            x       y       z     vdW  Elec       q    Type
REMARK                         _______ _______ _______ _____ _____    ______ ____
ROOT
ATOM      1  C   UNL     1      45.279   5.032  11.373  0.00  0.00    +0.000 C 
ATOM      2  C   UNL     1      44.733   4.760  10.176  0.00  0.00    +0.000 C 
ENDROOT
BRANCH   2   3
ATOM      3  C   UNL     1      45.401   3.887   9.211  0.00  0.00    +0.000 A 
ATOM      4  C   UNL     1      46.025   4.421   8.083  0.00  0.00    +0.000 A 
ATOM      5  C   UNL     1      46.649   3.572   7.170  0.00  0.00    +0.000 A 
ATOM      6  C   UNL     1      46.632   2.206   7.421  0.00  0.00    +0.000 A 
ATOM      7  N   UNL     1      46.043   1.644   8.515  0.00  0.00    +0.000 NA
ATOM      8  C   UNL     1      45.445   2.503   9.379  0.00  0.00    +0.000 A 
BRANCH   6   9
ATOM      9  C   UNL     1      47.285   1.267   6.451  0.00  0.00    +0.000 C 
ATOM     10  N   UNL     1      48.289   1.808   5.695  0.00  0.00    +0.000 N 
ATOM     11  O   UNL     1      46.952   0.095   6.337  0.00  0.00    +0.000 OA
ATOM     12  H   UNL     1      48.545   2.780   5.823  0.00  0.00    +0.000 HD
ATOM     13  H   UNL     1      48.780   1.229   5.030  0.00  0.00    +0.000 HD
ENDBRANCH   6   9
ENDBRANCH   2   3
BRANCH   1  15
ATOM     14  C   UNL     1      43.245   5.468  12.698  0.00  0.00    +0.000 C 
ATOM     15  C   UNL     1      44.703   5.930  12.476  0.00  0.00    +0.000 C 
ATOM     16  C   UNL     1      45.473   5.635  13.786  0.00  0.00    +0.000 C 
BRANCH  15  17
ATOM     17  C   UNL     1      44.821   7.441  12.166  0.00  0.00    +0.000 A 
ATOM     18  C   UNL     1      45.825   8.215  12.789  0.00  0.00    +0.000 A 
ATOM     19  C   UNL     1      45.955   9.585  12.528  0.00  0.00    +0.000 A 
ATOM     20  C   UNL     1      45.080  10.204  11.644  0.00  0.00    +0.000 A 
ATOM     21  F   UNL     1      45.223  11.516  11.405  0.00  0.00    +0.000 F 
ATOM     22  C   UNL     1      44.078   9.472  11.021  0.00  0.00    +0.000 A 
ATOM     23 CL   UNL     1      42.985  10.230   9.927  0.00  0.00    +0.000 Cl
ATOM     24  C   UNL     1      43.949   8.102  11.279  0.00  0.00    +0.000 A 
ENDBRANCH  15  17
ENDBRANCH   1  15
TORSDOF 4
ENDMDL
MODEL 8
REMARK VINA RESULT:    -5.991      5.303      7.528
REMARK INTER + INTRA:          -8.123
REMARK INTER:                  -7.465
REMARK INTRA:                  -0.658
REMARK UNBOUND:                -0.732
REMARK  Name = 
REMARK  6 active torsions:
REMARK  status: ('A' for Active; 'I' for Inactive)
REMARK    1  A    between atoms: C_1  and  C_2
REMARK    2  A    between atoms: C_2  and  C_3
REMARK    3  A    between atoms: C_2  and  C_4
REMARK    4  A    between atoms: C_2  and  C_15
REMARK    5  A    between atoms: C_5  and  C_6
REMARK    6  A    between atoms: C_9  and  C_10
REMARK                            x       y       z     vdW  Elec       q    Type
REMARK                         _______ _______ _______ _____ _____    ______ ____
ROOT
ATOM      1  C   UNL     1      48.206   7.809  11.783  0.00  0.00    +0.000 C 
ATOM      2  C   UNL     1      47.311   7.217  12.591  0.00  0.00    +0.000 C 
ENDROOT
BRANCH   2   3
ATOM      3  C   UNL     1      46.478   6.106  12.129  0.00  0.00    +0.000 A 
ATOM      4  C   UNL     1      45.923   6.121  10.849  0.00  0.00    +0.000 A 
ATOM      5  C   UNL     1      45.126   5.057  10.428  0.00  0.00    +0.000 A 
ATOM      6  C   UNL     1      44.915   4.002  11.308  0.00  0.00    +0.000 A 
ATOM      7  N   UNL     1      45.447   3.944  12.563  0.00  0.00    +0.000 NA
ATOM      8  C   UNL     1      46.216   4.998  12.935  0.00  0.00    +0.000 A 
BRANCH   6   9
ATOM      9  C   UNL     1      44.052   2.850  10.888  0.00  0.00    +0.000 C 
ATOM     10  N   UNL     1      44.541   2.096   9.857  0.00  0.00    +0.000 N 
ATOM     11  O   UNL     1      42.984   2.591  11.427  0.00  0.00    +0.000 OA
ATOM     12  H   UNL     1      45.434   2.333   9.441  0.00  0.00    +0.000 HD
ATOM     13  H   UNL     1      44.017   1.296   9.531  0.00  0.00    +0.000 HD
ENDBRANCH   6   9
ENDBRANCH   2   3
BRANCH   1  15
ATOM     14  C   UNL     1      48.320  10.271  11.874  0.00  0.00    +0.000 C 
ATOM     15  C   UNL     1      49.134   8.981  12.124  0.00  0.00    +0.000 C 
ATOM     16  C   UNL     1      49.437   8.927  13.642  0.00  0.00    +0.000 C 
BRANCH  15  17
ATOM     17  C   UNL     1      50.476   8.951  11.355  0.00  0.00    +0.000 A 
ATOM     18  C   UNL     1      51.106  10.158  10.981  0.00  0.00    +0.000 A 
ATOM     19  C   UNL     1      52.320  10.160  10.283  0.00  0.00    +0.000 A 
ATOM     20  C   UNL     1      52.923   8.955   9.945  0.00  0.00    +0.000 A 
ATOM     21  F   UNL     1      54.088   8.979   9.280  0.00  0.00    +0.000 F 
ATOM     22  C   UNL     1      52.326   7.751  10.293  0.00  0.00    +0.000 A 
ATOM     23 CL   UNL     1      53.062   6.251   9.874  0.00  0.00    +0.000 Cl
ATOM     24  C   UNL     1      51.114   7.748  10.993  0.00  0.00    +0.000 A 
ENDBRANCH  15  17
ENDBRANCH   1  15
TORSDOF 4
ENDMDL
MODEL 9
REMARK VINA RESULT:    -5.696      5.237      8.734
REMARK INTER + INTRA:          -7.760
REMARK INTER:                  -7.063
REMARK INTRA:                  -0.697
REMARK UNBOUND:                -0.732
REMARK  Name = 
REMARK  6 active torsions:
REMARK  status: ('A' for Active; 'I' for Inactive)
REMARK    1  A    between atoms: C_1  and  C_2
REMARK    2  A    between atoms: C_2  and  C_3
REMARK    3  A    between atoms: C_2  and  C_4
REMARK    4  A    between atoms: C_2  and  C_15
REMARK    5  A    between atoms: C_5  and  C_6
REMARK    6  A    between atoms: C_9  and  C_10
REMARK                            x       y       z     vdW  Elec       q    Type
REMARK                         _______ _______ _______ _____ _____    ______ ____
ROOT
ATOM      1  C   UNL     1      48.196   6.615  14.426  0.00  0.00    +0.000 C 
ATOM      2  C   UNL     1      47.242   7.117  13.624  0.00  0.00    +0.000 C 
ENDROOT
BRANCH   2   3
ATOM      3  C   UNL     1      46.470   6.260  12.724  0.00  0.00    +0.000 A 
ATOM      4  C   UNL     1      45.996   5.021  13.156  0.00  0.00    +0.000 A 
ATOM      5  C   UNL     1      45.268   4.216  12.281  0.00  0.00    +0.000 A 
ATOM      6  C   UNL     1      45.032   4.684  10.995  0.00  0.00    +0.000 A 
ATOM      7  N   UNL     1      45.468   5.892  10.536  0.00  0.00    +0.000 NA
ATOM      8  C   UNL     1      46.173   6.646  11.416  0.00  0.00    +0.000 A 
BRANCH   6   9
ATOM      9  C   UNL     1      44.263   3.834  10.028  0.00  0.00    +0.000 C 
ATOM     10  N   UNL     1      44.103   4.364   8.777  0.00  0.00    +0.000 N 
ATOM     11  O   UNL     1      43.807   2.738  10.327  0.00  0.00    +0.000 OA
ATOM     12  H   UNL     1      44.503   5.270   8.562  0.00  0.00    +0.000 HD
ATOM     13  H   UNL     1      43.606   3.840   8.072  0.00  0.00    +0.000 HD
ENDBRANCH   6   9
ENDBRANCH   2   3
BRANCH   1  15
ATOM     14  C   UNL     1      50.463   7.540  14.722  0.00  0.00    +0.000 C 
ATOM     15  C   UNL     1      49.086   7.387  15.408  0.00  0.00    +0.000 C 
ATOM     16  C   UNL     1      48.502   8.811  15.567  0.00  0.00    +0.000 C 
BRANCH  15  17
ATOM     17  C   UNL     1      49.174   6.733  16.807  0.00  0.00    +0.000 A 
ATOM     18  C   UNL     1      49.643   7.479  17.910  0.00  0.00    +0.000 A 
ATOM     19  C   UNL     1      49.734   6.912  19.188  0.00  0.00    +0.000 A 
ATOM     20  C   UNL     1      49.360   5.588  19.383  0.00  0.00    +0.000 A 
ATOM     21  F   UNL     1      49.450   5.066  20.614  0.00  0.00    +0.000 F 
ATOM     22  C   UNL     1      48.901   4.826  18.317  0.00  0.00    +0.000 A 
ATOM     23 CL   UNL     1      48.439   3.182  18.547  0.00  0.00    +0.000 Cl
ATOM     24  C   UNL     1      48.807   5.392  17.040  0.00  0.00    +0.000 A 
ENDBRANCH  15  17
ENDBRANCH   1  15
TORSDOF 4
ENDMDL
