MODEL 1
REMARK VINA RESULT:    -7.989      0.000      0.000
REMARK INTER + INTRA:         -10.445
REMARK INTER:                 -10.090
REMARK INTRA:                  -0.355
REMARK UNBOUND:                -0.355
REMARK  Name = 
REMARK  5 active torsions:
REMARK  status: ('A' for Active; 'I' for Inactive)
REMARK    1  A    between atoms: C_2  and  O_3
REMARK    2  A    between atoms: C_2  and  C_4
REMARK    3  A    between atoms: C_4  and  C_5
REMARK    4  A    between atoms: C_8  and  C_9
REMARK    5  A    between atoms: C_9  and  N_10
REMARK                            x       y       z     vdW  Elec       q    Type
REMARK                         _______ _______ _______ _____ _____    ______ ____
ROOT
ATOM      1  C   UNL     1      45.960   2.436   8.184  0.00  0.00    +0.000 A 
ATOM      2  C   UNL     1      45.059   1.914   9.094  0.00  0.00    +0.000 A 
ATOM      3  C   UNL     1      44.275   2.752   9.900  0.00  0.00    +0.000 A 
ATOM      4  C   UNL     1      44.395   4.144   9.796  0.00  0.00    +0.000 A 
ATOM      5  C   UNL     1      45.304   4.676   8.876  0.00  0.00    +0.000 A 
ATOM      6  C   UNL     1      46.073   3.829   8.065  0.00  0.00    +0.000 A 
ENDROOT
BRANCH   1   7
ATOM      7  C   UNL     1      46.820   1.526   7.335  0.00  0.00    +0.000 C 
BRANCH   7   9
ATOM      8  O   UNL     1      46.703   2.834   5.337  0.00  0.00    +0.000 OA
ATOM      9  C   UNL     1      47.376   2.097   6.058  0.00  0.00    +0.000 C 
BRANCH   9  10
ATOM     10  O   UNL     1      48.645   1.788   5.752  0.00  0.00    +0.000 OA
ATOM     11  H   UNL     1      48.796   1.513   4.833  0.00  0.00    +0.000 HD
ENDBRANCH   9  10
ENDBRANCH   7   9
ENDBRANCH   1   7
BRANCH   4  12
ATOM     12  C   UNL     1      43.533   5.051  10.647  0.00  0.00    +0.000 C 
BRANCH  12  13
ATOM     13  N   UNL     1      44.298   5.933  11.531  0.00  0.00    +0.000 N 
ATOM     14  C   UNL     1      44.470   7.280  11.300  0.00  0.00    +0.000 A 
ATOM     15  C   UNL     1      45.231   7.770  12.338  0.00  0.00    +0.000 A 
ATOM     16  C   UNL     1      45.957   6.655  12.818  0.00  0.00    +0.000 A 
ATOM     17  C   UNL     1      47.183   6.501  13.492  0.00  0.00    +0.000 A 
ATOM     18  C   UNL     1      47.586   5.217  13.869  0.00  0.00    +0.000 A 
ATOM     19  C   UNL     1      46.738   4.131  13.698  0.00  0.00    +0.000 A 
ATOM     20  C   UNL     1      45.520   4.259  13.012  0.00  0.00    +0.000 A 
ATOM     21  C   UNL     1      45.215   5.514  12.472  0.00  0.00    +0.000 A 
ENDBRANCH  12  13
ENDBRANCH   4  12
TORSDOF 5
ENDMDL
MODEL 2
REMARK VINA RESULT:    -7.740      1.244      2.452
REMARK INTER + INTRA:         -10.132
REMARK INTER:                  -9.511
REMARK INTRA:                  -0.620
REMARK UNBOUND:                -0.355
REMARK  Name = 
REMARK  5 active torsions:
REMARK  status: ('A' for Active; 'I' for Inactive)
REMARK    1  A    between atoms: C_2  and  O_3
REMARK    2  A    between atoms: C_2  and  C_4
REMARK    3  A    between atoms: C_4  and  C_5
REMARK    4  A    between atoms: C_8  and  C_9
REMARK    5  A    between atoms: C_9  and  N_10
REMARK                            x       y       z     vdW  Elec       q    Type
REMARK                         _______ _______ _______ _____ _____    ______ ____
ROOT
ATOM      1  C   UNL     1      45.912   3.226   7.526  0.00  0.00    +0.000 A 
ATOM      2  C   UNL     1      46.369   4.510   7.765  0.00  0.00    +0.000 A 
ATOM      3  C   UNL     1      46.005   5.204   8.928  0.00  0.00    +0.000 A 
ATOM      4  C   UNL     1      45.162   4.603   9.873  0.00  0.00    +0.000 A 
ATOM      5  C   UNL     1      44.699   3.306   9.636  0.00  0.00    +0.000 A 
ATOM      6  C   UNL     1      45.081   2.615   8.476  0.00  0.00    +0.000 A 
ENDROOT
BRANCH   1   7
ATOM      7  C   UNL     1      46.290   2.493   6.259  0.00  0.00    +0.000 C 
BRANCH   7   9
ATOM      8  O   UNL     1      48.337   1.432   6.891  0.00  0.00    +0.000 OA
ATOM      9  C   UNL     1      47.740   2.136   6.075  0.00  0.00    +0.000 C 
BRANCH   9  10
ATOM     10  O   UNL     1      48.349   2.596   4.973  0.00  0.00    +0.000 OA
ATOM     11  H   UNL     1      48.317   3.560   4.850  0.00  0.00    +0.000 HD
ENDBRANCH   9  10
ENDBRANCH   7   9
ENDBRANCH   1   7
BRANCH   4  12
ATOM     12  C   UNL     1      44.787   5.340  11.140  0.00  0.00    +0.000 C 
BRANCH  12  13
ATOM     13  N   UNL     1      45.770   5.201  12.216  0.00  0.00    +0.000 N 
ATOM     14  C   UNL     1      45.542   4.481  13.368  0.00  0.00    +0.000 A 
ATOM     15  C   UNL     1      46.684   4.572  14.132  0.00  0.00    +0.000 A 
ATOM     16  C   UNL     1      47.308   5.771  13.713  0.00  0.00    +0.000 A 
ATOM     17  C   UNL     1      48.188   6.683  14.326  0.00  0.00    +0.000 A 
ATOM     18  C   UNL     1      48.659   7.767  13.581  0.00  0.00    +0.000 A 
ATOM     19  C   UNL     1      48.368   7.873  12.227  0.00  0.00    +0.000 A 
ATOM     20  C   UNL     1      47.478   6.987  11.601  0.00  0.00    +0.000 A 
ATOM     21  C   UNL     1      46.865   6.018  12.404  0.00  0.00    +0.000 A 
ENDBRANCH  12  13
ENDBRANCH   4  12
TORSDOF 5
ENDMDL
MODEL 3
REMARK VINA RESULT:    -7.510      1.119      1.831
REMARK INTER + INTRA:          -9.841
REMARK INTER:                  -9.394
REMARK INTRA:                  -0.446
REMARK UNBOUND:                -0.355
REMARK  Name = 
REMARK  5 active torsions:
REMARK  status: ('A' for Active; 'I' for Inactive)
REMARK    1  A    between atoms: C_2  and  O_3
REMARK    2  A    between atoms: C_2  and  C_4
REMARK    3  A    between atoms: C_4  and  C_5
REMARK    4  A    between atoms: C_8  and  C_9
REMARK    5  A    between atoms: C_9  and  N_10
REMARK                            x       y       z     vdW  Elec       q    Type
REMARK                         _______ _______ _______ _____ _____    ______ ____
ROOT
ATOM      1  C   UNL     1      45.837   3.232   7.892  0.00  0.00    +0.000 A 
ATOM      2  C   UNL     1      46.095   4.547   8.234  0.00  0.00    +0.000 A 
ATOM      3  C   UNL     1      45.549   5.115   9.393  0.00  0.00    +0.000 A 
ATOM      4  C   UNL     1      44.721   4.354  10.229  0.00  0.00    +0.000 A 
ATOM      5  C   UNL     1      44.458   3.024   9.888  0.00  0.00    +0.000 A 
ATOM      6  C   UNL     1      45.022   2.461   8.733  0.00  0.00    +0.000 A 
ENDROOT
BRANCH   1   7
ATOM      7  C   UNL     1      46.411   2.633   6.627  0.00  0.00    +0.000 C 
BRANCH   7   9
ATOM      8  O   UNL     1      47.921   0.865   7.185  0.00  0.00    +0.000 OA
ATOM      9  C   UNL     1      47.771   1.996   6.722  0.00  0.00    +0.000 C 
BRANCH   9  10
ATOM     10  O   UNL     1      48.812   2.704   6.258  0.00  0.00    +0.000 OA
ATOM     11  H   UNL     1      49.552   2.811   6.877  0.00  0.00    +0.000 HD
ENDBRANCH   9  10
ENDBRANCH   7   9
ENDBRANCH   1   7
BRANCH   4  12
ATOM     12  C   UNL     1      44.149   4.957  11.493  0.00  0.00    +0.000 C 
BRANCH  12  13
ATOM     13  N   UNL     1      44.693   6.278  11.815  0.00  0.00    +0.000 N 
ATOM     14  C   UNL     1      44.184   7.455  11.312  0.00  0.00    +0.000 A 
ATOM     15  C   UNL     1      44.942   8.477  11.837  0.00  0.00    +0.000 A 
ATOM     16  C   UNL     1      46.188   7.886  12.148  0.00  0.00    +0.000 A 
ATOM     17  C   UNL     1      47.503   8.374  12.262  0.00  0.00    +0.000 A 
ATOM     18  C   UNL     1      48.518   7.493  12.645  0.00  0.00    +0.000 A 
ATOM     19  C   UNL     1      48.216   6.193  13.029  0.00  0.00    +0.000 A 
ATOM     20  C   UNL     1      46.916   5.679  12.905  0.00  0.00    +0.000 A 
ATOM     21  C   UNL     1      45.946   6.516  12.340  0.00  0.00    +0.000 A 
ENDBRANCH  12  13
ENDBRANCH   4  12
TORSDOF 5
ENDMDL
MODEL 4
REMARK VINA RESULT:    -7.324      3.638      6.679
REMARK INTER + INTRA:          -9.606
REMARK INTER:                  -9.599
REMARK INTRA:                  -0.007
REMARK UNBOUND:                -0.355
REMARK  Name = 
REMARK  5 active torsions:
REMARK  status: ('A' for Active; 'I' for Inactive)
REMARK    1  A    between atoms: C_2  and  O_3
REMARK    2  A    between atoms: C_2  and  C_4
REMARK    3  A    between atoms: C_4  and  C_5
REMARK    4  A    between atoms: C_8  and  C_9
REMARK    5  A    between atoms: C_9  and  N_10
REMARK                            x       y       z     vdW  Elec       q    Type
REMARK                         _______ _______ _______ _____ _____    ______ ____
ROOT
ATOM      1  C   UNL     1      46.874   5.123  13.927  0.00  0.00    +0.000 A 
ATOM      2  C   UNL     1      45.939   4.164  13.583  0.00  0.00    +0.000 A 
ATOM      3  C   UNL     1      45.342   4.156  12.315  0.00  0.00    +0.000 A 
ATOM      4  C   UNL     1      45.684   5.132  11.368  0.00  0.00    +0.000 A 
ATOM      5  C   UNL     1      46.629   6.102  11.712  0.00  0.00    +0.000 A 
ATOM      6  C   UNL     1      47.232   6.092  12.978  0.00  0.00    +0.000 A 
ENDROOT
BRANCH   1   7
ATOM      7  C   UNL     1      47.497   5.138  15.305  0.00  0.00    +0.000 C 
BRANCH   7   9
ATOM      8  O   UNL     1      46.730   3.697  17.052  0.00  0.00    +0.000 OA
ATOM      9  C   UNL     1      47.478   3.852  16.085  0.00  0.00    +0.000 C 
BRANCH   9  10
ATOM     10  O   UNL     1      48.291   2.871  15.668  0.00  0.00    +0.000 OA
ATOM     11  H   UNL     1      48.653   2.981  14.773  0.00  0.00    +0.000 HD
ENDBRANCH   9  10
ENDBRANCH   7   9
ENDBRANCH   1   7
BRANCH   4  12
ATOM     12  C   UNL     1      45.059   5.112   9.990  0.00  0.00    +0.000 C 
BRANCH  12  13
ATOM     13  N   UNL     1      44.998   3.778   9.389  0.00  0.00    +0.000 N 
ATOM     14  C   UNL     1      44.373   2.703   9.982  0.00  0.00    +0.000 A 
ATOM     15  C   UNL     1      44.516   1.634   9.126  0.00  0.00    +0.000 A 
ATOM     16  C   UNL     1      45.672   1.927   8.366  0.00  0.00    +0.000 A 
ATOM     17  C   UNL     1      46.623   1.141   7.687  0.00  0.00    +0.000 A 
ATOM     18  C   UNL     1      47.641   1.782   6.977  0.00  0.00    +0.000 A 
ATOM     19  C   UNL     1      47.642   3.163   6.835  0.00  0.00    +0.000 A 
ATOM     20  C   UNL     1      46.716   3.967   7.518  0.00  0.00    +0.000 A 
ATOM     21  C   UNL     1      45.819   3.323   8.379  0.00  0.00    +0.000 A 
ENDBRANCH  12  13
ENDBRANCH   4  12
TORSDOF 5
ENDMDL
MODEL 5
REMARK VINA RESULT:    -6.968      3.508      6.583
REMARK INTER + INTRA:          -9.156
REMARK INTER:                  -8.614
REMARK INTRA:                  -0.542
REMARK UNBOUND:                -0.355
REMARK  Name = 
REMARK  5 active torsions:
REMARK  status: ('A' for Active; 'I' for Inactive)
REMARK    1  A    between atoms: C_2  and  O_3
REMARK    2  A    between atoms: C_2  and  C_4
REMARK    3  A    between atoms: C_4  and  C_5
REMARK    4  A    between atoms: C_8  and  C_9
REMARK    5  A    between atoms: C_9  and  N_10
REMARK                            x       y       z     vdW  Elec       q    Type
REMARK                         _______ _______ _______ _____ _____    ______ ____
ROOT
ATOM      1  C   UNL     1      46.980   5.855  13.312  0.00  0.00    +0.000 A 
ATOM      2  C   UNL     1      47.089   6.515  12.101  0.00  0.00    +0.000 A 
ATOM      3  C   UNL     1      46.241   6.205  11.028  0.00  0.00    +0.000 A 
ATOM      4  C   UNL     1      45.263   5.212  11.166  0.00  0.00    +0.000 A 
ATOM      5  C   UNL     1      45.148   4.543  12.388  0.00  0.00    +0.000 A 
ATOM      6  C   UNL     1      45.992   4.870  13.460  0.00  0.00    +0.000 A 
ENDROOT
BRANCH   1   7
ATOM      7  C   UNL     1      47.913   6.178  14.457  0.00  0.00    +0.000 C 
BRANCH   7   9
ATOM      8  O   UNL     1      48.527   8.487  14.527  0.00  0.00    +0.000 OA
ATOM      9  C   UNL     1      48.862   7.330  14.269  0.00  0.00    +0.000 C 
BRANCH   9  10
ATOM     10  O   UNL     1      50.096   7.042  13.832  0.00  0.00    +0.000 OA
ATOM     11  H   UNL     1      50.138   6.470  13.048  0.00  0.00    +0.000 HD
ENDBRANCH   9  10
ENDBRANCH   7   9
ENDBRANCH   1   7
BRANCH   4  12
ATOM     12  C   UNL     1      44.331   4.892  10.017  0.00  0.00    +0.000 C 
BRANCH  12  13
ATOM     13  N   UNL     1      44.580   3.587   9.402  0.00  0.00    +0.000 N 
ATOM     14  C   UNL     1      44.207   2.391   9.974  0.00  0.00    +0.000 A 
ATOM     15  C   UNL     1      44.598   1.393   9.109  0.00  0.00    +0.000 A 
ATOM     16  C   UNL     1      45.666   1.950   8.368  0.00  0.00    +0.000 A 
ATOM     17  C   UNL     1      46.777   1.409   7.694  0.00  0.00    +0.000 A 
ATOM     18  C   UNL     1      47.631   2.272   7.004  0.00  0.00    +0.000 A 
ATOM     19  C   UNL     1      47.322   3.620   6.877  0.00  0.00    +0.000 A 
ATOM     20  C   UNL     1      46.230   4.184   7.556  0.00  0.00    +0.000 A 
ATOM     21  C   UNL     1      45.493   3.343   8.397  0.00  0.00    +0.000 A 
ENDBRANCH  12  13
ENDBRANCH   4  12
TORSDOF 5
ENDMDL
MODEL 6
REMARK VINA RESULT:    -6.139      3.899      6.654
REMARK INTER + INTRA:          -8.109
REMARK INTER:                  -7.462
REMARK INTRA:                  -0.647
REMARK UNBOUND:                -0.355
REMARK  Name = 
REMARK  5 active torsions:
REMARK  status: ('A' for Active; 'I' for Inactive)
REMARK    1  A    between atoms: C_2  and  O_3
REMARK    2  A    between atoms: C_2  and  C_4
REMARK    3  A    between atoms: C_4  and  C_5
REMARK    4  A    between atoms: C_8  and  C_9
REMARK    5  A    between atoms: C_9  and  N_10
REMARK                            x       y       z     vdW  Elec       q    Type
REMARK                         _______ _______ _______ _____ _____    ______ ____
ROOT
ATOM      1  C   UNL     1      47.909   7.573  13.422  0.00  0.00    +0.000 A 
ATOM      2  C   UNL     1      47.879   6.562  12.478  0.00  0.00    +0.000 A 
ATOM      3  C   UNL     1      46.719   6.299  11.735  0.00  0.00    +0.000 A 
ATOM      4  C   UNL     1      45.561   7.061  11.941  0.00  0.00    +0.000 A 
ATOM      5  C   UNL     1      45.588   8.084  12.893  0.00  0.00    +0.000 A 
ATOM      6  C   UNL     1      46.758   8.349  13.621  0.00  0.00    +0.000 A 
ENDROOT
BRANCH   1   7
ATOM      7  C   UNL     1      49.156   7.836  14.236  0.00  0.00    +0.000 C 
BRANCH   7   9
ATOM      8  O   UNL     1      50.525   6.557  15.722  0.00  0.00    +0.000 OA
ATOM      9  C   UNL     1      49.396   6.957  15.433  0.00  0.00    +0.000 C 
BRANCH   9  10
ATOM     10  O   UNL     1      48.331   6.647  16.188  0.00  0.00    +0.000 OA
ATOM     11  H   UNL     1      47.929   7.390  16.667  0.00  0.00    +0.000 HD
ENDBRANCH   9  10
ENDBRANCH   7   9
ENDBRANCH   1   7
BRANCH   4  12
ATOM     12  C   UNL     1      44.316   6.795  11.124  0.00  0.00    +0.000 C 
BRANCH  12  13
ATOM     13  N   UNL     1      43.933   5.383  11.075  0.00  0.00    +0.000 N 
ATOM     14  C   UNL     1      43.488   4.675  12.170  0.00  0.00    +0.000 A 
ATOM     15  C   UNL     1      43.221   3.395  11.739  0.00  0.00    +0.000 A 
ATOM     16  C   UNL     1      44.036   3.217  10.596  0.00  0.00    +0.000 A 
ATOM     17  C   UNL     1      44.605   2.095   9.965  0.00  0.00    +0.000 A 
ATOM     18  C   UNL     1      45.337   2.284   8.790  0.00  0.00    +0.000 A 
ATOM     19  C   UNL     1      45.395   3.534   8.187  0.00  0.00    +0.000 A 
ATOM     20  C   UNL     1      44.851   4.669   8.809  0.00  0.00    +0.000 A 
ATOM     21  C   UNL     1      44.286   4.497  10.078  0.00  0.00    +0.000 A 
ENDBRANCH  12  13
ENDBRANCH   4  12
TORSDOF 5
ENDMDL
MODEL 7
REMARK VINA RESULT:    -6.019      2.151      3.654
REMARK INTER + INTRA:          -7.958
REMARK INTER:                  -7.412
REMARK INTRA:                  -0.546
REMARK UNBOUND:                -0.355
REMARK  Name = 
REMARK  5 active torsions:
REMARK  status: ('A' for Active; 'I' for Inactive)
REMARK    1  A    between atoms: C_2  and  O_3
REMARK    2  A    between atoms: C_2  and  C_4
REMARK    3  A    between atoms: C_4  and  C_5
REMARK    4  A    between atoms: C_8  and  C_9
REMARK    5  A    between atoms: C_9  and  N_10
REMARK                            x       y       z     vdW  Elec       q    Type
REMARK                         _______ _______ _______ _____ _____    ______ ____
ROOT
ATOM      1  C   UNL     1      44.992   3.265   9.841  0.00  0.00    +0.000 A 
ATOM      2  C   UNL     1      45.168   4.591   9.490  0.00  0.00    +0.000 A 
ATOM      3  C   UNL     1      45.284   5.590  10.467  0.00  0.00    +0.000 A 
ATOM      4  C   UNL     1      45.218   5.257  11.827  0.00  0.00    +0.000 A 
ATOM      5  C   UNL     1      45.041   3.918  12.186  0.00  0.00    +0.000 A 
ATOM      6  C   UNL     1      44.941   2.925  11.200  0.00  0.00    +0.000 A 
ENDROOT
BRANCH   1   7
ATOM      7  C   UNL     1      44.844   2.196   8.781  0.00  0.00    +0.000 C 
BRANCH   7   9
ATOM      8  O   UNL     1      46.352   0.441   8.180  0.00  0.00    +0.000 OA
ATOM      9  C   UNL     1      46.107   1.648   8.174  0.00  0.00    +0.000 C 
BRANCH   9  10
ATOM     10  O   UNL     1      46.944   2.527   7.604  0.00  0.00    +0.000 OA
ATOM     11  H   UNL     1      47.060   2.430   6.644  0.00  0.00    +0.000 HD
ENDBRANCH   9  10
ENDBRANCH   7   9
ENDBRANCH   1   7
BRANCH   4  12
ATOM     12  C   UNL     1      45.367   6.329  12.884  0.00  0.00    +0.000 C 
BRANCH  12  13
ATOM     13  N   UNL     1      46.737   6.824  13.035  0.00  0.00    +0.000 N 
ATOM     14  C   UNL     1      47.685   6.212  13.824  0.00  0.00    +0.000 A 
ATOM     15  C   UNL     1      48.841   6.952  13.710  0.00  0.00    +0.000 A 
ATOM     16  C   UNL     1      48.409   8.250  13.350  0.00  0.00    +0.000 A 
ATOM     17  C   UNL     1      48.945   9.541  13.514  0.00  0.00    +0.000 A 
ATOM     18  C   UNL     1      48.254  10.630  12.977  0.00  0.00    +0.000 A 
ATOM     19  C   UNL     1      47.130  10.432  12.186  0.00  0.00    +0.000 A 
ATOM     20  C   UNL     1      46.567   9.156  12.026  0.00  0.00    +0.000 A 
ATOM     21  C   UNL     1      47.161   8.099  12.726  0.00  0.00    +0.000 A 
ENDBRANCH  12  13
ENDBRANCH   4  12
TORSDOF 5
ENDMDL
MODEL 8
REMARK VINA RESULT:    -5.717      2.886      4.688
REMARK INTER + INTRA:          -7.576
REMARK INTER:                  -6.953
REMARK INTRA:                  -0.623
REMARK UNBOUND:                -0.355
REMARK  Name = 
REMARK  5 active torsions:
REMARK  status: ('A' for Active; 'I' for Inactive)
REMARK    1  A    between atoms: C_2  and  O_3
REMARK    2  A    between atoms: C_2  and  C_4
REMARK    3  A    between atoms: C_4  and  C_5
REMARK    4  A    between atoms: C_8  and  C_9
REMARK    5  A    between atoms: C_9  and  N_10
REMARK                            x       y       z     vdW  Elec       q    Type
REMARK                         _______ _______ _______ _____ _____    ______ ____
ROOT
ATOM      1  C   UNL     1      44.937   4.205  11.235  0.00  0.00    +0.000 A 
ATOM      2  C   UNL     1      44.955   5.445  10.622  0.00  0.00    +0.000 A 
ATOM      3  C   UNL     1      45.483   6.568  11.274  0.00  0.00    +0.000 A 
ATOM      4  C   UNL     1      46.003   6.452  12.570  0.00  0.00    +0.000 A 
ATOM      5  C   UNL     1      45.988   5.201  13.193  0.00  0.00    +0.000 A 
ATOM      6  C   UNL     1      45.470   4.081  12.527  0.00  0.00    +0.000 A 
ENDROOT
BRANCH   1   7
ATOM      7  C   UNL     1      44.344   3.003  10.535  0.00  0.00    +0.000 C 
BRANCH   7   9
ATOM      8  O   UNL     1      45.732   1.902   8.930  0.00  0.00    +0.000 OA
ATOM      9  C   UNL     1      44.827   2.710   9.141  0.00  0.00    +0.000 C 
BRANCH   9  10
ATOM     10  O   UNL     1      44.213   3.348   8.134  0.00  0.00    +0.000 OA
ATOM     11  H   UNL     1      44.601   3.210   7.254  0.00  0.00    +0.000 HD
ENDBRANCH   9  10
ENDBRANCH   7   9
ENDBRANCH   1   7
BRANCH   4  12
ATOM     12  C   UNL     1      46.596   7.657  13.267  0.00  0.00    +0.000 C 
BRANCH  12  13
ATOM     13  N   UNL     1      47.974   7.458  13.720  0.00  0.00    +0.000 N 
ATOM     14  C   UNL     1      48.336   7.380  15.047  0.00  0.00    +0.000 A 
ATOM     15  C   UNL     1      49.699   7.185  15.080  0.00  0.00    +0.000 A 
ATOM     16  C   UNL     1      50.174   7.721  13.860  0.00  0.00    +0.000 A 
ATOM     17  C   UNL     1      51.404   8.263  13.442  0.00  0.00    +0.000 A 
ATOM     18  C   UNL     1      51.544   8.665  12.111  0.00  0.00    +0.000 A 
ATOM     19  C   UNL     1      50.536   8.418  11.189  0.00  0.00    +0.000 A 
ATOM     20  C   UNL     1      49.295   7.896  11.587  0.00  0.00    +0.000 A 
ATOM     21  C   UNL     1      49.101   7.675  12.956  0.00  0.00    +0.000 A 
ENDBRANCH  12  13
ENDBRANCH   4  12
TORSDOF 5
ENDMDL
MODEL 9
REMARK VINA RESULT:    -5.626      3.595      5.388
REMARK INTER + INTRA:          -7.461
REMARK INTER:                  -6.837
REMARK INTRA:                  -0.624
REMARK UNBOUND:                -0.355
REMARK  Name = 
REMARK  5 active torsions:
REMARK  status: ('A' for Active; 'I' for Inactive)
REMARK    1  A    between atoms: C_2  and  O_3
REMARK    2  A    between atoms: C_2  and  C_4
REMARK    3  A    between atoms: C_4  and  C_5
REMARK    4  A    between atoms: C_8  and  C_9
REMARK    5  A    between atoms: C_9  and  N_10
REMARK                            x       y       z     vdW  Elec       q    Type
REMARK                         _______ _______ _______ _____ _____    ______ ____
ROOT
ATOM      1  C   UNL     1      44.925   5.047  11.994  0.00  0.00    +0.000 A 
ATOM      2  C   UNL     1      45.476   4.582  13.175  0.00  0.00    +0.000 A 
ATOM      3  C   UNL     1      46.684   5.099  13.663  0.00  0.00    +0.000 A 
ATOM      4  C   UNL     1      47.361   6.101  12.954  0.00  0.00    +0.000 A 
ATOM      5  C   UNL     1      46.807   6.574  11.761  0.00  0.00    +0.000 A 
ATOM      6  C   UNL     1      45.590   6.061  11.289  0.00  0.00    +0.000 A 
ENDROOT
BRANCH   1   7
ATOM      7  C   UNL     1      43.633   4.468  11.461  0.00  0.00    +0.000 C 
BRANCH   7   9
ATOM      8  O   UNL     1      44.316   2.694  10.011  0.00  0.00    +0.000 OA
ATOM      9  C   UNL     1      43.659   3.038  10.995  0.00  0.00    +0.000 C 
BRANCH   9  10
ATOM     10  O   UNL     1      42.957   2.147  11.711  0.00  0.00    +0.000 OA
ATOM     11  H   UNL     1      42.443   1.507  11.191  0.00  0.00    +0.000 HD
ENDBRANCH   9  10
ENDBRANCH   7   9
ENDBRANCH   1   7
BRANCH   4  12
ATOM     12  C   UNL     1      48.652   6.678  13.491  0.00  0.00    +0.000 C 
BRANCH  12  13
ATOM     13  N   UNL     1      48.482   7.474  14.708  0.00  0.00    +0.000 N 
ATOM     14  C   UNL     1      48.400   8.849  14.713  0.00  0.00    +0.000 A 
ATOM     15  C   UNL     1      48.238   9.237  16.024  0.00  0.00    +0.000 A 
ATOM     16  C   UNL     1      48.797   8.185  16.788  0.00  0.00    +0.000 A 
ATOM     17  C   UNL     1      49.372   8.104  18.070  0.00  0.00    +0.000 A 
ATOM     18  C   UNL     1      49.790   6.857  18.542  0.00  0.00    +0.000 A 
ATOM     19  C   UNL     1      49.527   5.703  17.816  0.00  0.00    +0.000 A 
ATOM     20  C   UNL     1      48.971   5.762  16.528  0.00  0.00    +0.000 A 
ATOM     21  C   UNL     1      48.733   7.032  15.990  0.00  0.00    +0.000 A 
ENDBRANCH  12  13
ENDBRANCH   4  12
TORSDOF 5
ENDMDL
