MODEL 1
REMARK VINA RESULT:    -8.189      0.000      0.000
REMARK INTER + INTRA:         -11.148
REMARK INTER:                 -10.344
REMARK INTRA:                  -0.804
REMARK UNBOUND:                -0.804
REMARK  Name = 
REMARK  5 active torsions:
REMARK  status: ('A' for Active; 'I' for Inactive)
REMARK    1  A    between atoms: N_1  and  C_2
REMARK    2  A    between atoms: C_2  and  C_3
REMARK    3  A    between atoms: C_6  and  C_7
REMARK    4  A    between atoms: C_7  and  N_8
REMARK    5  A    between atoms: C_13  and  C_14
REMARK                            x       y       z     vdW  Elec       q    Type
REMARK                         _______ _______ _______ _____ _____    ______ ____
ROOT
ATOM      1  N   UNL     1      43.744   4.220  10.455  0.00  0.00    +0.000 N 
ATOM      2  N   UNL     1      43.212   3.174  11.136  0.00  0.00    +0.000 NA
ATOM      3  C   UNL     1      43.821   2.113  10.607  0.00  0.00    +0.000 A 
ATOM      4  C   UNL     1      44.711   2.458   9.571  0.00  0.00    +0.000 A 
ATOM      5  C   UNL     1      45.653   1.774   8.786  0.00  0.00    +0.000 A 
ATOM      6  C   UNL     1      46.374   2.475   7.802  0.00  0.00    +0.000 A 
ATOM      7  C   UNL     1      46.076   3.823   7.552  0.00  0.00    +0.000 A 
ATOM      8  C   UNL     1      45.158   4.528   8.349  0.00  0.00    +0.000 A 
ATOM      9  C   UNL     1      44.531   3.826   9.388  0.00  0.00    +0.000 A 
ENDROOT
BRANCH   6  10
ATOM     10  C   UNL     1      47.468   1.731   7.113  0.00  0.00    +0.000 C 
ATOM     11  N   UNL     1      48.434   2.437   6.451  0.00  0.00    +0.000 N 
ATOM     12  O   UNL     1      47.543   0.508   7.168  0.00  0.00    +0.000 OA
ATOM     13  H   UNL     1      48.480   3.435   6.367  0.00  0.00    +0.000 HD
ATOM     14  H   UNL     1      49.192   1.891   6.055  0.00  0.00    +0.000 HD
ENDBRANCH   6  10
BRANCH   1  15
ATOM     15  C   UNL     1      43.787   5.528  11.111  0.00  0.00    +0.000 C 
BRANCH  15  19
ATOM     16  C   UNL     1      47.466   6.309  13.252  0.00  0.00    +0.000 A 
ATOM     17  C   UNL     1      46.549   5.365  13.732  0.00  0.00    +0.000 A 
ATOM     18  C   UNL     1      45.365   5.104  13.040  0.00  0.00    +0.000 A 
ATOM     19  C   UNL     1      45.068   5.791  11.855  0.00  0.00    +0.000 A 
ATOM     20  C   UNL     1      46.010   6.693  11.343  0.00  0.00    +0.000 A 
ATOM     21  C   UNL     1      47.195   6.951  12.037  0.00  0.00    +0.000 A 
BRANCH  16  22
ATOM     22  C   UNL     1      48.683   6.680  14.060  0.00  0.00    +0.000 C 
BRANCH  22  23
ATOM     23  N   UNL     1      49.830   7.006  13.223  0.00  0.00    +0.000 NA
ATOM     24  H   UNL     1      49.609   6.773  12.257  0.00  0.00    +0.000 HD
ATOM     25  H   UNL     1      50.612   6.411  13.493  0.00  0.00    +0.000 HD
ENDBRANCH  22  23
ENDBRANCH  16  22
ENDBRANCH  15  19
ENDBRANCH   1  15
TORSDOF 5
ENDMDL
MODEL 2
REMARK VINA RESULT:    -8.146      2.175      6.193
REMARK INTER + INTRA:         -11.093
REMARK INTER:                 -10.570
REMARK INTRA:                  -0.523
REMARK UNBOUND:                -0.804
REMARK  Name = 
REMARK  5 active torsions:
REMARK  status: ('A' for Active; 'I' for Inactive)
REMARK    1  A    between atoms: N_1  and  C_2
REMARK    2  A    between atoms: C_2  and  C_3
REMARK    3  A    between atoms: C_6  and  C_7
REMARK    4  A    between atoms: C_7  and  N_8
REMARK    5  A    between atoms: C_13  and  C_14
REMARK                            x       y       z     vdW  Elec       q    Type
REMARK                         _______ _______ _______ _____ _____    ______ ____
ROOT
ATOM      1  N   UNL     1      43.873   4.095  11.231  0.00  0.00    +0.000 N 
ATOM      2  N   UNL     1      43.104   5.141  10.835  0.00  0.00    +0.000 NA
ATOM      3  C   UNL     1      43.741   6.203  11.327  0.00  0.00    +0.000 A 
ATOM      4  C   UNL     1      44.890   5.854  12.064  0.00  0.00    +0.000 A 
ATOM      5  C   UNL     1      45.943   6.554  12.673  0.00  0.00    +0.000 A 
ATOM      6  C   UNL     1      46.945   5.841  13.358  0.00  0.00    +0.000 A 
ATOM      7  C   UNL     1      46.828   4.451  13.503  0.00  0.00    +0.000 A 
ATOM      8  C   UNL     1      45.797   3.733  12.873  0.00  0.00    +0.000 A 
ATOM      9  C   UNL     1      44.873   4.464  12.114  0.00  0.00    +0.000 A 
ENDROOT
BRANCH   6  10
ATOM     10  C   UNL     1      48.115   6.626  13.845  0.00  0.00    +0.000 C 
ATOM     11  N   UNL     1      47.979   7.391  14.969  0.00  0.00    +0.000 N 
ATOM     12  O   UNL     1      49.205   6.562  13.286  0.00  0.00    +0.000 OA
ATOM     13  H   UNL     1      47.142   7.493  15.513  0.00  0.00    +0.000 HD
ATOM     14  H   UNL     1      48.819   7.854  15.299  0.00  0.00    +0.000 HD
ENDBRANCH   6  10
BRANCH   1  15
ATOM     15  C   UNL     1      43.852   2.872  10.427  0.00  0.00    +0.000 C 
BRANCH  15  19
ATOM     16  C   UNL     1      46.672   2.867   7.145  0.00  0.00    +0.000 A 
ATOM     17  C   UNL     1      46.083   4.063   7.576  0.00  0.00    +0.000 A 
ATOM     18  C   UNL     1      45.178   4.070   8.640  0.00  0.00    +0.000 A 
ATOM     19  C   UNL     1      44.837   2.877   9.290  0.00  0.00    +0.000 A 
ATOM     20  C   UNL     1      45.469   1.689   8.898  0.00  0.00    +0.000 A 
ATOM     21  C   UNL     1      46.374   1.685   7.834  0.00  0.00    +0.000 A 
BRANCH  16  22
ATOM     22  C   UNL     1      47.551   2.841   5.921  0.00  0.00    +0.000 C 
BRANCH  22  23
ATOM     23  N   UNL     1      48.478   1.716   5.924  0.00  0.00    +0.000 NA
ATOM     24  H   UNL     1      48.440   1.256   5.018  0.00  0.00    +0.000 HD
ATOM     25  H   UNL     1      48.161   1.033   6.610  0.00  0.00    +0.000 HD
ENDBRANCH  22  23
ENDBRANCH  16  22
ENDBRANCH  15  19
ENDBRANCH   1  15
TORSDOF 5
ENDMDL
MODEL 3
REMARK VINA RESULT:    -7.524      2.757      6.385
REMARK INTER + INTRA:         -10.307
REMARK INTER:                  -9.772
REMARK INTRA:                  -0.535
REMARK UNBOUND:                -0.804
REMARK  Name = 
REMARK  5 active torsions:
REMARK  status: ('A' for Active; 'I' for Inactive)
REMARK    1  A    between atoms: N_1  and  C_2
REMARK    2  A    between atoms: C_2  and  C_3
REMARK    3  A    between atoms: C_6  and  C_7
REMARK    4  A    between atoms: C_7  and  N_8
REMARK    5  A    between atoms: C_13  and  C_14
REMARK                            x       y       z     vdW  Elec       q    Type
REMARK                         _______ _______ _______ _____ _____    ______ ____
ROOT
ATOM      1  N   UNL     1      44.113   4.620  11.004  0.00  0.00    +0.000 N 
ATOM      2  N   UNL     1      43.207   4.325  11.971  0.00  0.00    +0.000 NA
ATOM      3  C   UNL     1      43.513   5.168  12.957  0.00  0.00    +0.000 A 
ATOM      4  C   UNL     1      44.626   5.977  12.653  0.00  0.00    +0.000 A 
ATOM      5  C   UNL     1      45.273   7.064  13.261  0.00  0.00    +0.000 A 
ATOM      6  C   UNL     1      46.407   7.627  12.646  0.00  0.00    +0.000 A 
ATOM      7  C   UNL     1      46.931   7.038  11.487  0.00  0.00    +0.000 A 
ATOM      8  C   UNL     1      46.277   5.969  10.850  0.00  0.00    +0.000 A 
ATOM      9  C   UNL     1      45.093   5.497  11.433  0.00  0.00    +0.000 A 
ENDROOT
BRANCH   6  10
ATOM     10  C   UNL     1      46.952   8.875  13.256  0.00  0.00    +0.000 C 
ATOM     11  N   UNL     1      47.140   8.924  14.609  0.00  0.00    +0.000 N 
ATOM     12  O   UNL     1      47.276   9.835  12.565  0.00  0.00    +0.000 OA
ATOM     13  H   UNL     1      46.932   8.189  15.258  0.00  0.00    +0.000 HD
ATOM     14  H   UNL     1      47.574   9.767  14.968  0.00  0.00    +0.000 HD
ENDBRANCH   6  10
BRANCH   1  15
ATOM     15  C   UNL     1      43.755   4.354   9.611  0.00  0.00    +0.000 C 
BRANCH  15  19
ATOM     16  C   UNL     1      46.724   2.042   7.474  0.00  0.00    +0.000 A 
ATOM     17  C   UNL     1      45.886   1.429   8.415  0.00  0.00    +0.000 A 
ATOM     18  C   UNL     1      44.922   2.171   9.101  0.00  0.00    +0.000 A 
ATOM     19  C   UNL     1      44.781   3.545   8.865  0.00  0.00    +0.000 A 
ATOM     20  C   UNL     1      45.578   4.146   7.883  0.00  0.00    +0.000 A 
ATOM     21  C   UNL     1      46.542   3.402   7.197  0.00  0.00    +0.000 A 
BRANCH  16  22
ATOM     22  C   UNL     1      47.845   1.271   6.825  0.00  0.00    +0.000 C 
BRANCH  22  23
ATOM     23  N   UNL     1      48.434   1.984   5.700  0.00  0.00    +0.000 NA
ATOM     24  H   UNL     1      48.571   1.331   4.931  0.00  0.00    +0.000 HD
ATOM     25  H   UNL     1      49.359   2.313   5.969  0.00  0.00    +0.000 HD
ENDBRANCH  22  23
ENDBRANCH  16  22
ENDBRANCH  15  19
ENDBRANCH   1  15
TORSDOF 5
ENDMDL
MODEL 4
REMARK VINA RESULT:    -6.324      4.126      6.236
REMARK INTER + INTRA:          -8.792
REMARK INTER:                  -8.284
REMARK INTRA:                  -0.508
REMARK UNBOUND:                -0.804
REMARK  Name = 
REMARK  5 active torsions:
REMARK  status: ('A' for Active; 'I' for Inactive)
REMARK    1  A    between atoms: N_1  and  C_2
REMARK    2  A    between atoms: C_2  and  C_3
REMARK    3  A    between atoms: C_6  and  C_7
REMARK    4  A    between atoms: C_7  and  N_8
REMARK    5  A    between atoms: C_13  and  C_14
REMARK                            x       y       z     vdW  Elec       q    Type
REMARK                         _______ _______ _______ _____ _____    ______ ____
ROOT
ATOM      1  N   UNL     1      47.523   5.266  14.761  0.00  0.00    +0.000 N 
ATOM      2  N   UNL     1      48.098   6.482  14.579  0.00  0.00    +0.000 NA
ATOM      3  C   UNL     1      47.550   6.922  13.446  0.00  0.00    +0.000 A 
ATOM      4  C   UNL     1      46.658   5.992  12.877  0.00  0.00    +0.000 A 
ATOM      5  C   UNL     1      45.762   5.991  11.797  0.00  0.00    +0.000 A 
ATOM      6  C   UNL     1      45.020   4.829  11.513  0.00  0.00    +0.000 A 
ATOM      7  C   UNL     1      45.253   3.660  12.253  0.00  0.00    +0.000 A 
ATOM      8  C   UNL     1      46.124   3.655  13.356  0.00  0.00    +0.000 A 
ATOM      9  C   UNL     1      46.771   4.857  13.674  0.00  0.00    +0.000 A 
ENDROOT
BRANCH   6  10
ATOM     10  C   UNL     1      43.974   4.941  10.456  0.00  0.00    +0.000 C 
ATOM     11  N   UNL     1      44.253   4.489   9.196  0.00  0.00    +0.000 N 
ATOM     12  O   UNL     1      42.858   5.386  10.705  0.00  0.00    +0.000 OA
ATOM     13  H   UNL     1      45.121   4.087   8.895  0.00  0.00    +0.000 HD
ATOM     14  H   UNL     1      43.489   4.526   8.530  0.00  0.00    +0.000 HD
ENDBRANCH   6  10
BRANCH   1  15
ATOM     15  C   UNL     1      47.406   4.750  16.125  0.00  0.00    +0.000 C 
BRANCH  15  19
ATOM     16  C   UNL     1      50.787   2.345  17.355  0.00  0.00    +0.000 A 
ATOM     17  C   UNL     1      50.729   3.709  17.673  0.00  0.00    +0.000 A 
ATOM     18  C   UNL     1      49.635   4.486  17.285  0.00  0.00    +0.000 A 
ATOM     19  C   UNL     1      48.580   3.916  16.561  0.00  0.00    +0.000 A 
ATOM     20  C   UNL     1      48.609   2.541  16.292  0.00  0.00    +0.000 A 
ATOM     21  C   UNL     1      49.703   1.766  16.683  0.00  0.00    +0.000 A 
BRANCH  16  22
ATOM     22  C   UNL     1      52.019   1.535  17.665  0.00  0.00    +0.000 C 
BRANCH  22  23
ATOM     23  N   UNL     1      51.701   0.189  18.122  0.00  0.00    +0.000 NA
ATOM     24  H   UNL     1      50.727  -0.011  17.904  0.00  0.00    +0.000 HD
ATOM     25  H   UNL     1      51.782   0.160  19.137  0.00  0.00    +0.000 HD
ENDBRANCH  22  23
ENDBRANCH  16  22
ENDBRANCH  15  19
ENDBRANCH   1  15
TORSDOF 5
ENDMDL
MODEL 5
REMARK VINA RESULT:    -6.050      1.891      2.353
REMARK INTER + INTRA:          -8.446
REMARK INTER:                  -8.251
REMARK INTRA:                  -0.196
REMARK UNBOUND:                -0.804
REMARK  Name = 
REMARK  5 active torsions:
REMARK  status: ('A' for Active; 'I' for Inactive)
REMARK    1  A    between atoms: N_1  and  C_2
REMARK    2  A    between atoms: C_2  and  C_3
REMARK    3  A    between atoms: C_6  and  C_7
REMARK    4  A    between atoms: C_7  and  N_8
REMARK    5  A    between atoms: C_13  and  C_14
REMARK                            x       y       z     vdW  Elec       q    Type
REMARK                         _______ _______ _______ _____ _____    ______ ____
ROOT
ATOM      1  N   UNL     1      44.381   4.490  12.125  0.00  0.00    +0.000 N 
ATOM      2  N   UNL     1      43.468   3.522  12.388  0.00  0.00    +0.000 NA
ATOM      3  C   UNL     1      43.478   2.773  11.285  0.00  0.00    +0.000 A 
ATOM      4  C   UNL     1      44.358   3.266  10.302  0.00  0.00    +0.000 A 
ATOM      5  C   UNL     1      44.821   2.821   9.054  0.00  0.00    +0.000 A 
ATOM      6  C   UNL     1      45.721   3.619   8.324  0.00  0.00    +0.000 A 
ATOM      7  C   UNL     1      46.070   4.889   8.807  0.00  0.00    +0.000 A 
ATOM      8  C   UNL     1      45.638   5.336  10.068  0.00  0.00    +0.000 A 
ATOM      9  C   UNL     1      44.825   4.473  10.815  0.00  0.00    +0.000 A 
ENDROOT
BRANCH   6  10
ATOM     10  C   UNL     1      46.297   3.021   7.085  0.00  0.00    +0.000 C 
ATOM     11  N   UNL     1      46.784   3.851   6.113  0.00  0.00    +0.000 N 
ATOM     12  O   UNL     1      46.383   1.806   6.941  0.00  0.00    +0.000 OA
ATOM     13  H   UNL     1      46.785   4.853   6.142  0.00  0.00    +0.000 HD
ATOM     14  H   UNL     1      47.225   3.398   5.320  0.00  0.00    +0.000 HD
ENDBRANCH   6  10
BRANCH   1  15
ATOM     15  C   UNL     1      45.069   5.122  13.252  0.00  0.00    +0.000 C 
BRANCH  15  19
ATOM     16  C   UNL     1      46.853   8.941  12.271  0.00  0.00    +0.000 A 
ATOM     17  C   UNL     1      45.459   8.791  12.298  0.00  0.00    +0.000 A 
ATOM     18  C   UNL     1      44.880   7.562  12.622  0.00  0.00    +0.000 A 
ATOM     19  C   UNL     1      45.684   6.453  12.917  0.00  0.00    +0.000 A 
ATOM     20  C   UNL     1      47.076   6.616  12.946  0.00  0.00    +0.000 A 
ATOM     21  C   UNL     1      47.653   7.847  12.624  0.00  0.00    +0.000 A 
BRANCH  16  22
ATOM     22  C   UNL     1      47.478  10.230  11.803  0.00  0.00    +0.000 C 
BRANCH  22  23
ATOM     23  N   UNL     1      47.595  11.213  12.872  0.00  0.00    +0.000 NA
ATOM     24  H   UNL     1      47.737  10.725  13.754  0.00  0.00    +0.000 HD
ATOM     25  H   UNL     1      46.711  11.712  12.956  0.00  0.00    +0.000 HD
ENDBRANCH  22  23
ENDBRANCH  16  22
ENDBRANCH  15  19
ENDBRANCH   1  15
TORSDOF 5
ENDMDL
MODEL 6
REMARK VINA RESULT:    -5.398      3.500      6.221
REMARK INTER + INTRA:          -7.623
REMARK INTER:                  -7.058
REMARK INTRA:                  -0.564
REMARK UNBOUND:                -0.804
REMARK  Name = 
REMARK  5 active torsions:
REMARK  status: ('A' for Active; 'I' for Inactive)
REMARK    1  A    between atoms: N_1  and  C_2
REMARK    2  A    between atoms: C_2  and  C_3
REMARK    3  A    between atoms: C_6  and  C_7
REMARK    4  A    between atoms: C_7  and  N_8
REMARK    5  A    between atoms: C_13  and  C_14
REMARK                            x       y       z     vdW  Elec       q    Type
REMARK                         _______ _______ _______ _____ _____    ______ ____
ROOT
ATOM      1  N   UNL     1      48.292   6.921  13.782  0.00  0.00    +0.000 N 
ATOM      2  N   UNL     1      48.964   7.589  12.811  0.00  0.00    +0.000 NA
ATOM      3  C   UNL     1      48.213   7.405  11.725  0.00  0.00    +0.000 A 
ATOM      4  C   UNL     1      47.086   6.600  11.975  0.00  0.00    +0.000 A 
ATOM      5  C   UNL     1      45.953   6.203  11.246  0.00  0.00    +0.000 A 
ATOM      6  C   UNL     1      45.009   5.348  11.844  0.00  0.00    +0.000 A 
ATOM      7  C   UNL     1      45.257   4.828  13.123  0.00  0.00    +0.000 A 
ATOM      8  C   UNL     1      46.371   5.239  13.876  0.00  0.00    +0.000 A 
ATOM      9  C   UNL     1      47.238   6.171  13.290  0.00  0.00    +0.000 A 
ENDROOT
BRANCH   6  10
ATOM     10  C   UNL     1      43.754   5.092  11.079  0.00  0.00    +0.000 C 
ATOM     11  N   UNL     1      42.563   5.512  11.601  0.00  0.00    +0.000 N 
ATOM     12  O   UNL     1      43.776   4.555   9.977  0.00  0.00    +0.000 OA
ATOM     13  H   UNL     1      42.438   5.980  12.479  0.00  0.00    +0.000 HD
ATOM     14  H   UNL     1      41.746   5.375  11.015  0.00  0.00    +0.000 HD
ENDBRANCH   6  10
BRANCH   1  15
ATOM     15  C   UNL     1      48.454   7.360  15.168  0.00  0.00    +0.000 C 
BRANCH  15  19
ATOM     16  C   UNL     1      50.917   4.706  17.539  0.00  0.00    +0.000 A 
ATOM     17  C   UNL     1      51.482   5.812  16.890  0.00  0.00    +0.000 A 
ATOM     18  C   UNL     1      50.688   6.675  16.130  0.00  0.00    +0.000 A 
ATOM     19  C   UNL     1      49.313   6.444  15.997  0.00  0.00    +0.000 A 
ATOM     20  C   UNL     1      48.738   5.372  16.692  0.00  0.00    +0.000 A 
ATOM     21  C   UNL     1      49.533   4.511  17.452  0.00  0.00    +0.000 A 
BRANCH  16  22
ATOM     22  C   UNL     1      51.789   3.707  18.255  0.00  0.00    +0.000 C 
BRANCH  22  23
ATOM     23  N   UNL     1      51.472   2.332  17.897  0.00  0.00    +0.000 NA
ATOM     24  H   UNL     1      50.877   2.335  17.071  0.00  0.00    +0.000 HD
ATOM     25  H   UNL     1      50.923   1.916  18.647  0.00  0.00    +0.000 HD
ENDBRANCH  22  23
ENDBRANCH  16  22
ENDBRANCH  15  19
ENDBRANCH   1  15
TORSDOF 5
ENDMDL
MODEL 7
REMARK VINA RESULT:    -5.364      3.005      4.999
REMARK INTER + INTRA:          -7.580
REMARK INTER:                  -7.076
REMARK INTRA:                  -0.504
REMARK UNBOUND:                -0.804
REMARK  Name = 
REMARK  5 active torsions:
REMARK  status: ('A' for Active; 'I' for Inactive)
REMARK    1  A    between atoms: N_1  and  C_2
REMARK    2  A    between atoms: C_2  and  C_3
REMARK    3  A    between atoms: C_6  and  C_7
REMARK    4  A    between atoms: C_7  and  N_8
REMARK    5  A    between atoms: C_13  and  C_14
REMARK                            x       y       z     vdW  Elec       q    Type
REMARK                         _______ _______ _______ _____ _____    ______ ____
ROOT
ATOM      1  N   UNL     1      46.730   7.217  13.225  0.00  0.00    +0.000 N 
ATOM      2  N   UNL     1      47.524   6.623  14.152  0.00  0.00    +0.000 NA
ATOM      3  C   UNL     1      47.176   5.338  14.087  0.00  0.00    +0.000 A 
ATOM      4  C   UNL     1      46.144   5.101  13.158  0.00  0.00    +0.000 A 
ATOM      5  C   UNL     1      45.506   3.967  12.633  0.00  0.00    +0.000 A 
ATOM      6  C   UNL     1      44.468   4.127  11.697  0.00  0.00    +0.000 A 
ATOM      7  C   UNL     1      44.021   5.416  11.371  0.00  0.00    +0.000 A 
ATOM      8  C   UNL     1      44.669   6.561  11.865  0.00  0.00    +0.000 A 
ATOM      9  C   UNL     1      45.765   6.366  12.716  0.00  0.00    +0.000 A 
ENDROOT
BRANCH   6  10
ATOM     10  C   UNL     1      43.940   2.886  11.059  0.00  0.00    +0.000 C 
ATOM     11  N   UNL     1      44.602   2.358   9.986  0.00  0.00    +0.000 N 
ATOM     12  O   UNL     1      42.954   2.307  11.506  0.00  0.00    +0.000 OA
ATOM     13  H   UNL     1      45.427   2.738   9.560  0.00  0.00    +0.000 HD
ATOM     14  H   UNL     1      44.243   1.480   9.629  0.00  0.00    +0.000 HD
ENDBRANCH   6  10
BRANCH   1  15
ATOM     15  C   UNL     1      47.200   8.450  12.594  0.00  0.00    +0.000 C 
BRANCH  15  19
ATOM     16  C   UNL     1      51.436   8.465  11.706  0.00  0.00    +0.000 A 
ATOM     17  C   UNL     1      50.910   9.320  12.684  0.00  0.00    +0.000 A 
ATOM     18  C   UNL     1      49.545   9.312  12.979  0.00  0.00    +0.000 A 
ATOM     19  C   UNL     1      48.674   8.454  12.294  0.00  0.00    +0.000 A 
ATOM     20  C   UNL     1      49.208   7.559  11.357  0.00  0.00    +0.000 A 
ATOM     21  C   UNL     1      50.574   7.567  11.065  0.00  0.00    +0.000 A 
BRANCH  16  22
ATOM     22  C   UNL     1      52.885   8.559  11.301  0.00  0.00    +0.000 C 
BRANCH  22  23
ATOM     23  N   UNL     1      53.648   7.380  11.685  0.00  0.00    +0.000 NA
ATOM     24  H   UNL     1      54.351   7.651  12.369  0.00  0.00    +0.000 HD
ATOM     25  H   UNL     1      54.154   7.037  10.870  0.00  0.00    +0.000 HD
ENDBRANCH  22  23
ENDBRANCH  16  22
ENDBRANCH  15  19
ENDBRANCH   1  15
TORSDOF 5
ENDMDL
