MODEL 1
REMARK VINA RESULT:    -8.088      0.000      0.000
REMARK INTER + INTRA:         -11.178
REMARK INTER:                 -10.453
REMARK INTRA:                  -0.726
REMARK UNBOUND:                -0.726
REMARK  Name = 
REMARK  5 active torsions:
REMARK  status: ('A' for Active; 'I' for Inactive)
REMARK    1  A    between atoms: C_2  and  C_4
REMARK    2  A    between atoms: C_7  and  S_8
REMARK    3  A    between atoms: S_8  and  C_9
REMARK    4  A    between atoms: C_9  and  C_10
REMARK    5  A    between atoms: C_14  and  C_15
REMARK                            x       y       z     vdW  Elec       q    Type
REMARK                         _______ _______ _______ _____ _____    ______ ____
ROOT
ATOM      1  C   UNL     1      44.436   5.891  11.129  0.00  0.00    +0.000 C 
ENDROOT
BRANCH   1   2
ATOM      2  C   UNL     1      45.589   5.676  12.076  0.00  0.00    +0.000 A 
ATOM      3  C   UNL     1      45.529   4.706  13.075  0.00  0.00    +0.000 A 
ATOM      4  C   UNL     1      46.619   4.559  13.914  0.00  0.00    +0.000 A 
ATOM      5  N   UNL     1      47.743   5.304  13.829  0.00  0.00    +0.000 NA
ATOM      6  C   UNL     1      47.803   6.256  12.867  0.00  0.00    +0.000 A 
ATOM      7  C   UNL     1      46.751   6.451  11.967  0.00  0.00    +0.000 A 
BRANCH   6   8
ATOM      8  C   UNL     1      49.023   7.067  12.851  0.00  0.00    +0.000 A 
ATOM      9  C   UNL     1      49.729   7.387  13.999  0.00  0.00    +0.000 A 
ATOM     10  N   UNL     1      50.856   8.138  14.030  0.00  0.00    +0.000 NA
ATOM     11  C   UNL     1      51.279   8.597  12.846  0.00  0.00    +0.000 A 
ATOM     12  N   UNL     1      50.692   8.372  11.662  0.00  0.00    +0.000 NA
ATOM     13  C   UNL     1      49.574   7.613  11.702  0.00  0.00    +0.000 A 
ENDBRANCH   6   8
ENDBRANCH   1   2
BRANCH   1  14
ATOM     14  S   UNL     1      43.580   4.330  10.744  0.00  0.00    +0.000 S 
BRANCH  14  18
ATOM     15  C   UNL     1      46.488   2.551   7.751  0.00  0.00    +0.000 A 
ATOM     16  C   UNL     1      46.320   3.935   7.791  0.00  0.00    +0.000 A 
ATOM     17  C   UNL     1      45.426   4.485   8.715  0.00  0.00    +0.000 A 
ATOM     18  C   UNL     1      44.729   3.636   9.571  0.00  0.00    +0.000 A 
ATOM     19  N   UNL     1      44.879   2.295   9.541  0.00  0.00    +0.000 NA
ATOM     20  C   UNL     1      45.741   1.780   8.630  0.00  0.00    +0.000 A 
BRANCH  15  22
ATOM     21  N   UNL     1      48.405   2.593   6.253  0.00  0.00    +0.000 N 
ATOM     22  C   UNL     1      47.389   1.864   6.803  0.00  0.00    +0.000 C 
ATOM     23  O   UNL     1      47.252   0.675   6.545  0.00  0.00    +0.000 OA
ATOM     24  H   UNL     1      49.068   2.078   5.686  0.00  0.00    +0.000 HD
ATOM     25  H   UNL     1      48.702   3.486   6.619  0.00  0.00    +0.000 HD
ENDBRANCH  15  22
ENDBRANCH  14  18
ENDBRANCH   1  14
TORSDOF 5
ENDMDL
MODEL 2
REMARK VINA RESULT:    -8.079      2.076      3.465
REMARK INTER + INTRA:         -11.167
REMARK INTER:                 -10.624
REMARK INTRA:                  -0.543
REMARK UNBOUND:                -0.726
REMARK  Name = 
REMARK  5 active torsions:
REMARK  status: ('A' for Active; 'I' for Inactive)
REMARK    1  A    between atoms: C_2  and  C_4
REMARK    2  A    between atoms: C_7  and  S_8
REMARK    3  A    between atoms: S_8  and  C_9
REMARK    4  A    between atoms: C_9  and  C_10
REMARK    5  A    between atoms: C_14  and  C_15
REMARK                            x       y       z     vdW  Elec       q    Type
REMARK                         _______ _______ _______ _____ _____    ______ ____
ROOT
ATOM      1  C   UNL     1      44.358   4.198  12.080  0.00  0.00    +0.000 C 
ENDROOT
BRANCH   1   2
ATOM      2  C   UNL     1      45.594   4.817  12.682  0.00  0.00    +0.000 A 
ATOM      3  C   UNL     1      46.320   5.789  11.994  0.00  0.00    +0.000 A 
ATOM      4  C   UNL     1      47.447   6.318  12.598  0.00  0.00    +0.000 A 
ATOM      5  N   UNL     1      47.894   5.945  13.818  0.00  0.00    +0.000 NA
ATOM      6  C   UNL     1      47.199   4.993  14.486  0.00  0.00    +0.000 A 
ATOM      7  C   UNL     1      46.039   4.426  13.952  0.00  0.00    +0.000 A 
BRANCH   6   8
ATOM      8  C   UNL     1      47.755   4.593  15.781  0.00  0.00    +0.000 A 
ATOM      9  C   UNL     1      48.444   5.466  16.607  0.00  0.00    +0.000 A 
ATOM     10  N   UNL     1      48.980   5.137  17.807  0.00  0.00    +0.000 NA
ATOM     11  C   UNL     1      48.823   3.861  18.180  0.00  0.00    +0.000 A 
ATOM     12  N   UNL     1      48.188   2.910  17.479  0.00  0.00    +0.000 NA
ATOM     13  C   UNL     1      47.675   3.307  16.293  0.00  0.00    +0.000 A 
ENDBRANCH   6   8
ENDBRANCH   1   2
BRANCH   1  14
ATOM     14  S   UNL     1      43.918   4.977  10.494  0.00  0.00    +0.000 S 
BRANCH  14  18
ATOM     15  C   UNL     1      46.466   2.488   7.683  0.00  0.00    +0.000 A 
ATOM     16  C   UNL     1      45.694   1.842   8.650  0.00  0.00    +0.000 A 
ATOM     17  C   UNL     1      44.907   2.607   9.514  0.00  0.00    +0.000 A 
ATOM     18  C   UNL     1      44.913   3.994   9.388  0.00  0.00    +0.000 A 
ATOM     19  N   UNL     1      45.657   4.634   8.460  0.00  0.00    +0.000 NA
ATOM     20  C   UNL     1      46.423   3.874   7.639  0.00  0.00    +0.000 A 
BRANCH  15  22
ATOM     21  N   UNL     1      48.356   2.495   6.151  0.00  0.00    +0.000 N 
ATOM     22  C   UNL     1      47.348   1.780   6.734  0.00  0.00    +0.000 C 
ATOM     23  O   UNL     1      47.203   0.587   6.502  0.00  0.00    +0.000 OA
ATOM     24  H   UNL     1      49.008   1.967   5.584  0.00  0.00    +0.000 HD
ATOM     25  H   UNL     1      48.662   3.394   6.494  0.00  0.00    +0.000 HD
ENDBRANCH  15  22
ENDBRANCH  14  18
ENDBRANCH   1  14
TORSDOF 5
ENDMDL
MODEL 3
REMARK VINA RESULT:    -7.707      1.336      1.830
REMARK INTER + INTRA:         -10.686
REMARK INTER:                 -10.048
REMARK INTRA:                  -0.638
REMARK UNBOUND:                -0.726
REMARK  Name = 
REMARK  5 active torsions:
REMARK  status: ('A' for Active; 'I' for Inactive)
REMARK    1  A    between atoms: C_2  and  C_4
REMARK    2  A    between atoms: C_7  and  S_8
REMARK    3  A    between atoms: S_8  and  C_9
REMARK    4  A    between atoms: C_9  and  C_10
REMARK    5  A    between atoms: C_14  and  C_15
REMARK                            x       y       z     vdW  Elec       q    Type
REMARK                         _______ _______ _______ _____ _____    ______ ____
ROOT
ATOM      1  C   UNL     1      44.928   3.507  12.229  0.00  0.00    +0.000 C 
ENDROOT
BRANCH   1   2
ATOM      2  C   UNL     1      45.417   4.909  12.491  0.00  0.00    +0.000 A 
ATOM      3  C   UNL     1      44.710   6.018  12.025  0.00  0.00    +0.000 A 
ATOM      4  C   UNL     1      45.211   7.278  12.296  0.00  0.00    +0.000 A 
ATOM      5  N   UNL     1      46.352   7.504  12.984  0.00  0.00    +0.000 NA
ATOM      6  C   UNL     1      47.049   6.431  13.430  0.00  0.00    +0.000 A 
ATOM      7  C   UNL     1      46.597   5.127  13.215  0.00  0.00    +0.000 A 
BRANCH   6   8
ATOM      8  C   UNL     1      48.302   6.733  14.127  0.00  0.00    +0.000 A 
ATOM      9  C   UNL     1      48.646   6.160  15.340  0.00  0.00    +0.000 A 
ATOM     10  N   UNL     1      49.789   6.416  16.021  0.00  0.00    +0.000 NA
ATOM     11  C   UNL     1      50.614   7.303  15.453  0.00  0.00    +0.000 A 
ATOM     12  N   UNL     1      50.406   7.938  14.291  0.00  0.00    +0.000 NA
ATOM     13  C   UNL     1      49.247   7.635  13.662  0.00  0.00    +0.000 A 
ENDBRANCH   6   8
ENDBRANCH   1   2
BRANCH   1  14
ATOM     14  S   UNL     1      43.745   3.455  10.845  0.00  0.00    +0.000 S 
BRANCH  14  18
ATOM     15  C   UNL     1      46.603   2.728   7.397  0.00  0.00    +0.000 A 
ATOM     16  C   UNL     1      46.182   4.031   7.665  0.00  0.00    +0.000 A 
ATOM     17  C   UNL     1      45.304   4.256   8.729  0.00  0.00    +0.000 A 
ATOM     18  C   UNL     1      44.873   3.175   9.493  0.00  0.00    +0.000 A 
ATOM     19  N   UNL     1      45.269   1.908   9.244  0.00  0.00    +0.000 NA
ATOM     20  C   UNL     1      46.111   1.709   8.200  0.00  0.00    +0.000 A 
BRANCH  15  22
ATOM     21  N   UNL     1      47.401   3.085   5.127  0.00  0.00    +0.000 N 
ATOM     22  C   UNL     1      47.511   2.374   6.288  0.00  0.00    +0.000 C 
ATOM     23  O   UNL     1      48.356   1.498   6.414  0.00  0.00    +0.000 OA
ATOM     24  H   UNL     1      48.099   2.895   4.418  0.00  0.00    +0.000 HD
ATOM     25  H   UNL     1      46.903   3.962   5.064  0.00  0.00    +0.000 HD
ENDBRANCH  15  22
ENDBRANCH  14  18
ENDBRANCH   1  14
TORSDOF 5
ENDMDL
MODEL 4
REMARK VINA RESULT:    -7.190      1.419      2.157
REMARK INTER + INTRA:         -10.017
REMARK INTER:                  -9.535
REMARK INTRA:                  -0.483
REMARK UNBOUND:                -0.726
REMARK  Name = 
REMARK  5 active torsions:
REMARK  status: ('A' for Active; 'I' for Inactive)
REMARK    1  A    between atoms: C_2  and  C_4
REMARK    2  A    between atoms: C_7  and  S_8
REMARK    3  A    between atoms: S_8  and  C_9
REMARK    4  A    between atoms: C_9  and  C_10
REMARK    5  A    between atoms: C_14  and  C_15
REMARK                            x       y       z     vdW  Elec       q    Type
REMARK                         _______ _______ _______ _____ _____    ______ ____
ROOT
ATOM      1  C   UNL     1      44.966   5.088  11.883  0.00  0.00    +0.000 C 
ENDROOT
BRANCH   1   2
ATOM      2  C   UNL     1      45.541   6.479  11.970  0.00  0.00    +0.000 A 
ATOM      3  C   UNL     1      44.745   7.603  11.751  0.00  0.00    +0.000 A 
ATOM      4  C   UNL     1      45.332   8.852  11.843  0.00  0.00    +0.000 A 
ATOM      5  N   UNL     1      46.638   9.052  12.128  0.00  0.00    +0.000 NA
ATOM      6  C   UNL     1      47.419   7.964  12.331  0.00  0.00    +0.000 A 
ATOM      7  C   UNL     1      46.895   6.670  12.276  0.00  0.00    +0.000 A 
BRANCH   6   8
ATOM      8  C   UNL     1      48.835   8.238  12.588  0.00  0.00    +0.000 A 
ATOM      9  C   UNL     1      49.628   8.978  11.725  0.00  0.00    +0.000 A 
ATOM     10  N   UNL     1      50.941   9.249  11.920  0.00  0.00    +0.000 NA
ATOM     11  C   UNL     1      51.478   8.734  13.033  0.00  0.00    +0.000 A 
ATOM     12  N   UNL     1      50.834   7.995  13.948  0.00  0.00    +0.000 NA
ATOM     13  C   UNL     1      49.526   7.765  13.693  0.00  0.00    +0.000 A 
ENDBRANCH   6   8
ENDBRANCH   1   2
BRANCH   1  14
ATOM     14  S   UNL     1      43.834   4.915  10.467  0.00  0.00    +0.000 S 
BRANCH  14  18
ATOM     15  C   UNL     1      46.462   2.471   7.692  0.00  0.00    +0.000 A 
ATOM     16  C   UNL     1      45.669   1.810   8.630  0.00  0.00    +0.000 A 
ATOM     17  C   UNL     1      44.857   2.562   9.484  0.00  0.00    +0.000 A 
ATOM     18  C   UNL     1      44.860   3.950   9.375  0.00  0.00    +0.000 A 
ATOM     19  N   UNL     1      45.624   4.604   8.474  0.00  0.00    +0.000 NA
ATOM     20  C   UNL     1      46.414   3.857   7.662  0.00  0.00    +0.000 A 
BRANCH  15  22
ATOM     21  N   UNL     1      48.411   2.495   6.235  0.00  0.00    +0.000 N 
ATOM     22  C   UNL     1      47.371   1.778   6.756  0.00  0.00    +0.000 C 
ATOM     23  O   UNL     1      47.219   0.595   6.483  0.00  0.00    +0.000 OA
ATOM     24  H   UNL     1      49.077   1.974   5.678  0.00  0.00    +0.000 HD
ATOM     25  H   UNL     1      48.715   3.378   6.617  0.00  0.00    +0.000 HD
ENDBRANCH  15  22
ENDBRANCH  14  18
ENDBRANCH   1  14
TORSDOF 5
ENDMDL
MODEL 5
REMARK VINA RESULT:    -6.600      3.160      5.159
REMARK INTER + INTRA:          -9.255
REMARK INTER:                  -8.587
REMARK INTRA:                  -0.668
REMARK UNBOUND:                -0.726
REMARK  Name = 
REMARK  5 active torsions:
REMARK  status: ('A' for Active; 'I' for Inactive)
REMARK    1  A    between atoms: C_2  and  C_4
REMARK    2  A    between atoms: C_7  and  S_8
REMARK    3  A    between atoms: S_8  and  C_9
REMARK    4  A    between atoms: C_9  and  C_10
REMARK    5  A    between atoms: C_14  and  C_15
REMARK                            x       y       z     vdW  Elec       q    Type
REMARK                         _______ _______ _______ _____ _____    ______ ____
ROOT
ATOM      1  C   UNL     1      47.559   8.200  12.387  0.00  0.00    +0.000 C 
ENDROOT
BRANCH   1   2
ATOM      2  C   UNL     1      48.422   7.671  13.505  0.00  0.00    +0.000 A 
ATOM      3  C   UNL     1      49.704   8.172  13.724  0.00  0.00    +0.000 A 
ATOM      4  C   UNL     1      50.447   7.644  14.764  0.00  0.00    +0.000 A 
ATOM      5  N   UNL     1      50.007   6.663  15.584  0.00  0.00    +0.000 NA
ATOM      6  C   UNL     1      48.766   6.165  15.370  0.00  0.00    +0.000 A 
ATOM      7  C   UNL     1      47.946   6.661  14.352  0.00  0.00    +0.000 A 
BRANCH   6   8
ATOM      8  C   UNL     1      48.359   5.071  16.256  0.00  0.00    +0.000 A 
ATOM      9  C   UNL     1      47.185   4.357  16.080  0.00  0.00    +0.000 A 
ATOM     10  N   UNL     1      46.768   3.345  16.878  0.00  0.00    +0.000 NA
ATOM     11  C   UNL     1      47.570   3.053  17.909  0.00  0.00    +0.000 A 
ATOM     12  N   UNL     1      48.726   3.665  18.203  0.00  0.00    +0.000 NA
ATOM     13  C   UNL     1      49.085   4.664  17.364  0.00  0.00    +0.000 A 
ENDBRANCH   6   8
ENDBRANCH   1   2
BRANCH   1  14
ATOM     14  S   UNL     1      45.803   8.266  12.866  0.00  0.00    +0.000 S 
BRANCH  14  18
ATOM     15  C   UNL     1      44.414   4.222  11.349  0.00  0.00    +0.000 A 
ATOM     16  C   UNL     1      45.179   5.035  10.511  0.00  0.00    +0.000 A 
ATOM     17  C   UNL     1      45.610   6.279  10.978  0.00  0.00    +0.000 A 
ATOM     18  C   UNL     1      45.265   6.676  12.267  0.00  0.00    +0.000 A 
ATOM     19  N   UNL     1      44.524   5.902  13.089  0.00  0.00    +0.000 NA
ATOM     20  C   UNL     1      44.106   4.703  12.613  0.00  0.00    +0.000 A 
BRANCH  15  22
ATOM     21  N   UNL     1      44.516   2.254   9.922  0.00  0.00    +0.000 N 
ATOM     22  C   UNL     1      43.891   2.900  10.951  0.00  0.00    +0.000 C 
ATOM     23  O   UNL     1      42.952   2.384  11.544  0.00  0.00    +0.000 OA
ATOM     24  H   UNL     1      44.205   1.309   9.734  0.00  0.00    +0.000 HD
ATOM     25  H   UNL     1      45.427   2.521   9.579  0.00  0.00    +0.000 HD
ENDBRANCH  15  22
ENDBRANCH  14  18
ENDBRANCH   1  14
TORSDOF 5
ENDMDL
MODEL 6
REMARK VINA RESULT:    -6.434      2.806      7.267
REMARK INTER + INTRA:          -9.041
REMARK INTER:                  -8.566
REMARK INTRA:                  -0.475
REMARK UNBOUND:                -0.726
REMARK  Name = 
REMARK  5 active torsions:
REMARK  status: ('A' for Active; 'I' for Inactive)
REMARK    1  A    between atoms: C_2  and  C_4
REMARK    2  A    between atoms: C_7  and  S_8
REMARK    3  A    between atoms: S_8  and  C_9
REMARK    4  A    between atoms: C_9  and  C_10
REMARK    5  A    between atoms: C_14  and  C_15
REMARK                            x       y       z     vdW  Elec       q    Type
REMARK                         _______ _______ _______ _____ _____    ______ ____
ROOT
ATOM      1  C   UNL     1      44.618   6.286  10.892  0.00  0.00    +0.000 C 
ENDROOT
BRANCH   1   2
ATOM      2  C   UNL     1      44.645   4.873  10.369  0.00  0.00    +0.000 A 
ATOM      3  C   UNL     1      43.912   3.861  10.990  0.00  0.00    +0.000 A 
ATOM      4  C   UNL     1      43.980   2.584  10.464  0.00  0.00    +0.000 A 
ATOM      5  N   UNL     1      44.720   2.251   9.383  0.00  0.00    +0.000 NA
ATOM      6  C   UNL     1      45.443   3.227   8.782  0.00  0.00    +0.000 A 
ATOM      7  C   UNL     1      45.410   4.547   9.242  0.00  0.00    +0.000 A 
BRANCH   6   8
ATOM      8  C   UNL     1      46.264   2.801   7.647  0.00  0.00    +0.000 A 
ATOM      9  C   UNL     1      46.367   3.534   6.475  0.00  0.00    +0.000 A 
ATOM     10  N   UNL     1      47.107   3.175   5.399  0.00  0.00    +0.000 NA
ATOM     11  C   UNL     1      47.763   2.013   5.510  0.00  0.00    +0.000 A 
ATOM     12  N   UNL     1      47.748   1.201   6.578  0.00  0.00    +0.000 NA
ATOM     13  C   UNL     1      46.991   1.621   7.617  0.00  0.00    +0.000 A 
ENDBRANCH   6   8
ENDBRANCH   1   2
BRANCH   1  14
ATOM     14  S   UNL     1      44.743   6.335  12.709  0.00  0.00    +0.000 S 
BRANCH  14  18
ATOM     15  C   UNL     1      48.903   8.094  13.131  0.00  0.00    +0.000 A 
ATOM     16  C   UNL     1      47.795   8.912  13.357  0.00  0.00    +0.000 A 
ATOM     17  C   UNL     1      46.513   8.370  13.230  0.00  0.00    +0.000 A 
ATOM     18  C   UNL     1      46.375   7.029  12.882  0.00  0.00    +0.000 A 
ATOM     19  N   UNL     1      47.437   6.226  12.658  0.00  0.00    +0.000 NA
ATOM     20  C   UNL     1      48.673   6.773  12.775  0.00  0.00    +0.000 A 
BRANCH  15  22
ATOM     21  N   UNL     1      51.218   7.729  13.786  0.00  0.00    +0.000 N 
ATOM     22  C   UNL     1      50.300   8.566  13.218  0.00  0.00    +0.000 C 
ATOM     23  O   UNL     1      50.631   9.655  12.767  0.00  0.00    +0.000 OA
ATOM     24  H   UNL     1      52.184   8.031  13.744  0.00  0.00    +0.000 HD
ATOM     25  H   UNL     1      51.044   6.746  13.940  0.00  0.00    +0.000 HD
ENDBRANCH  15  22
ENDBRANCH  14  18
ENDBRANCH   1  14
TORSDOF 5
ENDMDL
MODEL 7
REMARK VINA RESULT:    -6.168      4.763      8.368
REMARK INTER + INTRA:          -8.696
REMARK INTER:                  -8.064
REMARK INTRA:                  -0.632
REMARK UNBOUND:                -0.726
REMARK  Name = 
REMARK  5 active torsions:
REMARK  status: ('A' for Active; 'I' for Inactive)
REMARK    1  A    between atoms: C_2  and  C_4
REMARK    2  A    between atoms: C_7  and  S_8
REMARK    3  A    between atoms: S_8  and  C_9
REMARK    4  A    between atoms: C_9  and  C_10
REMARK    5  A    between atoms: C_14  and  C_15
REMARK                            x       y       z     vdW  Elec       q    Type
REMARK                         _______ _______ _______ _____ _____    ______ ____
ROOT
ATOM      1  C   UNL     1      47.741   8.617  13.971  0.00  0.00    +0.000 C 
ENDROOT
BRANCH   1   2
ATOM      2  C   UNL     1      46.561   8.301  13.087  0.00  0.00    +0.000 A 
ATOM      3  C   UNL     1      45.909   9.303  12.370  0.00  0.00    +0.000 A 
ATOM      4  C   UNL     1      44.831   8.950  11.578  0.00  0.00    +0.000 A 
ATOM      5  N   UNL     1      44.365   7.687  11.459  0.00  0.00    +0.000 NA
ATOM      6  C   UNL     1      44.988   6.710  12.162  0.00  0.00    +0.000 A 
ATOM      7  C   UNL     1      46.096   6.985  12.967  0.00  0.00    +0.000 A 
BRANCH   6   8
ATOM      8  C   UNL     1      44.411   5.370  12.034  0.00  0.00    +0.000 A 
ATOM      9  C   UNL     1      44.418   4.445  13.066  0.00  0.00    +0.000 A 
ATOM     10  N   UNL     1      43.903   3.194  12.988  0.00  0.00    +0.000 NA
ATOM     11  C   UNL     1      43.370   2.861  11.807  0.00  0.00    +0.000 A 
ATOM     12  N   UNL     1      43.302   3.649  10.724  0.00  0.00    +0.000 NA
ATOM     13  C   UNL     1      43.832   4.885  10.871  0.00  0.00    +0.000 A 
ENDBRANCH   6   8
ENDBRANCH   1   2
BRANCH   1  14
ATOM     14  S   UNL     1      48.982   7.285  13.939  0.00  0.00    +0.000 S 
BRANCH  14  18
ATOM     15  C   UNL     1      48.435   5.593  18.113  0.00  0.00    +0.000 A 
ATOM     16  C   UNL     1      48.858   6.915  17.967  0.00  0.00    +0.000 A 
ATOM     17  C   UNL     1      49.025   7.438  16.682  0.00  0.00    +0.000 A 
ATOM     18  C   UNL     1      48.763   6.627  15.581  0.00  0.00    +0.000 A 
ATOM     19  N   UNL     1      48.356   5.346  15.705  0.00  0.00    +0.000 NA
ATOM     20  C   UNL     1      48.212   4.853  16.961  0.00  0.00    +0.000 A 
BRANCH  15  22
ATOM     21  N   UNL     1      48.525   3.599  19.504  0.00  0.00    +0.000 N 
ATOM     22  C   UNL     1      48.247   4.934  19.421  0.00  0.00    +0.000 C 
ATOM     23  O   UNL     1      47.888   5.568  20.405  0.00  0.00    +0.000 OA
ATOM     24  H   UNL     1      48.487   3.192  20.430  0.00  0.00    +0.000 HD
ATOM     25  H   UNL     1      49.052   3.103  18.800  0.00  0.00    +0.000 HD
ENDBRANCH  15  22
ENDBRANCH  14  18
ENDBRANCH   1  14
TORSDOF 5
ENDMDL
MODEL 8
REMARK VINA RESULT:    -5.997      4.838      8.212
REMARK INTER + INTRA:          -8.476
REMARK INTER:                  -7.949
REMARK INTRA:                  -0.527
REMARK UNBOUND:                -0.726
REMARK  Name = 
REMARK  5 active torsions:
REMARK  status: ('A' for Active; 'I' for Inactive)
REMARK    1  A    between atoms: C_2  and  C_4
REMARK    2  A    between atoms: C_7  and  S_8
REMARK    3  A    between atoms: S_8  and  C_9
REMARK    4  A    between atoms: C_9  and  C_10
REMARK    5  A    between atoms: C_14  and  C_15
REMARK                            x       y       z     vdW  Elec       q    Type
REMARK                         _______ _______ _______ _____ _____    ______ ____
ROOT
ATOM      1  C   UNL     1      49.508   6.948  15.169  0.00  0.00    +0.000 C 
ENDROOT
BRANCH   1   2
ATOM      2  C   UNL     1      48.686   6.995  13.906  0.00  0.00    +0.000 A 
ATOM      3  C   UNL     1      48.980   7.901  12.888  0.00  0.00    +0.000 A 
ATOM      4  C   UNL     1      48.187   7.898  11.755  0.00  0.00    +0.000 A 
ATOM      5  N   UNL     1      47.135   7.069  11.573  0.00  0.00    +0.000 NA
ATOM      6  C   UNL     1      46.837   6.193  12.564  0.00  0.00    +0.000 A 
ATOM      7  C   UNL     1      47.604   6.122  13.730  0.00  0.00    +0.000 A 
BRANCH   6   8
ATOM      8  C   UNL     1      45.659   5.353  12.335  0.00  0.00    +0.000 A 
ATOM      9  C   UNL     1      45.088   4.571  13.326  0.00  0.00    +0.000 A 
ATOM     10  N   UNL     1      44.005   3.776  13.157  0.00  0.00    +0.000 NA
ATOM     11  C   UNL     1      43.485   3.761  11.924  0.00  0.00    +0.000 A 
ATOM     12  N   UNL     1      43.937   4.459  10.872  0.00  0.00    +0.000 NA
ATOM     13  C   UNL     1      45.020   5.234  11.111  0.00  0.00    +0.000 A 
ENDBRANCH   6   8
ENDBRANCH   1   2
BRANCH   1  14
ATOM     14  S   UNL     1      48.572   6.228  16.555  0.00  0.00    +0.000 S 
BRANCH  14  18
ATOM     15  C   UNL     1      51.384   2.861  17.712  0.00  0.00    +0.000 A 
ATOM     16  C   UNL     1      51.873   4.167  17.667  0.00  0.00    +0.000 A 
ATOM     17  C   UNL     1      51.007   5.205  17.313  0.00  0.00    +0.000 A 
ATOM     18  C   UNL     1      49.679   4.909  17.016  0.00  0.00    +0.000 A 
ATOM     19  N   UNL     1      49.192   3.650  17.052  0.00  0.00    +0.000 NA
ATOM     20  C   UNL     1      50.051   2.655  17.386  0.00  0.00    +0.000 A 
BRANCH  15  22
ATOM     21  N   UNL     1      51.626   0.456  17.993  0.00  0.00    +0.000 N 
ATOM     22  C   UNL     1      52.214   1.688  18.052  0.00  0.00    +0.000 C 
ATOM     23  O   UNL     1      53.397   1.811  18.345  0.00  0.00    +0.000 OA
ATOM     24  H   UNL     1      52.239  -0.338  18.131  0.00  0.00    +0.000 HD
ATOM     25  H   UNL     1      50.747   0.289  17.525  0.00  0.00    +0.000 HD
ENDBRANCH  15  22
ENDBRANCH  14  18
ENDBRANCH   1  14
TORSDOF 5
ENDMDL
MODEL 9
REMARK VINA RESULT:    -5.902      2.742      6.814
REMARK INTER + INTRA:          -8.353
REMARK INTER:                  -7.855
REMARK INTRA:                  -0.498
REMARK UNBOUND:                -0.726
REMARK  Name = 
REMARK  5 active torsions:
REMARK  status: ('A' for Active; 'I' for Inactive)
REMARK    1  A    between atoms: C_2  and  C_4
REMARK    2  A    between atoms: C_7  and  S_8
REMARK    3  A    between atoms: S_8  and  C_9
REMARK    4  A    between atoms: C_9  and  C_10
REMARK    5  A    between atoms: C_14  and  C_15
REMARK                            x       y       z     vdW  Elec       q    Type
REMARK                         _______ _______ _______ _____ _____    ______ ____
ROOT
ATOM      1  C   UNL     1      43.653   2.869  12.303  0.00  0.00    +0.000 C 
ENDROOT
BRANCH   1   2
ATOM      2  C   UNL     1      44.006   3.438  10.953  0.00  0.00    +0.000 A 
ATOM      3  C   UNL     1      43.453   4.639  10.510  0.00  0.00    +0.000 A 
ATOM      4  C   UNL     1      43.815   5.108   9.259  0.00  0.00    +0.000 A 
ATOM      5  N   UNL     1      44.672   4.468   8.433  0.00  0.00    +0.000 NA
ATOM      6  C   UNL     1      45.205   3.295   8.853  0.00  0.00    +0.000 A 
ATOM      7  C   UNL     1      44.905   2.767  10.112  0.00  0.00    +0.000 A 
BRANCH   6   8
ATOM      8  C   UNL     1      46.088   2.621   7.899  0.00  0.00    +0.000 A 
ATOM      9  C   UNL     1      46.456   1.291   8.023  0.00  0.00    +0.000 A 
ATOM     10  N   UNL     1      47.275   0.632   7.169  0.00  0.00    +0.000 NA
ATOM     11  C   UNL     1      47.755   1.357   6.151  0.00  0.00    +0.000 A 
ATOM     12  N   UNL     1      47.490   2.649   5.914  0.00  0.00    +0.000 NA
ATOM     13  C   UNL     1      46.663   3.246   6.803  0.00  0.00    +0.000 A 
ENDBRANCH   6   8
ENDBRANCH   1   2
BRANCH   1  14
ATOM     14  S   UNL     1      43.426   4.180  13.547  0.00  0.00    +0.000 S 
BRANCH  14  18
ATOM     15  C   UNL     1      47.313   6.458  13.016  0.00  0.00    +0.000 A 
ATOM     16  C   UNL     1      47.360   5.124  13.424  0.00  0.00    +0.000 A 
ATOM     17  C   UNL     1      46.163   4.421  13.585  0.00  0.00    +0.000 A 
ATOM     18  C   UNL     1      44.956   5.069  13.334  0.00  0.00    +0.000 A 
ATOM     19  N   UNL     1      44.895   6.360  12.942  0.00  0.00    +0.000 NA
ATOM     20  C   UNL     1      46.067   7.028  12.802  0.00  0.00    +0.000 A 
BRANCH  15  22
ATOM     21  N   UNL     1      48.804   7.724  11.569  0.00  0.00    +0.000 N 
ATOM     22  C   UNL     1      48.513   7.300  12.834  0.00  0.00    +0.000 C 
ATOM     23  O   UNL     1      49.205   7.633  13.788  0.00  0.00    +0.000 OA
ATOM     24  H   UNL     1      49.570   8.381  11.483  0.00  0.00    +0.000 HD
ATOM     25  H   UNL     1      48.139   7.685  10.810  0.00  0.00    +0.000 HD
ENDBRANCH  15  22
ENDBRANCH  14  18
ENDBRANCH   1  14
TORSDOF 5
ENDMDL
