MODEL 1
REMARK VINA RESULT:    -8.540      0.000      0.000
REMARK INTER + INTRA:         -12.377
REMARK INTER:                 -11.536
REMARK INTRA:                  -0.841
REMARK UNBOUND:                -0.841
REMARK  Name = 
REMARK  6 active torsions:
REMARK  status: ('A' for Active; 'I' for Inactive)
REMARK    1  A    between atoms: C_2  and  C_25
REMARK    2  A    between atoms: N_3  and  C_4
REMARK    3  A    between atoms: C_4  and  C_5
REMARK    4  A    between atoms: C_8  and  C_9
REMARK    5  A    between atoms: C_9  and  N_10
REMARK    6  A    between atoms: C_11  and  C_13
REMARK                            x       y       z     vdW  Elec       q    Type
REMARK                         _______ _______ _______ _____ _____    ______ ____
ROOT
ATOM      1  C   UNL     1      45.540   4.300  12.867  0.00  0.00    +0.000 A 
ATOM      2  C   UNL     1      45.512   5.676  12.599  0.00  0.00    +0.000 A 
ATOM      3  C   UNL     1      46.385   6.551  13.257  0.00  0.00    +0.000 A 
ATOM      4  C   UNL     1      47.318   6.065  14.184  0.00  0.00    +0.000 A 
ATOM      5  C   UNL     1      47.333   4.692  14.463  0.00  0.00    +0.000 A 
ATOM      6  C   UNL     1      46.462   3.817  13.803  0.00  0.00    +0.000 A 
ENDROOT
BRANCH   1   7
ATOM      7  C   UNL     1      44.627   3.355  12.128  0.00  0.00    +0.000 C 
BRANCH   7  10
ATOM      8  O   UNL     1      43.996   4.247   9.541  0.00  0.00    +0.000 OA
ATOM      9  C   UNL     1      44.878   3.411   9.686  0.00  0.00    +0.000 C 
ATOM     10  N   UNL     1      45.245   2.889  10.911  0.00  0.00    +0.000 N 
ATOM     11  H   UNL     1      46.111   2.374  10.993  0.00  0.00    +0.000 HD
BRANCH   9  12
ATOM     12  C   UNL     1      45.669   2.933   8.520  0.00  0.00    +0.000 A 
ATOM     13  C   UNL     1      46.015   3.850   7.516  0.00  0.00    +0.000 A 
ATOM     14  C   UNL     1      46.802   3.440   6.437  0.00  0.00    +0.000 A 
ATOM     15  C   UNL     1      47.225   2.117   6.359  0.00  0.00    +0.000 A 
ATOM     16  F   UNL     1      47.995   1.728   5.335  0.00  0.00    +0.000 F 
ATOM     17  C   UNL     1      46.858   1.189   7.329  0.00  0.00    +0.000 A 
ATOM     18  C   UNL     1      46.072   1.594   8.409  0.00  0.00    +0.000 A 
ENDBRANCH   9  12
ENDBRANCH   7  10
ENDBRANCH   1   7
BRANCH   4  19
ATOM     19  C   UNL     1      48.272   6.995  14.890  0.00  0.00    +0.000 C 
BRANCH  19  20
ATOM     20  N   UNL     1      49.381   6.278  15.466  0.00  0.00    +0.000 N 
ATOM     21  C   UNL     1      49.393   5.924  16.792  0.00  0.00    +0.000 C 
ATOM     22  O   UNL     1      48.448   6.164  17.539  0.00  0.00    +0.000 OA
ATOM     23  H   UNL     1      50.256   6.296  14.951  0.00  0.00    +0.000 HD
BRANCH  21  24
ATOM     24  C   UNL     1      50.571   5.184  17.260  0.00  0.00    +0.000 A 
ATOM     25  C   UNL     1      51.692   5.875  17.704  0.00  0.00    +0.000 A 
ATOM     26  S   UNL     1      52.946   4.860  18.261  0.00  0.00    +0.000 S 
ATOM     27  C   UNL     1      52.058   3.461  17.877  0.00  0.00    +0.000 A 
ATOM     28  N   UNL     1      52.580   2.220  18.081  0.00  0.00    +0.000 NA
ATOM     29  C   UNL     1      51.811   1.250  17.717  0.00  0.00    +0.000 A 
ATOM     30  N   UNL     1      50.562   1.407  17.170  0.00  0.00    +0.000 N 
ATOM     31  C   UNL     1      49.982   2.637  16.975  0.00  0.00    +0.000 A 
ATOM     32  O   UNL     1      48.843   2.740  16.531  0.00  0.00    +0.000 OA
ATOM     33  C   UNL     1      50.813   3.763  17.354  0.00  0.00    +0.000 A 
ATOM     34  H   UNL     1      50.006   0.605  16.914  0.00  0.00    +0.000 HD
ENDBRANCH  21  24
ENDBRANCH  19  20
ENDBRANCH   4  19
TORSDOF 6
ENDMDL
MODEL 2
REMARK VINA RESULT:    -8.480      2.071      2.167
REMARK INTER + INTRA:         -12.296
REMARK INTER:                 -11.258
REMARK INTRA:                  -1.038
REMARK UNBOUND:                -0.841
REMARK  Name = 
REMARK  6 active torsions:
REMARK  status: ('A' for Active; 'I' for Inactive)
REMARK    1  A    between atoms: C_2  and  C_25
REMARK    2  A    between atoms: N_3  and  C_4
REMARK    3  A    between atoms: C_4  and  C_5
REMARK    4  A    between atoms: C_8  and  C_9
REMARK    5  A    between atoms: C_9  and  N_10
REMARK    6  A    between atoms: C_11  and  C_13
REMARK                            x       y       z     vdW  Elec       q    Type
REMARK                         _______ _______ _______ _____ _____    ______ ____
ROOT
ATOM      1  C   UNL     1      45.163   4.493  12.482  0.00  0.00    +0.000 A 
ATOM      2  C   UNL     1      44.686   5.809  12.395  0.00  0.00    +0.000 A 
ATOM      3  C   UNL     1      45.437   6.877  12.904  0.00  0.00    +0.000 A 
ATOM      4  C   UNL     1      46.689   6.652  13.492  0.00  0.00    +0.000 A 
ATOM      5  C   UNL     1      47.157   5.335  13.591  0.00  0.00    +0.000 A 
ATOM      6  C   UNL     1      46.408   4.269  13.082  0.00  0.00    +0.000 A 
ENDROOT
BRANCH   1   7
ATOM      7  C   UNL     1      44.373   3.351  11.897  0.00  0.00    +0.000 C 
BRANCH   7  10
ATOM      8  O   UNL     1      44.063   4.346   9.289  0.00  0.00    +0.000 OA
ATOM      9  C   UNL     1      44.819   3.403   9.484  0.00  0.00    +0.000 C 
ATOM     10  N   UNL     1      45.021   2.825  10.721  0.00  0.00    +0.000 N 
ATOM     11  H   UNL     1      45.806   2.203  10.857  0.00  0.00    +0.000 HD
BRANCH   9  12
ATOM     12  C   UNL     1      45.632   2.842   8.370  0.00  0.00    +0.000 A 
ATOM     13  C   UNL     1      45.932   3.662   7.272  0.00  0.00    +0.000 A 
ATOM     14  C   UNL     1      46.738   3.179   6.239  0.00  0.00    +0.000 A 
ATOM     15  C   UNL     1      47.226   1.877   6.301  0.00  0.00    +0.000 A 
ATOM     16  F   UNL     1      48.014   1.420   5.320  0.00  0.00    +0.000 F 
ATOM     17  C   UNL     1      46.906   1.042   7.366  0.00  0.00    +0.000 A 
ATOM     18  C   UNL     1      46.102   1.521   8.402  0.00  0.00    +0.000 A 
ENDBRANCH   9  12
ENDBRANCH   7  10
ENDBRANCH   1   7
BRANCH   4  19
ATOM     19  C   UNL     1      47.513   7.794  14.032  0.00  0.00    +0.000 C 
BRANCH  19  20
ATOM     20  N   UNL     1      48.000   7.515  15.358  0.00  0.00    +0.000 N 
ATOM     21  C   UNL     1      49.295   7.113  15.574  0.00  0.00    +0.000 C 
ATOM     22  O   UNL     1      50.108   7.010  14.659  0.00  0.00    +0.000 OA
ATOM     23  H   UNL     1      47.304   7.348  16.077  0.00  0.00    +0.000 HD
BRANCH  21  24
ATOM     24  C   UNL     1      49.680   6.872  16.970  0.00  0.00    +0.000 A 
ATOM     25  C   UNL     1      50.683   7.635  17.554  0.00  0.00    +0.000 A 
ATOM     26  S   UNL     1      50.963   7.258  19.195  0.00  0.00    +0.000 S 
ATOM     27  C   UNL     1      49.794   6.022  19.167  0.00  0.00    +0.000 A 
ATOM     28  N   UNL     1      49.549   5.263  20.269  0.00  0.00    +0.000 NA
ATOM     29  C   UNL     1      48.660   4.344  20.099  0.00  0.00    +0.000 A 
ATOM     30  N   UNL     1      47.987   4.117  18.924  0.00  0.00    +0.000 N 
ATOM     31  C   UNL     1      48.178   4.877  17.797  0.00  0.00    +0.000 A 
ATOM     32  O   UNL     1      47.523   4.680  16.778  0.00  0.00    +0.000 OA
ATOM     33  C   UNL     1      49.181   5.916  17.932  0.00  0.00    +0.000 A 
ATOM     34  H   UNL     1      47.296   3.386  18.858  0.00  0.00    +0.000 HD
ENDBRANCH  21  24
ENDBRANCH  19  20
ENDBRANCH   4  19
TORSDOF 6
ENDMDL
MODEL 3
REMARK VINA RESULT:    -7.971      4.577      5.502
REMARK INTER + INTRA:         -11.608
REMARK INTER:                 -10.730
REMARK INTRA:                  -0.878
REMARK UNBOUND:                -0.841
REMARK  Name = 
REMARK  6 active torsions:
REMARK  status: ('A' for Active; 'I' for Inactive)
REMARK    1  A    between atoms: C_2  and  C_25
REMARK    2  A    between atoms: N_3  and  C_4
REMARK    3  A    between atoms: C_4  and  C_5
REMARK    4  A    between atoms: C_8  and  C_9
REMARK    5  A    between atoms: C_9  and  N_10
REMARK    6  A    between atoms: C_11  and  C_13
REMARK                            x       y       z     vdW  Elec       q    Type
REMARK                         _______ _______ _______ _____ _____    ______ ____
ROOT
ATOM      1  C   UNL     1      44.968   4.669  12.192  0.00  0.00    +0.000 A 
ATOM      2  C   UNL     1      46.156   4.759  12.932  0.00  0.00    +0.000 A 
ATOM      3  C   UNL     1      46.637   6.002  13.362  0.00  0.00    +0.000 A 
ATOM      4  C   UNL     1      45.930   7.179  13.079  0.00  0.00    +0.000 A 
ATOM      5  C   UNL     1      44.751   7.087  12.326  0.00  0.00    +0.000 A 
ATOM      6  C   UNL     1      44.269   5.845  11.898  0.00  0.00    +0.000 A 
ENDROOT
BRANCH   1   7
ATOM      7  C   UNL     1      44.431   3.327  11.765  0.00  0.00    +0.000 C 
BRANCH   7  10
ATOM      8  O   UNL     1      43.983   4.169   9.123  0.00  0.00    +0.000 OA
ATOM      9  C   UNL     1      44.851   3.336   9.346  0.00  0.00    +0.000 C 
ATOM     10  N   UNL     1      45.132   2.838  10.603  0.00  0.00    +0.000 N 
ATOM     11  H   UNL     1      45.989   2.325  10.754  0.00  0.00    +0.000 HD
BRANCH   9  12
ATOM     12  C   UNL     1      45.721   2.836   8.246  0.00  0.00    +0.000 A 
ATOM     13  C   UNL     1      46.042   3.703   7.191  0.00  0.00    +0.000 A 
ATOM     14  C   UNL     1      46.900   3.277   6.174  0.00  0.00    +0.000 A 
ATOM     15  C   UNL     1      47.419   1.986   6.209  0.00  0.00    +0.000 A 
ATOM     16  F   UNL     1      48.255   1.583   5.244  0.00  0.00    +0.000 F 
ATOM     17  C   UNL     1      47.079   1.105   7.230  0.00  0.00    +0.000 A 
ATOM     18  C   UNL     1      46.223   1.526   8.249  0.00  0.00    +0.000 A 
ENDBRANCH   9  12
ENDBRANCH   7  10
ENDBRANCH   1   7
BRANCH   4  19
ATOM     19  C   UNL     1      46.430   8.522  13.548  0.00  0.00    +0.000 C 
BRANCH  19  20
ATOM     20  N   UNL     1      47.693   8.857  12.943  0.00  0.00    +0.000 N 
ATOM     21  C   UNL     1      47.776   9.764  11.915  0.00  0.00    +0.000 C 
ATOM     22  O   UNL     1      46.789  10.360  11.491  0.00  0.00    +0.000 OA
ATOM     23  H   UNL     1      48.461   8.210  13.094  0.00  0.00    +0.000 HD
BRANCH  21  24
ATOM     24  C   UNL     1      49.119  10.034  11.389  0.00  0.00    +0.000 A 
ATOM     25  C   UNL     1      49.447  11.311  10.950  0.00  0.00    +0.000 A 
ATOM     26  S   UNL     1      51.063  11.460  10.422  0.00  0.00    +0.000 S 
ATOM     27  C   UNL     1      51.366   9.810  10.709  0.00  0.00    +0.000 A 
ATOM     28  N   UNL     1      52.580   9.262  10.433  0.00  0.00    +0.000 NA
ATOM     29  C   UNL     1      52.662   7.996  10.671  0.00  0.00    +0.000 A 
ATOM     30  N   UNL     1      51.637   7.227  11.165  0.00  0.00    +0.000 N 
ATOM     31  C   UNL     1      50.406   7.743  11.487  0.00  0.00    +0.000 A 
ATOM     32  O   UNL     1      49.529   7.038  11.975  0.00  0.00    +0.000 OA
ATOM     33  C   UNL     1      50.258   9.162  11.224  0.00  0.00    +0.000 A 
ATOM     34  H   UNL     1      51.768   6.242  11.337  0.00  0.00    +0.000 HD
ENDBRANCH  21  24
ENDBRANCH  19  20
ENDBRANCH   4  19
TORSDOF 6
ENDMDL
MODEL 4
REMARK VINA RESULT:    -7.665      4.527      9.767
REMARK INTER + INTRA:         -11.195
REMARK INTER:                 -10.303
REMARK INTRA:                  -0.892
REMARK UNBOUND:                -0.841
REMARK  Name = 
REMARK  6 active torsions:
REMARK  status: ('A' for Active; 'I' for Inactive)
REMARK    1  A    between atoms: C_2  and  C_25
REMARK    2  A    between atoms: N_3  and  C_4
REMARK    3  A    between atoms: C_4  and  C_5
REMARK    4  A    between atoms: C_8  and  C_9
REMARK    5  A    between atoms: C_9  and  N_10
REMARK    6  A    between atoms: C_11  and  C_13
REMARK                            x       y       z     vdW  Elec       q    Type
REMARK                         _______ _______ _______ _____ _____    ______ ____
ROOT
ATOM      1  C   UNL     1      51.422   3.161  17.740  0.00  0.00    +0.000 A 
ATOM      2  C   UNL     1      50.714   4.333  18.041  0.00  0.00    +0.000 A 
ATOM      3  C   UNL     1      49.340   4.425  17.782  0.00  0.00    +0.000 A 
ATOM      4  C   UNL     1      48.642   3.339  17.236  0.00  0.00    +0.000 A 
ATOM      5  C   UNL     1      49.355   2.174  16.922  0.00  0.00    +0.000 A 
ATOM      6  C   UNL     1      50.727   2.081  17.182  0.00  0.00    +0.000 A 
ENDROOT
BRANCH   1   7
ATOM      7  C   UNL     1      52.891   3.049  18.057  0.00  0.00    +0.000 C 
BRANCH   7  10
ATOM      8  O   UNL     1      54.337   1.190  19.587  0.00  0.00    +0.000 OA
ATOM      9  C   UNL     1      54.108   0.946  18.409  0.00  0.00    +0.000 C 
ATOM     10  N   UNL     1      53.431   1.805  17.566  0.00  0.00    +0.000 N 
ATOM     11  H   UNL     1      53.088   1.463  16.680  0.00  0.00    +0.000 HD
BRANCH   9  12
ATOM     12  C   UNL     1      54.514  -0.356  17.812  0.00  0.00    +0.000 A 
ATOM     13  C   UNL     1      54.583  -1.486  18.640  0.00  0.00    +0.000 A 
ATOM     14  C   UNL     1      54.908  -2.731  18.095  0.00  0.00    +0.000 A 
ATOM     15  C   UNL     1      55.177  -2.836  16.734  0.00  0.00    +0.000 A 
ATOM     16  F   UNL     1      55.471  -4.031  16.209  0.00  0.00    +0.000 F 
ATOM     17  C   UNL     1      55.148  -1.716  15.909  0.00  0.00    +0.000 A 
ATOM     18  C   UNL     1      54.822  -0.470  16.448  0.00  0.00    +0.000 A 
ENDBRANCH   9  12
ENDBRANCH   7  10
ENDBRANCH   1   7
BRANCH   4  19
ATOM     19  C   UNL     1      47.161   3.421  16.965  0.00  0.00    +0.000 C 
BRANCH  19  20
ATOM     20  N   UNL     1      46.860   4.412  15.964  0.00  0.00    +0.000 N 
ATOM     21  C   UNL     1      46.976   4.134  14.624  0.00  0.00    +0.000 C 
ATOM     22  O   UNL     1      47.302   3.023  14.215  0.00  0.00    +0.000 OA
ATOM     23  H   UNL     1      46.840   5.380  16.268  0.00  0.00    +0.000 HD
BRANCH  21  24
ATOM     24  C   UNL     1      46.628   5.219  13.700  0.00  0.00    +0.000 A 
ATOM     25  C   UNL     1      47.543   6.233  13.445  0.00  0.00    +0.000 A 
ATOM     26  S   UNL     1      46.995   7.381  12.307  0.00  0.00    +0.000 S 
ATOM     27  C   UNL     1      45.494   6.595  12.156  0.00  0.00    +0.000 A 
ATOM     28  N   UNL     1      44.522   7.089  11.341  0.00  0.00    +0.000 NA
ATOM     29  C   UNL     1      43.424   6.411  11.345  0.00  0.00    +0.000 A 
ATOM     30  N   UNL     1      43.210   5.278  12.090  0.00  0.00    +0.000 N 
ATOM     31  C   UNL     1      44.171   4.726  12.902  0.00  0.00    +0.000 A 
ATOM     32  O   UNL     1      43.964   3.683  13.514  0.00  0.00    +0.000 OA
ATOM     33  C   UNL     1      45.421   5.460  12.943  0.00  0.00    +0.000 A 
ATOM     34  H   UNL     1      42.330   4.788  12.043  0.00  0.00    +0.000 HD
ENDBRANCH  21  24
ENDBRANCH  19  20
ENDBRANCH   4  19
TORSDOF 6
ENDMDL
MODEL 5
REMARK VINA RESULT:    -7.354      2.982      3.848
REMARK INTER + INTRA:         -10.775
REMARK INTER:                  -9.711
REMARK INTRA:                  -1.064
REMARK UNBOUND:                -0.841
REMARK  Name = 
REMARK  6 active torsions:
REMARK  status: ('A' for Active; 'I' for Inactive)
REMARK    1  A    between atoms: C_2  and  C_25
REMARK    2  A    between atoms: N_3  and  C_4
REMARK    3  A    between atoms: C_4  and  C_5
REMARK    4  A    between atoms: C_8  and  C_9
REMARK    5  A    between atoms: C_9  and  N_10
REMARK    6  A    between atoms: C_11  and  C_13
REMARK                            x       y       z     vdW  Elec       q    Type
REMARK                         _______ _______ _______ _____ _____    ______ ____
ROOT
ATOM      1  C   UNL     1      45.181   5.175  12.592  0.00  0.00    +0.000 A 
ATOM      2  C   UNL     1      44.831   6.510  12.343  0.00  0.00    +0.000 A 
ATOM      3  C   UNL     1      45.627   7.559  12.819  0.00  0.00    +0.000 A 
ATOM      4  C   UNL     1      46.801   7.294  13.538  0.00  0.00    +0.000 A 
ATOM      5  C   UNL     1      47.140   5.960  13.799  0.00  0.00    +0.000 A 
ATOM      6  C   UNL     1      46.347   4.911  13.321  0.00  0.00    +0.000 A 
ENDROOT
BRANCH   1   7
ATOM      7  C   UNL     1      44.345   4.047  12.043  0.00  0.00    +0.000 C 
BRANCH   7  10
ATOM      8  O   UNL     1      43.721   4.466   9.337  0.00  0.00    +0.000 OA
ATOM      9  C   UNL     1      44.636   3.707   9.629  0.00  0.00    +0.000 C 
ATOM     10  N   UNL     1      45.003   3.413  10.927  0.00  0.00    +0.000 N 
ATOM     11  H   UNL     1      45.888   2.959  11.103  0.00  0.00    +0.000 HD
BRANCH   9  12
ATOM     12  C   UNL     1      45.466   3.077   8.567  0.00  0.00    +0.000 A 
ATOM     13  C   UNL     1      45.878   3.860   7.477  0.00  0.00    +0.000 A 
ATOM     14  C   UNL     1      46.703   3.309   6.494  0.00  0.00    +0.000 A 
ATOM     15  C   UNL     1      47.098   1.978   6.595  0.00  0.00    +0.000 A 
ATOM     16  F   UNL     1      47.903   1.455   5.663  0.00  0.00    +0.000 F 
ATOM     17  C   UNL     1      46.667   1.181   7.651  0.00  0.00    +0.000 A 
ATOM     18  C   UNL     1      45.843   1.728   8.637  0.00  0.00    +0.000 A 
ENDBRANCH   9  12
ENDBRANCH   7  10
ENDBRANCH   1   7
BRANCH   4  19
ATOM     19  C   UNL     1      47.674   8.414  14.046  0.00  0.00    +0.000 C 
BRANCH  19  20
ATOM     20  N   UNL     1      48.099   8.181  15.402  0.00  0.00    +0.000 N 
ATOM     21  C   UNL     1      49.428   8.187  15.746  0.00  0.00    +0.000 C 
ATOM     22  O   UNL     1      50.312   8.429  14.927  0.00  0.00    +0.000 OA
ATOM     23  H   UNL     1      47.430   7.738  16.023  0.00  0.00    +0.000 HD
BRANCH  21  24
ATOM     24  C   UNL     1      49.738   7.951  17.160  0.00  0.00    +0.000 A 
ATOM     25  C   UNL     1      50.656   6.970  17.514  0.00  0.00    +0.000 A 
ATOM     26  S   UNL     1      50.936   6.868  19.195  0.00  0.00    +0.000 S 
ATOM     27  C   UNL     1      49.799   8.093  19.513  0.00  0.00    +0.000 A 
ATOM     28  N   UNL     1      49.526   8.482  20.789  0.00  0.00    +0.000 NA
ATOM     29  C   UNL     1      48.623   9.398  20.887  0.00  0.00    +0.000 A 
ATOM     30  N   UNL     1      47.969   9.966  19.822  0.00  0.00    +0.000 N 
ATOM     31  C   UNL     1      48.234   9.628  18.517  0.00  0.00    +0.000 A 
ATOM     32  O   UNL     1      47.668  10.192  17.586  0.00  0.00    +0.000 OA
ATOM     33  C   UNL     1      49.233   8.590  18.354  0.00  0.00    +0.000 A 
ATOM     34  H   UNL     1      47.277  10.686  19.965  0.00  0.00    +0.000 HD
ENDBRANCH  21  24
ENDBRANCH  19  20
ENDBRANCH   4  19
TORSDOF 6
ENDMDL
MODEL 6
REMARK VINA RESULT:    -7.274      3.673      4.401
REMARK INTER + INTRA:         -10.667
REMARK INTER:                  -9.719
REMARK INTRA:                  -0.949
REMARK UNBOUND:                -0.841
REMARK  Name = 
REMARK  6 active torsions:
REMARK  status: ('A' for Active; 'I' for Inactive)
REMARK    1  A    between atoms: C_2  and  C_25
REMARK    2  A    between atoms: N_3  and  C_4
REMARK    3  A    between atoms: C_4  and  C_5
REMARK    4  A    between atoms: C_8  and  C_9
REMARK    5  A    between atoms: C_9  and  N_10
REMARK    6  A    between atoms: C_11  and  C_13
REMARK                            x       y       z     vdW  Elec       q    Type
REMARK                         _______ _______ _______ _____ _____    ______ ____
ROOT
ATOM      1  C   UNL     1      45.572   6.108  12.757  0.00  0.00    +0.000 A 
ATOM      2  C   UNL     1      46.869   5.812  13.200  0.00  0.00    +0.000 A 
ATOM      3  C   UNL     1      47.732   6.832  13.618  0.00  0.00    +0.000 A 
ATOM      4  C   UNL     1      47.309   8.169  13.621  0.00  0.00    +0.000 A 
ATOM      5  C   UNL     1      46.018   8.464  13.163  0.00  0.00    +0.000 A 
ATOM      6  C   UNL     1      45.154   7.444  12.748  0.00  0.00    +0.000 A 
ENDROOT
BRANCH   1   7
ATOM      7  C   UNL     1      44.630   5.005  12.346  0.00  0.00    +0.000 C 
BRANCH   7  10
ATOM      8  O   UNL     1      43.548   4.753   9.767  0.00  0.00    +0.000 OA
ATOM      9  C   UNL     1      44.596   4.179  10.035  0.00  0.00    +0.000 C 
ATOM     10  N   UNL     1      45.195   4.217  11.278  0.00  0.00    +0.000 N 
ATOM     11  H   UNL     1      46.152   3.910  11.378  0.00  0.00    +0.000 HD
BRANCH   9  12
ATOM     12  C   UNL     1      45.337   3.425   8.986  0.00  0.00    +0.000 A 
ATOM     13  C   UNL     1      45.996   4.143   7.977  0.00  0.00    +0.000 A 
ATOM     14  C   UNL     1      46.744   3.464   7.012  0.00  0.00    +0.000 A 
ATOM     15  C   UNL     1      46.815   2.075   7.051  0.00  0.00    +0.000 A 
ATOM     16  F   UNL     1      47.546   1.425   6.137  0.00  0.00    +0.000 F 
ATOM     17  C   UNL     1      46.135   1.350   8.024  0.00  0.00    +0.000 A 
ATOM     18  C   UNL     1      45.388   2.023   8.992  0.00  0.00    +0.000 A 
ENDBRANCH   9  12
ENDBRANCH   7  10
ENDBRANCH   1   7
BRANCH   4  19
ATOM     19  C   UNL     1      48.225   9.275  14.081  0.00  0.00    +0.000 C 
BRANCH  19  20
ATOM     20  N   UNL     1      48.065   9.544  15.487  0.00  0.00    +0.000 N 
ATOM     21  C   UNL     1      49.146   9.815  16.290  0.00  0.00    +0.000 C 
ATOM     22  O   UNL     1      50.289   9.880  15.845  0.00  0.00    +0.000 OA
ATOM     23  H   UNL     1      47.193   9.251  15.914  0.00  0.00    +0.000 HD
BRANCH  21  24
ATOM     24  C   UNL     1      48.857  10.087  17.703  0.00  0.00    +0.000 A 
ATOM     25  C   UNL     1      49.032  11.367  18.212  0.00  0.00    +0.000 A 
ATOM     26  S   UNL     1      48.600  11.516  19.856  0.00  0.00    +0.000 S 
ATOM     27  C   UNL     1      48.216   9.862  19.961  0.00  0.00    +0.000 A 
ATOM     28  N   UNL     1      47.798   9.311  21.133  0.00  0.00    +0.000 NA
ATOM     29  C   UNL     1      47.571   8.042  21.077  0.00  0.00    +0.000 A 
ATOM     30  N   UNL     1      47.721   7.272  19.951  0.00  0.00    +0.000 N 
ATOM     31  C   UNL     1      48.109   7.789  18.740  0.00  0.00    +0.000 A 
ATOM     32  O   UNL     1      48.184   7.081  17.741  0.00  0.00    +0.000 OA
ATOM     33  C   UNL     1      48.392   9.211  18.753  0.00  0.00    +0.000 A 
ATOM     34  H   UNL     1      47.519   6.284  19.971  0.00  0.00    +0.000 HD
ENDBRANCH  21  24
ENDBRANCH  19  20
ENDBRANCH   4  19
TORSDOF 6
ENDMDL
MODEL 7
REMARK VINA RESULT:    -7.226      3.849      9.260
REMARK INTER + INTRA:         -10.601
REMARK INTER:                  -9.562
REMARK INTRA:                  -1.040
REMARK UNBOUND:                -0.841
REMARK  Name = 
REMARK  6 active torsions:
REMARK  status: ('A' for Active; 'I' for Inactive)
REMARK    1  A    between atoms: C_2  and  C_25
REMARK    2  A    between atoms: N_3  and  C_4
REMARK    3  A    between atoms: C_4  and  C_5
REMARK    4  A    between atoms: C_8  and  C_9
REMARK    5  A    between atoms: C_9  and  N_10
REMARK    6  A    between atoms: C_11  and  C_13
REMARK                            x       y       z     vdW  Elec       q    Type
REMARK                         _______ _______ _______ _____ _____    ______ ____
ROOT
ATOM      1  C   UNL     1      49.407   7.854  15.691  0.00  0.00    +0.000 A 
ATOM      2  C   UNL     1      48.450   8.862  15.507  0.00  0.00    +0.000 A 
ATOM      3  C   UNL     1      47.672   8.906  14.343  0.00  0.00    +0.000 A 
ATOM      4  C   UNL     1      47.822   7.932  13.347  0.00  0.00    +0.000 A 
ATOM      5  C   UNL     1      48.790   6.934  13.526  0.00  0.00    +0.000 A 
ATOM      6  C   UNL     1      49.566   6.888  14.690  0.00  0.00    +0.000 A 
ENDROOT
BRANCH   1   7
ATOM      7  C   UNL     1      50.214   7.785  16.962  0.00  0.00    +0.000 C 
BRANCH   7  10
ATOM      8  O   UNL     1      49.195   5.652  18.479  0.00  0.00    +0.000 OA
ATOM      9  C   UNL     1      50.240   5.499  17.860  0.00  0.00    +0.000 C 
ATOM     10  N   UNL     1      50.837   6.491  17.107  0.00  0.00    +0.000 N 
ATOM     11  H   UNL     1      51.568   6.248  16.454  0.00  0.00    +0.000 HD
BRANCH   9  12
ATOM     12  C   UNL     1      50.921   4.176  17.837  0.00  0.00    +0.000 A 
ATOM     13  C   UNL     1      50.208   3.057  17.380  0.00  0.00    +0.000 A 
ATOM     14  C   UNL     1      50.839   1.813  17.297  0.00  0.00    +0.000 A 
ATOM     15  C   UNL     1      52.170   1.692  17.684  0.00  0.00    +0.000 A 
ATOM     16  F   UNL     1      52.780   0.505  17.588  0.00  0.00    +0.000 F 
ATOM     17  C   UNL     1      52.877   2.786  18.174  0.00  0.00    +0.000 A 
ATOM     18  C   UNL     1      52.251   4.031  18.257  0.00  0.00    +0.000 A 
ENDBRANCH   9  12
ENDBRANCH   7  10
ENDBRANCH   1   7
BRANCH   4  19
ATOM     19  C   UNL     1      46.982   7.960  12.095  0.00  0.00    +0.000 C 
BRANCH  19  20
ATOM     20  N   UNL     1      46.433   6.662  11.796  0.00  0.00    +0.000 N 
ATOM     21  C   UNL     1      45.085   6.481  11.615  0.00  0.00    +0.000 C 
ATOM     22  O   UNL     1      44.289   7.416  11.661  0.00  0.00    +0.000 OA
ATOM     23  H   UNL     1      47.017   5.859  12.002  0.00  0.00    +0.000 HD
BRANCH  21  24
ATOM     24  C   UNL     1      44.646   5.116  11.301  0.00  0.00    +0.000 A 
ATOM     25  C   UNL     1      43.858   4.416  12.207  0.00  0.00    +0.000 A 
ATOM     26  S   UNL     1      43.395   2.868  11.658  0.00  0.00    +0.000 S 
ATOM     27  C   UNL     1      44.277   3.056  10.215  0.00  0.00    +0.000 A 
ATOM     28  N   UNL     1      44.328   2.060   9.289  0.00  0.00    +0.000 NA
ATOM     29  C   UNL     1      45.057   2.325   8.258  0.00  0.00    +0.000 A 
ATOM     30  N   UNL     1      45.737   3.501   8.065  0.00  0.00    +0.000 N 
ATOM     31  C   UNL     1      45.690   4.545   8.956  0.00  0.00    +0.000 A 
ATOM     32  O   UNL     1      46.269   5.603   8.729  0.00  0.00    +0.000 OA
ATOM     33  C   UNL     1      44.895   4.291  10.142  0.00  0.00    +0.000 A 
ATOM     34  H   UNL     1      46.285   3.651   7.231  0.00  0.00    +0.000 HD
ENDBRANCH  21  24
ENDBRANCH  19  20
ENDBRANCH   4  19
TORSDOF 6
ENDMDL
MODEL 8
REMARK VINA RESULT:    -7.032      4.161      8.984
REMARK INTER + INTRA:         -10.340
REMARK INTER:                  -9.338
REMARK INTRA:                  -1.002
REMARK UNBOUND:                -0.841
REMARK  Name = 
REMARK  6 active torsions:
REMARK  status: ('A' for Active; 'I' for Inactive)
REMARK    1  A    between atoms: C_2  and  C_25
REMARK    2  A    between atoms: N_3  and  C_4
REMARK    3  A    between atoms: C_4  and  C_5
REMARK    4  A    between atoms: C_8  and  C_9
REMARK    5  A    between atoms: C_9  and  N_10
REMARK    6  A    between atoms: C_11  and  C_13
REMARK                            x       y       z     vdW  Elec       q    Type
REMARK                         _______ _______ _______ _____ _____    ______ ____
ROOT
ATOM      1  C   UNL     1      49.305   7.722  15.995  0.00  0.00    +0.000 A 
ATOM      2  C   UNL     1      48.302   8.666  15.732  0.00  0.00    +0.000 A 
ATOM      3  C   UNL     1      47.868   8.901  14.421  0.00  0.00    +0.000 A 
ATOM      4  C   UNL     1      48.413   8.183  13.348  0.00  0.00    +0.000 A 
ATOM      5  C   UNL     1      49.426   7.251  13.612  0.00  0.00    +0.000 A 
ATOM      6  C   UNL     1      49.859   7.015  14.921  0.00  0.00    +0.000 A 
ENDROOT
BRANCH   1   7
ATOM      7  C   UNL     1      49.743   7.442  17.409  0.00  0.00    +0.000 C 
BRANCH   7  10
ATOM      8  O   UNL     1      48.841   5.064  18.602  0.00  0.00    +0.000 OA
ATOM      9  C   UNL     1      49.945   5.086  18.072  0.00  0.00    +0.000 C 
ATOM     10  N   UNL     1      50.490   6.210  17.483  0.00  0.00    +0.000 N 
ATOM     11  H   UNL     1      51.295   6.114  16.881  0.00  0.00    +0.000 HD
BRANCH   9  12
ATOM     12  C   UNL     1      50.767   3.849  17.982  0.00  0.00    +0.000 A 
ATOM     13  C   UNL     1      50.213   2.712  17.374  0.00  0.00    +0.000 A 
ATOM     14  C   UNL     1      50.980   1.554  17.228  0.00  0.00    +0.000 A 
ATOM     15  C   UNL     1      52.289   1.534  17.702  0.00  0.00    +0.000 A 
ATOM     16  F   UNL     1      53.031   0.431  17.545  0.00  0.00    +0.000 F 
ATOM     17  C   UNL     1      52.838   2.642  18.338  0.00  0.00    +0.000 A 
ATOM     18  C   UNL     1      52.075   3.802  18.486  0.00  0.00    +0.000 A 
ENDBRANCH   9  12
ENDBRANCH   7  10
ENDBRANCH   1   7
BRANCH   4  19
ATOM     19  C   UNL     1      47.945   8.417  11.935  0.00  0.00    +0.000 C 
BRANCH  19  20
ATOM     20  N   UNL     1      47.348   7.233  11.371  0.00  0.00    +0.000 N 
ATOM     21  C   UNL     1      45.990   7.034  11.401  0.00  0.00    +0.000 C 
ATOM     22  O   UNL     1      45.219   7.866  11.870  0.00  0.00    +0.000 OA
ATOM     23  H   UNL     1      47.961   6.440  11.216  0.00  0.00    +0.000 HD
BRANCH  21  24
ATOM     24  C   UNL     1      45.498   5.797  10.783  0.00  0.00    +0.000 A 
ATOM     25  C   UNL     1      45.745   5.548   9.439  0.00  0.00    +0.000 A 
ATOM     26  S   UNL     1      45.150   4.042   8.901  0.00  0.00    +0.000 S 
ATOM     27  C   UNL     1      44.493   3.693  10.431  0.00  0.00    +0.000 A 
ATOM     28  N   UNL     1      43.805   2.540  10.652  0.00  0.00    +0.000 NA
ATOM     29  C   UNL     1      43.336   2.419  11.849  0.00  0.00    +0.000 A 
ATOM     30  N   UNL     1      43.497   3.346  12.848  0.00  0.00    +0.000 N 
ATOM     31  C   UNL     1      44.209   4.508  12.679  0.00  0.00    +0.000 A 
ATOM     32  O   UNL     1      44.377   5.292  13.608  0.00  0.00    +0.000 OA
ATOM     33  C   UNL     1      44.745   4.700  11.345  0.00  0.00    +0.000 A 
ATOM     34  H   UNL     1      43.111   3.188  13.766  0.00  0.00    +0.000 HD
ENDBRANCH  21  24
ENDBRANCH  19  20
ENDBRANCH   4  19
TORSDOF 6
ENDMDL
MODEL 9
REMARK VINA RESULT:    -6.824      2.993      3.771
REMARK INTER + INTRA:         -10.060
REMARK INTER:                  -9.552
REMARK INTRA:                  -0.508
REMARK UNBOUND:                -0.841
REMARK  Name = 
REMARK  6 active torsions:
REMARK  status: ('A' for Active; 'I' for Inactive)
REMARK    1  A    between atoms: C_2  and  C_25
REMARK    2  A    between atoms: N_3  and  C_4
REMARK    3  A    between atoms: C_4  and  C_5
REMARK    4  A    between atoms: C_8  and  C_9
REMARK    5  A    between atoms: C_9  and  N_10
REMARK    6  A    between atoms: C_11  and  C_13
REMARK                            x       y       z     vdW  Elec       q    Type
REMARK                         _______ _______ _______ _____ _____    ______ ____
ROOT
ATOM      1  C   UNL     1      45.400   5.357  12.697  0.00  0.00    +0.000 A 
ATOM      2  C   UNL     1      44.876   6.638  12.470  0.00  0.00    +0.000 A 
ATOM      3  C   UNL     1      45.606   7.781  12.820  0.00  0.00    +0.000 A 
ATOM      4  C   UNL     1      46.883   7.666  13.386  0.00  0.00    +0.000 A 
ATOM      5  C   UNL     1      47.398   6.385  13.626  0.00  0.00    +0.000 A 
ATOM      6  C   UNL     1      46.670   5.243  13.274  0.00  0.00    +0.000 A 
ENDROOT
BRANCH   1   7
ATOM      7  C   UNL     1      44.630   4.129  12.282  0.00  0.00    +0.000 C 
BRANCH   7  10
ATOM      8  O   UNL     1      43.732   4.388   9.634  0.00  0.00    +0.000 OA
ATOM      9  C   UNL     1      44.729   3.717   9.864  0.00  0.00    +0.000 C 
ATOM     10  N   UNL     1      45.235   3.506  11.131  0.00  0.00    +0.000 N 
ATOM     11  H   UNL     1      46.167   3.131  11.237  0.00  0.00    +0.000 HD
BRANCH   9  12
ATOM     12  C   UNL     1      45.510   3.113   8.750  0.00  0.00    +0.000 A 
ATOM     13  C   UNL     1      46.001   3.952   7.737  0.00  0.00    +0.000 A 
ATOM     14  C   UNL     1      46.782   3.420   6.708  0.00  0.00    +0.000 A 
ATOM     15  C   UNL     1      47.055   2.055   6.688  0.00  0.00    +0.000 A 
ATOM     16  F   UNL     1      47.819   1.549   5.713  0.00  0.00    +0.000 F 
ATOM     17  C   UNL     1      46.543   1.208   7.666  0.00  0.00    +0.000 A 
ATOM     18  C   UNL     1      45.763   1.735   8.697  0.00  0.00    +0.000 A 
ENDBRANCH   9  12
ENDBRANCH   7  10
ENDBRANCH   1   7
BRANCH   4  19
ATOM     19  C   UNL     1      47.685   8.889  13.755  0.00  0.00    +0.000 C 
BRANCH  19  20
ATOM     20  N   UNL     1      49.091   8.592  13.851  0.00  0.00    +0.000 N 
ATOM     21  C   UNL     1      50.023   9.308  13.141  0.00  0.00    +0.000 C 
ATOM     22  O   UNL     1      49.711  10.256  12.426  0.00  0.00    +0.000 OA
ATOM     23  H   UNL     1      49.343   7.680  14.219  0.00  0.00    +0.000 HD
BRANCH  21  24
ATOM     24  C   UNL     1      51.426   8.921  13.331  0.00  0.00    +0.000 A 
ATOM     25  C   UNL     1      52.391   9.348  12.427  0.00  0.00    +0.000 A 
ATOM     26  S   UNL     1      53.974   8.853  12.829  0.00  0.00    +0.000 S 
ATOM     27  C   UNL     1      53.419   8.003  14.195  0.00  0.00    +0.000 A 
ATOM     28  N   UNL     1      54.281   7.309  14.987  0.00  0.00    +0.000 NA
ATOM     29  C   UNL     1      53.722   6.687  15.970  0.00  0.00    +0.000 A 
ATOM     30  N   UNL     1      52.376   6.700  16.236  0.00  0.00    +0.000 N 
ATOM     31  C   UNL     1      51.473   7.411  15.484  0.00  0.00    +0.000 A 
ATOM     32  O   UNL     1      50.283   7.442  15.780  0.00  0.00    +0.000 OA
ATOM     33  C   UNL     1      52.050   8.117  14.356  0.00  0.00    +0.000 A 
ATOM     34  H   UNL     1      52.001   6.199  17.027  0.00  0.00    +0.000 HD
ENDBRANCH  21  24
ENDBRANCH  19  20
ENDBRANCH   4  19
TORSDOF 6
ENDMDL
