MODEL 1
REMARK VINA RESULT:    -8.854      0.000      0.000
REMARK INTER + INTRA:         -12.341
REMARK INTER:                 -11.443
REMARK INTRA:                  -0.898
REMARK UNBOUND:                -0.898
REMARK  Name = 
REMARK  6 active torsions:
REMARK  status: ('A' for Active; 'I' for Inactive)
REMARK    1  A    between atoms: C_1  and  C_2
REMARK    2  A    between atoms: C_4  and  C_5
REMARK    3  A    between atoms: C_5  and  N_6
REMARK    4  A    between atoms: C_7  and  C_9
REMARK    5  A    between atoms: C_21  and  C_22
REMARK    6  A    between atoms: C_22  and  C_23
REMARK                            x       y       z     vdW  Elec       q    Type
REMARK                         _______ _______ _______ _____ _____    ______ ____
ROOT
ATOM      1  C   UNL     1      45.728   7.372  12.544  0.00  0.00    +0.000 C 
ENDROOT
BRANCH   1   5
ATOM      2  C   UNL     1      43.469   2.963  11.787  0.00  0.00    +0.000 C 
ATOM      3  C   UNL     1      44.368   4.040  11.242  0.00  0.00    +0.000 A 
ATOM      4  C   UNL     1      44.634   5.154  12.062  0.00  0.00    +0.000 A 
ATOM      5  C   UNL     1      45.462   6.201  11.635  0.00  0.00    +0.000 A 
ATOM      6  C   UNL     1      45.998   6.149  10.347  0.00  0.00    +0.000 A 
ATOM      7  C   UNL     1      45.708   5.069   9.507  0.00  0.00    +0.000 A 
ATOM      8  C   UNL     1      44.891   4.005   9.933  0.00  0.00    +0.000 A 
BRANCH   8   9
ATOM      9  C   UNL     1      44.540   2.913   8.937  0.00  0.00    +0.000 C 
BRANCH   9  10
ATOM     10  C   UNL     1      45.566   2.536   7.886  0.00  0.00    +0.000 A 
ATOM     11  C   UNL     1      46.402   1.430   8.039  0.00  0.00    +0.000 A 
ATOM     12  C   UNL     1      47.466   1.250   7.156  0.00  0.00    +0.000 A 
ATOM     13  C   UNL     1      47.672   2.172   6.139  0.00  0.00    +0.000 A 
ATOM     14  C   UNL     1      46.788   3.230   6.035  0.00  0.00    +0.000 A 
ATOM     15  N   UNL     1      45.752   3.432   6.881  0.00  0.00    +0.000 NA
ENDBRANCH   9  10
ENDBRANCH   8   9
ENDBRANCH   1   5
BRANCH   1  16
ATOM     16  N   UNL     1      46.417   6.964  13.743  0.00  0.00    +0.000 N 
ATOM     17  C   UNL     1      47.777   6.780  13.740  0.00  0.00    +0.000 C 
ATOM     18  O   UNL     1      48.457   7.000  12.742  0.00  0.00    +0.000 OA
ATOM     19  H   UNL     1      45.857   6.563  14.490  0.00  0.00    +0.000 HD
BRANCH  17  20
ATOM     20  C   UNL     1      48.394   6.370  15.008  0.00  0.00    +0.000 A 
ATOM     21  C   UNL     1      49.433   7.126  15.536  0.00  0.00    +0.000 A 
ATOM     22  S   UNL     1      50.004   6.552  17.035  0.00  0.00    +0.000 S 
ATOM     23  C   UNL     1      48.920   5.241  17.007  0.00  0.00    +0.000 A 
ATOM     24  N   UNL     1      48.906   4.327  18.014  0.00  0.00    +0.000 NA
ATOM     25  C   UNL     1      48.064   3.363  17.845  0.00  0.00    +0.000 A 
ATOM     26  N   UNL     1      47.227   3.237  16.769  0.00  0.00    +0.000 N 
ATOM     27  C   UNL     1      47.180   4.156  15.746  0.00  0.00    +0.000 A 
ATOM     28  O   UNL     1      46.387   4.038  14.818  0.00  0.00    +0.000 OA
ATOM     29  C   UNL     1      48.122   5.250  15.877  0.00  0.00    +0.000 A 
ATOM     30  H   UNL     1      46.580   2.464  16.704  0.00  0.00    +0.000 HD
ENDBRANCH  17  20
ENDBRANCH   1  16
TORSDOF 5
ENDMDL
MODEL 2
REMARK VINA RESULT:    -8.747      1.007      1.240
REMARK INTER + INTRA:         -12.201
REMARK INTER:                 -11.136
REMARK INTRA:                  -1.065
REMARK UNBOUND:                -0.898
REMARK  Name = 
REMARK  6 active torsions:
REMARK  status: ('A' for Active; 'I' for Inactive)
REMARK    1  A    between atoms: C_1  and  C_2
REMARK    2  A    between atoms: C_4  and  C_5
REMARK    3  A    between atoms: C_5  and  N_6
REMARK    4  A    between atoms: C_7  and  C_9
REMARK    5  A    between atoms: C_21  and  C_22
REMARK    6  A    between atoms: C_22  and  C_23
REMARK                            x       y       z     vdW  Elec       q    Type
REMARK                         _______ _______ _______ _____ _____    ______ ____
ROOT
ATOM      1  C   UNL     1      46.841   7.999  13.235  0.00  0.00    +0.000 C 
ENDROOT
BRANCH   1   5
ATOM      2  C   UNL     1      42.845   5.145  12.239  0.00  0.00    +0.000 C 
ATOM      3  C   UNL     1      44.208   5.616  11.810  0.00  0.00    +0.000 A 
ATOM      4  C   UNL     1      44.880   6.535  12.640  0.00  0.00    +0.000 A 
ATOM      5  C   UNL     1      46.153   7.023  12.318  0.00  0.00    +0.000 A 
ATOM      6  C   UNL     1      46.744   6.615  11.121  0.00  0.00    +0.000 A 
ATOM      7  C   UNL     1      46.072   5.736  10.267  0.00  0.00    +0.000 A 
ATOM      8  C   UNL     1      44.799   5.228  10.590  0.00  0.00    +0.000 A 
BRANCH   8   9
ATOM      9  C   UNL     1      44.085   4.353   9.572  0.00  0.00    +0.000 C 
BRANCH   9  10
ATOM     10  C   UNL     1      44.920   3.474   8.663  0.00  0.00    +0.000 A 
ATOM     11  C   UNL     1      45.254   2.165   9.011  0.00  0.00    +0.000 A 
ATOM     12  C   UNL     1      46.196   1.474   8.248  0.00  0.00    +0.000 A 
ATOM     13  C   UNL     1      46.780   2.098   7.155  0.00  0.00    +0.000 A 
ATOM     14  C   UNL     1      46.380   3.388   6.856  0.00  0.00    +0.000 A 
ATOM     15  N   UNL     1      45.476   4.084   7.583  0.00  0.00    +0.000 NA
ENDBRANCH   9  10
ENDBRANCH   8   9
ENDBRANCH   1   5
BRANCH   1  16
ATOM     16  N   UNL     1      47.321   7.352  14.432  0.00  0.00    +0.000 N 
ATOM     17  C   UNL     1      48.601   6.864  14.497  0.00  0.00    +0.000 C 
ATOM     18  O   UNL     1      49.393   7.000  13.569  0.00  0.00    +0.000 OA
ATOM     19  H   UNL     1      46.625   7.033  15.099  0.00  0.00    +0.000 HD
BRANCH  17  20
ATOM     20  C   UNL     1      49.004   6.226  15.757  0.00  0.00    +0.000 A 
ATOM     21  C   UNL     1      50.101   6.720  16.450  0.00  0.00    +0.000 A 
ATOM     22  S   UNL     1      50.407   5.909  17.916  0.00  0.00    +0.000 S 
ATOM     23  C   UNL     1      49.118   4.832  17.651  0.00  0.00    +0.000 A 
ATOM     24  N   UNL     1      48.840   3.843  18.544  0.00  0.00    +0.000 NA
ATOM     25  C   UNL     1      47.862   3.073  18.198  0.00  0.00    +0.000 A 
ATOM     26  N   UNL     1      47.130   3.210  17.050  0.00  0.00    +0.000 N 
ATOM     27  C   UNL     1      47.350   4.216  16.137  0.00  0.00    +0.000 A 
ATOM     28  O   UNL     1      46.646   4.337  15.139  0.00  0.00    +0.000 OA
ATOM     29  C   UNL     1      48.452   5.098  16.468  0.00  0.00    +0.000 A 
ATOM     30  H   UNL     1      46.366   2.581  16.845  0.00  0.00    +0.000 HD
ENDBRANCH  17  20
ENDBRANCH   1  16
TORSDOF 5
ENDMDL
MODEL 3
REMARK VINA RESULT:    -8.067      1.469      2.013
REMARK INTER + INTRA:         -11.323
REMARK INTER:                 -10.382
REMARK INTRA:                  -0.941
REMARK UNBOUND:                -0.898
REMARK  Name = 
REMARK  6 active torsions:
REMARK  status: ('A' for Active; 'I' for Inactive)
REMARK    1  A    between atoms: C_1  and  C_2
REMARK    2  A    between atoms: C_4  and  C_5
REMARK    3  A    between atoms: C_5  and  N_6
REMARK    4  A    between atoms: C_7  and  C_9
REMARK    5  A    between atoms: C_21  and  C_22
REMARK    6  A    between atoms: C_22  and  C_23
REMARK                            x       y       z     vdW  Elec       q    Type
REMARK                         _______ _______ _______ _____ _____    ______ ____
ROOT
ATOM      1  C   UNL     1      46.115   6.935  12.976  0.00  0.00    +0.000 C 
ENDROOT
BRANCH   1   5
ATOM      2  C   UNL     1      43.591   2.908  11.385  0.00  0.00    +0.000 C 
ATOM      3  C   UNL     1      44.519   4.044  11.043  0.00  0.00    +0.000 A 
ATOM      4  C   UNL     1      44.883   4.931  12.075  0.00  0.00    +0.000 A 
ATOM      5  C   UNL     1      45.743   6.012  11.846  0.00  0.00    +0.000 A 
ATOM      6  C   UNL     1      46.213   6.232  10.550  0.00  0.00    +0.000 A 
ATOM      7  C   UNL     1      45.827   5.383   9.507  0.00  0.00    +0.000 A 
ATOM      8  C   UNL     1      44.975   4.285   9.731  0.00  0.00    +0.000 A 
BRANCH   8   9
ATOM      9  C   UNL     1      44.520   3.462   8.538  0.00  0.00    +0.000 C 
BRANCH   9  10
ATOM     10  C   UNL     1      45.573   2.798   7.673  0.00  0.00    +0.000 A 
ATOM     11  C   UNL     1      46.210   1.620   8.065  0.00  0.00    +0.000 A 
ATOM     12  C   UNL     1      47.315   1.169   7.344  0.00  0.00    +0.000 A 
ATOM     13  C   UNL     1      47.759   1.895   6.248  0.00  0.00    +0.000 A 
ATOM     14  C   UNL     1      47.062   3.040   5.904  0.00  0.00    +0.000 A 
ATOM     15  N   UNL     1      45.992   3.505   6.590  0.00  0.00    +0.000 NA
ENDBRANCH   9  10
ENDBRANCH   8   9
ENDBRANCH   1   5
BRANCH   1  16
ATOM     16  N   UNL     1      46.398   6.201  14.186  0.00  0.00    +0.000 N 
ATOM     17  C   UNL     1      47.670   5.765  14.456  0.00  0.00    +0.000 C 
ATOM     18  O   UNL     1      48.613   6.020  13.714  0.00  0.00    +0.000 OA
ATOM     19  H   UNL     1      45.609   5.792  14.678  0.00  0.00    +0.000 HD
BRANCH  17  20
ATOM     20  C   UNL     1      47.866   5.032  15.713  0.00  0.00    +0.000 A 
ATOM     21  C   UNL     1      47.517   3.689  15.780  0.00  0.00    +0.000 A 
ATOM     22  S   UNL     1      47.855   2.967  17.286  0.00  0.00    +0.000 S 
ATOM     23  C   UNL     1      48.428   4.438  17.922  0.00  0.00    +0.000 A 
ATOM     24  N   UNL     1      48.862   4.518  19.209  0.00  0.00    +0.000 NA
ATOM     25  C   UNL     1      49.230   5.702  19.572  0.00  0.00    +0.000 A 
ATOM     26  N   UNL     1      49.216   6.806  18.763  0.00  0.00    +0.000 N 
ATOM     27  C   UNL     1      48.821   6.765  17.447  0.00  0.00    +0.000 A 
ATOM     28  O   UNL     1      48.863   7.764  16.736  0.00  0.00    +0.000 OA
ATOM     29  C   UNL     1      48.378   5.461  16.992  0.00  0.00    +0.000 A 
ATOM     30  H   UNL     1      49.531   7.703  19.106  0.00  0.00    +0.000 HD
ENDBRANCH  17  20
ENDBRANCH   1  16
TORSDOF 5
ENDMDL
MODEL 4
REMARK VINA RESULT:    -7.810      2.322      2.953
REMARK INTER + INTRA:         -10.991
REMARK INTER:                  -9.873
REMARK INTRA:                  -1.117
REMARK UNBOUND:                -0.898
REMARK  Name = 
REMARK  6 active torsions:
REMARK  status: ('A' for Active; 'I' for Inactive)
REMARK    1  A    between atoms: C_1  and  C_2
REMARK    2  A    between atoms: C_4  and  C_5
REMARK    3  A    between atoms: C_5  and  N_6
REMARK    4  A    between atoms: C_7  and  C_9
REMARK    5  A    between atoms: C_21  and  C_22
REMARK    6  A    between atoms: C_22  and  C_23
REMARK                            x       y       z     vdW  Elec       q    Type
REMARK                         _______ _______ _______ _____ _____    ______ ____
ROOT
ATOM      1  C   UNL     1      47.970   7.541  13.936  0.00  0.00    +0.000 C 
ENDROOT
BRANCH   1   5
ATOM      2  C   UNL     1      45.403   3.400  12.765  0.00  0.00    +0.000 C 
ATOM      3  C   UNL     1      45.883   4.761  12.337  0.00  0.00    +0.000 A 
ATOM      4  C   UNL     1      46.654   5.505  13.251  0.00  0.00    +0.000 A 
ATOM      5  C   UNL     1      47.143   6.779  12.934  0.00  0.00    +0.000 A 
ATOM      6  C   UNL     1      46.817   7.333  11.695  0.00  0.00    +0.000 A 
ATOM      7  C   UNL     1      46.018   6.623  10.795  0.00  0.00    +0.000 A 
ATOM      8  C   UNL     1      45.535   5.336  11.098  0.00  0.00    +0.000 A 
BRANCH   8   9
ATOM      9  C   UNL     1      44.593   4.661  10.114  0.00  0.00    +0.000 C 
BRANCH   9  10
ATOM     10  C   UNL     1      45.186   3.770   9.041  0.00  0.00    +0.000 A 
ATOM     11  C   UNL     1      45.241   2.383   9.187  0.00  0.00    +0.000 A 
ATOM     12  C   UNL     1      45.984   1.630   8.277  0.00  0.00    +0.000 A 
ATOM     13  C   UNL     1      46.650   2.271   7.243  0.00  0.00    +0.000 A 
ATOM     14  C   UNL     1      46.529   3.646   7.148  0.00  0.00    +0.000 A 
ATOM     15  N   UNL     1      45.822   4.402   8.020  0.00  0.00    +0.000 NA
ENDBRANCH   9  10
ENDBRANCH   8   9
ENDBRANCH   1   5
BRANCH   1  16
ATOM     16  N   UNL     1      47.901   6.941  15.245  0.00  0.00    +0.000 N 
ATOM     17  C   UNL     1      49.038   6.498  15.871  0.00  0.00    +0.000 C 
ATOM     18  O   UNL     1      50.150   6.638  15.370  0.00  0.00    +0.000 OA
ATOM     19  H   UNL     1      46.993   6.614  15.561  0.00  0.00    +0.000 HD
BRANCH  17  20
ATOM     20  C   UNL     1      48.873   5.906  17.205  0.00  0.00    +0.000 A 
ATOM     21  C   UNL     1      49.192   4.568  17.401  0.00  0.00    +0.000 A 
ATOM     22  S   UNL     1      48.997   4.045  19.011  0.00  0.00    +0.000 S 
ATOM     23  C   UNL     1      48.428   5.574  19.494  0.00  0.00    +0.000 A 
ATOM     24  N   UNL     1      48.053   5.802  20.781  0.00  0.00    +0.000 NA
ATOM     25  C   UNL     1      47.601   6.993  21.000  0.00  0.00    +0.000 A 
ATOM     26  N   UNL     1      47.503   7.976  20.053  0.00  0.00    +0.000 N 
ATOM     27  C   UNL     1      47.904   7.802  18.749  0.00  0.00    +0.000 A 
ATOM     28  O   UNL     1      47.845   8.719  17.935  0.00  0.00    +0.000 OA
ATOM     29  C   UNL     1      48.401   6.475  18.444  0.00  0.00    +0.000 A 
ATOM     30  H   UNL     1      47.154   8.893  20.294  0.00  0.00    +0.000 HD
ENDBRANCH  17  20
ENDBRANCH   1  16
TORSDOF 5
ENDMDL
MODEL 5
REMARK VINA RESULT:    -7.745      2.223      3.517
REMARK INTER + INTRA:         -10.906
REMARK INTER:                 -10.319
REMARK INTRA:                  -0.588
REMARK UNBOUND:                -0.898
REMARK  Name = 
REMARK  6 active torsions:
REMARK  status: ('A' for Active; 'I' for Inactive)
REMARK    1  A    between atoms: C_1  and  C_2
REMARK    2  A    between atoms: C_4  and  C_5
REMARK    3  A    between atoms: C_5  and  N_6
REMARK    4  A    between atoms: C_7  and  C_9
REMARK    5  A    between atoms: C_21  and  C_22
REMARK    6  A    between atoms: C_22  and  C_23
REMARK                            x       y       z     vdW  Elec       q    Type
REMARK                         _______ _______ _______ _____ _____    ______ ____
ROOT
ATOM      1  C   UNL     1      45.194   7.252  12.919  0.00  0.00    +0.000 C 
ENDROOT
BRANCH   1   5
ATOM      2  C   UNL     1      43.407   2.678  11.919  0.00  0.00    +0.000 C 
ATOM      3  C   UNL     1      44.220   3.856  11.450  0.00  0.00    +0.000 A 
ATOM      4  C   UNL     1      44.342   4.959  12.317  0.00  0.00    +0.000 A 
ATOM      5  C   UNL     1      45.082   6.095  11.962  0.00  0.00    +0.000 A 
ATOM      6  C   UNL     1      45.675   6.141  10.700  0.00  0.00    +0.000 A 
ATOM      7  C   UNL     1      45.528   5.070   9.813  0.00  0.00    +0.000 A 
ATOM      8  C   UNL     1      44.800   3.918  10.167  0.00  0.00    +0.000 A 
BRANCH   8   9
ATOM      9  C   UNL     1      44.600   2.834   9.121  0.00  0.00    +0.000 C 
BRANCH   9  10
ATOM     10  C   UNL     1      45.727   2.552   8.147  0.00  0.00    +0.000 A 
ATOM     11  C   UNL     1      45.998   3.400   7.072  0.00  0.00    +0.000 A 
ATOM     12  C   UNL     1      46.897   2.989   6.088  0.00  0.00    +0.000 A 
ATOM     13  C   UNL     1      47.510   1.749   6.197  0.00  0.00    +0.000 A 
ATOM     14  C   UNL     1      47.211   0.974   7.303  0.00  0.00    +0.000 A 
ATOM     15  N   UNL     1      46.337   1.343   8.268  0.00  0.00    +0.000 NA
ENDBRANCH   9  10
ENDBRANCH   8   9
ENDBRANCH   1   5
BRANCH   1  16
ATOM     16  N   UNL     1      46.572   7.590  13.181  0.00  0.00    +0.000 N 
ATOM     17  C   UNL     1      47.383   6.726  13.872  0.00  0.00    +0.000 C 
ATOM     18  O   UNL     1      46.987   5.626  14.247  0.00  0.00    +0.000 OA
ATOM     19  H   UNL     1      46.839   8.565  13.087  0.00  0.00    +0.000 HD
BRANCH  17  20
ATOM     20  C   UNL     1      48.772   7.150  14.087  0.00  0.00    +0.000 A 
ATOM     21  C   UNL     1      49.317   7.077  15.363  0.00  0.00    +0.000 A 
ATOM     22  S   UNL     1      50.952   7.553  15.438  0.00  0.00    +0.000 S 
ATOM     23  C   UNL     1      50.974   7.927  13.779  0.00  0.00    +0.000 A 
ATOM     24  N   UNL     1      52.098   8.419  13.191  0.00  0.00    +0.000 NA
ATOM     25  C   UNL     1      51.963   8.699  11.937  0.00  0.00    +0.000 A 
ATOM     26  N   UNL     1      50.813   8.519  11.217  0.00  0.00    +0.000 N 
ATOM     27  C   UNL     1      49.665   7.990  11.760  0.00  0.00    +0.000 A 
ATOM     28  O   UNL     1      48.664   7.799  11.076  0.00  0.00    +0.000 OA
ATOM     29  C   UNL     1      49.756   7.677  13.172  0.00  0.00    +0.000 A 
ATOM     30  H   UNL     1      50.778   8.745  10.233  0.00  0.00    +0.000 HD
ENDBRANCH  17  20
ENDBRANCH   1  16
TORSDOF 5
ENDMDL
MODEL 6
REMARK VINA RESULT:    -7.547      2.327      3.889
REMARK INTER + INTRA:         -10.651
REMARK INTER:                  -9.662
REMARK INTRA:                  -0.990
REMARK UNBOUND:                -0.898
REMARK  Name = 
REMARK  6 active torsions:
REMARK  status: ('A' for Active; 'I' for Inactive)
REMARK    1  A    between atoms: C_1  and  C_2
REMARK    2  A    between atoms: C_4  and  C_5
REMARK    3  A    between atoms: C_5  and  N_6
REMARK    4  A    between atoms: C_7  and  C_9
REMARK    5  A    between atoms: C_21  and  C_22
REMARK    6  A    between atoms: C_22  and  C_23
REMARK                            x       y       z     vdW  Elec       q    Type
REMARK                         _______ _______ _______ _____ _____    ______ ____
ROOT
ATOM      1  C   UNL     1      47.142   4.748  15.085  0.00  0.00    +0.000 C 
ENDROOT
BRANCH   1   5
ATOM      2  C   UNL     1      44.956   6.986  11.171  0.00  0.00    +0.000 C 
ATOM      3  C   UNL     1      45.310   5.697  11.862  0.00  0.00    +0.000 A 
ATOM      4  C   UNL     1      46.021   5.774  13.076  0.00  0.00    +0.000 A 
ATOM      5  C   UNL     1      46.389   4.624  13.787  0.00  0.00    +0.000 A 
ATOM      6  C   UNL     1      46.074   3.375  13.250  0.00  0.00    +0.000 A 
ATOM      7  C   UNL     1      45.406   3.283  12.025  0.00  0.00    +0.000 A 
ATOM      8  C   UNL     1      45.018   4.432  11.311  0.00  0.00    +0.000 A 
BRANCH   8   9
ATOM      9  C   UNL     1      44.381   4.259   9.943  0.00  0.00    +0.000 C 
BRANCH   9  10
ATOM     10  C   UNL     1      45.173   3.552   8.861  0.00  0.00    +0.000 A 
ATOM     11  C   UNL     1      45.353   2.168   8.868  0.00  0.00    +0.000 A 
ATOM     12  C   UNL     1      46.262   1.594   7.979  0.00  0.00    +0.000 A 
ATOM     13  C   UNL     1      46.967   2.406   7.102  0.00  0.00    +0.000 A 
ATOM     14  C   UNL     1      46.717   3.766   7.136  0.00  0.00    +0.000 A 
ATOM     15  N   UNL     1      45.848   4.351   7.992  0.00  0.00    +0.000 NA
ENDBRANCH   9  10
ENDBRANCH   8   9
ENDBRANCH   1   5
BRANCH   1  16
ATOM     16  N   UNL     1      47.827   6.013  15.180  0.00  0.00    +0.000 N 
ATOM     17  C   UNL     1      48.940   6.147  15.971  0.00  0.00    +0.000 C 
ATOM     18  O   UNL     1      49.419   5.196  16.581  0.00  0.00    +0.000 OA
ATOM     19  H   UNL     1      47.322   6.841  14.878  0.00  0.00    +0.000 HD
BRANCH  17  20
ATOM     20  C   UNL     1      49.575   7.471  16.002  0.00  0.00    +0.000 A 
ATOM     21  C   UNL     1      49.811   8.084  17.226  0.00  0.00    +0.000 A 
ATOM     22  S   UNL     1      50.602   9.588  17.098  0.00  0.00    +0.000 S 
ATOM     23  C   UNL     1      50.608   9.500  15.399  0.00  0.00    +0.000 A 
ATOM     24  N   UNL     1      51.134  10.507  14.651  0.00  0.00    +0.000 NA
ATOM     25  C   UNL     1      51.036  10.328  13.375  0.00  0.00    +0.000 A 
ATOM     26  N   UNL     1      50.473   9.231  12.782  0.00  0.00    +0.000 N 
ATOM     27  C   UNL     1      49.963   8.173  13.497  0.00  0.00    +0.000 A 
ATOM     28  O   UNL     1      49.505   7.183  12.934  0.00  0.00    +0.000 OA
ATOM     29  C   UNL     1      50.030   8.331  14.936  0.00  0.00    +0.000 A 
ATOM     30  H   UNL     1      50.440   9.146  11.775  0.00  0.00    +0.000 HD
ENDBRANCH  17  20
ENDBRANCH   1  16
TORSDOF 5
ENDMDL
MODEL 7
REMARK VINA RESULT:    -7.475      2.292      3.043
REMARK INTER + INTRA:         -10.559
REMARK INTER:                  -9.965
REMARK INTRA:                  -0.594
REMARK UNBOUND:                -0.898
REMARK  Name = 
REMARK  6 active torsions:
REMARK  status: ('A' for Active; 'I' for Inactive)
REMARK    1  A    between atoms: C_1  and  C_2
REMARK    2  A    between atoms: C_4  and  C_5
REMARK    3  A    between atoms: C_5  and  N_6
REMARK    4  A    between atoms: C_7  and  C_9
REMARK    5  A    between atoms: C_21  and  C_22
REMARK    6  A    between atoms: C_22  and  C_23
REMARK                            x       y       z     vdW  Elec       q    Type
REMARK                         _______ _______ _______ _____ _____    ______ ____
ROOT
ATOM      1  C   UNL     1      45.553   7.155  13.142  0.00  0.00    +0.000 C 
ENDROOT
BRANCH   1   5
ATOM      2  C   UNL     1      43.450   2.832  11.730  0.00  0.00    +0.000 C 
ATOM      3  C   UNL     1      44.313   4.007  11.356  0.00  0.00    +0.000 A 
ATOM      4  C   UNL     1      44.538   4.997  12.332  0.00  0.00    +0.000 A 
ATOM      5  C   UNL     1      45.330   6.122  12.070  0.00  0.00    +0.000 A 
ATOM      6  C   UNL     1      45.872   6.277  10.792  0.00  0.00    +0.000 A 
ATOM      7  C   UNL     1      45.623   5.324   9.801  0.00  0.00    +0.000 A 
ATOM      8  C   UNL     1      44.841   4.182  10.060  0.00  0.00    +0.000 A 
BRANCH   8   9
ATOM      9  C   UNL     1      44.531   3.236   8.911  0.00  0.00    +0.000 C 
BRANCH   9  10
ATOM     10  C   UNL     1      45.685   2.678   8.103  0.00  0.00    +0.000 A 
ATOM     11  C   UNL     1      46.182   3.340   6.979  0.00  0.00    +0.000 A 
ATOM     12  C   UNL     1      47.094   2.686   6.149  0.00  0.00    +0.000 A 
ATOM     13  C   UNL     1      47.494   1.394   6.458  0.00  0.00    +0.000 A 
ATOM     14  C   UNL     1      46.978   0.812   7.602  0.00  0.00    +0.000 A 
ATOM     15  N   UNL     1      46.087   1.419   8.420  0.00  0.00    +0.000 NA
ENDBRANCH   9  10
ENDBRANCH   8   9
ENDBRANCH   1   5
BRANCH   1  16
ATOM     16  N   UNL     1      46.918   7.623  13.150  0.00  0.00    +0.000 N 
ATOM     17  C   UNL     1      47.913   6.863  13.711  0.00  0.00    +0.000 C 
ATOM     18  O   UNL     1      47.692   5.749  14.177  0.00  0.00    +0.000 OA
ATOM     19  H   UNL     1      47.072   8.613  12.985  0.00  0.00    +0.000 HD
BRANCH  17  20
ATOM     20  C   UNL     1      49.273   7.416  13.668  0.00  0.00    +0.000 A 
ATOM     21  C   UNL     1      49.771   7.910  12.469  0.00  0.00    +0.000 A 
ATOM     22  S   UNL     1      51.339   8.565  12.596  0.00  0.00    +0.000 S 
ATOM     23  C   UNL     1      51.431   8.162  14.246  0.00  0.00    +0.000 A 
ATOM     24  N   UNL     1      52.551   8.436  14.969  0.00  0.00    +0.000 NA
ATOM     25  C   UNL     1      52.500   8.039  16.197  0.00  0.00    +0.000 A 
ATOM     26  N   UNL     1      51.430   7.408  16.770  0.00  0.00    +0.000 N 
ATOM     27  C   UNL     1      50.264   7.144  16.090  0.00  0.00    +0.000 A 
ATOM     28  O   UNL     1      49.306   6.617  16.645  0.00  0.00    +0.000 OA
ATOM     29  C   UNL     1      50.275   7.551  14.698  0.00  0.00    +0.000 A 
ATOM     30  H   UNL     1      51.450   7.136  17.743  0.00  0.00    +0.000 HD
ENDBRANCH  17  20
ENDBRANCH   1  16
TORSDOF 5
ENDMDL
MODEL 8
REMARK VINA RESULT:    -7.392      2.951      3.744
REMARK INTER + INTRA:         -10.450
REMARK INTER:                  -9.674
REMARK INTRA:                  -0.777
REMARK UNBOUND:                -0.898
REMARK  Name = 
REMARK  6 active torsions:
REMARK  status: ('A' for Active; 'I' for Inactive)
REMARK    1  A    between atoms: C_1  and  C_2
REMARK    2  A    between atoms: C_4  and  C_5
REMARK    3  A    between atoms: C_5  and  N_6
REMARK    4  A    between atoms: C_7  and  C_9
REMARK    5  A    between atoms: C_21  and  C_22
REMARK    6  A    between atoms: C_22  and  C_23
REMARK                            x       y       z     vdW  Elec       q    Type
REMARK                         _______ _______ _______ _____ _____    ______ ____
ROOT
ATOM      1  C   UNL     1      45.734   6.956  12.889  0.00  0.00    +0.000 C 
ENDROOT
BRANCH   1   5
ATOM      2  C   UNL     1      43.441   2.654  11.730  0.00  0.00    +0.000 C 
ATOM      3  C   UNL     1      44.333   3.780  11.280  0.00  0.00    +0.000 A 
ATOM      4  C   UNL     1      44.621   4.803  12.204  0.00  0.00    +0.000 A 
ATOM      5  C   UNL     1      45.444   5.886  11.870  0.00  0.00    +0.000 A 
ATOM      6  C   UNL     1      45.954   5.965  10.573  0.00  0.00    +0.000 A 
ATOM      7  C   UNL     1      45.643   4.978   9.633  0.00  0.00    +0.000 A 
ATOM      8  C   UNL     1      44.829   3.878   9.964  0.00  0.00    +0.000 A 
BRANCH   8   9
ATOM      9  C   UNL     1      44.454   2.895   8.868  0.00  0.00    +0.000 C 
BRANCH   9  10
ATOM     10  C   UNL     1      45.508   2.510   7.850  0.00  0.00    +0.000 A 
ATOM     11  C   UNL     1      46.362   1.424   8.051  0.00  0.00    +0.000 A 
ATOM     12  C   UNL     1      47.448   1.242   7.195  0.00  0.00    +0.000 A 
ATOM     13  C   UNL     1      47.659   2.138   6.157  0.00  0.00    +0.000 A 
ATOM     14  C   UNL     1      46.756   3.176   6.005  0.00  0.00    +0.000 A 
ATOM     15  N   UNL     1      45.699   3.381   6.824  0.00  0.00    +0.000 NA
ENDBRANCH   9  10
ENDBRANCH   8   9
ENDBRANCH   1   5
BRANCH   1  16
ATOM     16  N   UNL     1      47.057   7.506  12.716  0.00  0.00    +0.000 N 
ATOM     17  C   UNL     1      47.233   8.851  12.515  0.00  0.00    +0.000 C 
ATOM     18  O   UNL     1      46.290   9.636  12.523  0.00  0.00    +0.000 OA
ATOM     19  H   UNL     1      47.803   6.859  12.480  0.00  0.00    +0.000 HD
BRANCH  17  20
ATOM     20  C   UNL     1      48.615   9.322  12.355  0.00  0.00    +0.000 A 
ATOM     21  C   UNL     1      48.890  10.330  11.440  0.00  0.00    +0.000 A 
ATOM     22  S   UNL     1      50.527  10.801  11.411  0.00  0.00    +0.000 S 
ATOM     23  C   UNL     1      50.938   9.637  12.582  0.00  0.00    +0.000 A 
ATOM     24  N   UNL     1      52.225   9.494  13.000  0.00  0.00    +0.000 NA
ATOM     25  C   UNL     1      52.402   8.546  13.860  0.00  0.00    +0.000 A 
ATOM     26  N   UNL     1      51.409   7.739  14.347  0.00  0.00    +0.000 N 
ATOM     27  C   UNL     1      50.090   7.871  13.981  0.00  0.00    +0.000 A 
ATOM     28  O   UNL     1      49.217   7.161  14.470  0.00  0.00    +0.000 OA
ATOM     29  C   UNL     1      49.839   8.909  13.000  0.00  0.00    +0.000 A 
ATOM     30  H   UNL     1      51.613   7.023  15.030  0.00  0.00    +0.000 HD
ENDBRANCH  17  20
ENDBRANCH   1  16
TORSDOF 5
ENDMDL
MODEL 9
REMARK VINA RESULT:    -7.339      2.666      3.520
REMARK INTER + INTRA:         -10.383
REMARK INTER:                  -9.802
REMARK INTRA:                  -0.580
REMARK UNBOUND:                -0.898
REMARK  Name = 
REMARK  6 active torsions:
REMARK  status: ('A' for Active; 'I' for Inactive)
REMARK    1  A    between atoms: C_1  and  C_2
REMARK    2  A    between atoms: C_4  and  C_5
REMARK    3  A    between atoms: C_5  and  N_6
REMARK    4  A    between atoms: C_7  and  C_9
REMARK    5  A    between atoms: C_21  and  C_22
REMARK    6  A    between atoms: C_22  and  C_23
REMARK                            x       y       z     vdW  Elec       q    Type
REMARK                         _______ _______ _______ _____ _____    ______ ____
ROOT
ATOM      1  C   UNL     1      47.145   4.308  15.152  0.00  0.00    +0.000 C 
ENDROOT
BRANCH   1   5
ATOM      2  C   UNL     1      45.314   7.073  11.395  0.00  0.00    +0.000 C 
ATOM      3  C   UNL     1      45.533   5.700  11.973  0.00  0.00    +0.000 A 
ATOM      4  C   UNL     1      46.196   5.605  13.212  0.00  0.00    +0.000 A 
ATOM      5  C   UNL     1      46.439   4.368  13.823  0.00  0.00    +0.000 A 
ATOM      6  C   UNL     1      46.046   3.204  13.159  0.00  0.00    +0.000 A 
ATOM      7  C   UNL     1      45.424   3.282  11.910  0.00  0.00    +0.000 A 
ATOM      8  C   UNL     1      45.162   4.521  11.295  0.00  0.00    +0.000 A 
BRANCH   8   9
ATOM      9  C   UNL     1      44.571   4.528   9.895  0.00  0.00    +0.000 C 
BRANCH   9  10
ATOM     10  C   UNL     1      45.259   3.717   8.816  0.00  0.00    +0.000 A 
ATOM     11  C   UNL     1      45.326   2.325   8.873  0.00  0.00    +0.000 A 
ATOM     12  C   UNL     1      46.149   1.643   7.977  0.00  0.00    +0.000 A 
ATOM     13  C   UNL     1      46.882   2.359   7.042  0.00  0.00    +0.000 A 
ATOM     14  C   UNL     1      46.745   3.736   7.029  0.00  0.00    +0.000 A 
ATOM     15  N   UNL     1      45.961   4.424   7.890  0.00  0.00    +0.000 NA
ENDBRANCH   9  10
ENDBRANCH   8   9
ENDBRANCH   1   5
BRANCH   1  16
ATOM     16  N   UNL     1      47.539   5.620  15.601  0.00  0.00    +0.000 N 
ATOM     17  C   UNL     1      48.662   5.787  16.370  0.00  0.00    +0.000 C 
ATOM     18  O   UNL     1      49.393   4.845  16.661  0.00  0.00    +0.000 OA
ATOM     19  H   UNL     1      46.838   6.354  15.568  0.00  0.00    +0.000 HD
BRANCH  17  20
ATOM     20  C   UNL     1      48.989   7.159  16.777  0.00  0.00    +0.000 A 
ATOM     21  C   UNL     1      49.855   7.914  15.995  0.00  0.00    +0.000 A 
ATOM     22  S   UNL     1      50.091   9.500  16.571  0.00  0.00    +0.000 S 
ATOM     23  C   UNL     1      49.089   9.219  17.916  0.00  0.00    +0.000 A 
ATOM     24  N   UNL     1      48.879  10.191  18.844  0.00  0.00    +0.000 NA
ATOM     25  C   UNL     1      48.131   9.829  19.833  0.00  0.00    +0.000 A 
ATOM     26  N   UNL     1      47.565   8.590  19.971  0.00  0.00    +0.000 N 
ATOM     27  C   UNL     1      47.719   7.589  19.041  0.00  0.00    +0.000 A 
ATOM     28  O   UNL     1      47.162   6.504  19.172  0.00  0.00    +0.000 OA
ATOM     29  C   UNL     1      48.568   7.937  17.918  0.00  0.00    +0.000 A 
ATOM     30  H   UNL     1      46.977   8.376  20.764  0.00  0.00    +0.000 HD
ENDBRANCH  17  20
ENDBRANCH   1  16
TORSDOF 5
ENDMDL
