MODEL 1
REMARK VINA RESULT:    -9.420      0.000      0.000
REMARK INTER + INTRA:         -12.550
REMARK INTER:                 -11.623
REMARK INTRA:                  -0.928
REMARK UNBOUND:                -0.928
REMARK  Name = 
REMARK  4 active torsions:
REMARK  status: ('A' for Active; 'I' for Inactive)
REMARK    1  A    between atoms: C_2  and  C_4
REMARK    2  A    between atoms: N_8  and  C_9
REMARK    3  A    between atoms: C_9  and  C_10
REMARK    4  A    between atoms: C_14  and  C_15
REMARK                            x       y       z     vdW  Elec       q    Type
REMARK                         _______ _______ _______ _____ _____    ______ ____
ROOT
ATOM      1  C   UNL     1      43.547   4.783  11.062  0.00  0.00    +0.000 C 
ENDROOT
BRANCH   1   6
ATOM      2  C   UNL     1      46.416   2.302   7.703  0.00  0.00    +0.000 A 
ATOM      3  C   UNL     1      45.573   1.795   8.687  0.00  0.00    +0.000 A 
ATOM      4  C   UNL     1      44.720   2.667   9.369  0.00  0.00    +0.000 A 
ATOM      5  C   UNL     1      44.739   4.030   9.080  0.00  0.00    +0.000 A 
ATOM      6  N   UNL     1      43.867   4.940   9.659  0.00  0.00    +0.000 N 
ATOM      7  N   UNL     1      45.574   4.534   8.151  0.00  0.00    +0.000 NA
ATOM      8  C   UNL     1      46.393   3.672   7.488  0.00  0.00    +0.000 A 
ATOM      9  H   UNL     1      44.174   5.872   9.388  0.00  0.00    +0.000 HD
BRANCH   2  11
ATOM     10  N   UNL     1      48.442   2.054   6.386  0.00  0.00    +0.000 N 
ATOM     11  C   UNL     1      47.326   1.459   6.903  0.00  0.00    +0.000 C 
ATOM     12  O   UNL     1      47.111   0.266   6.741  0.00  0.00    +0.000 OA
ATOM     13  H   UNL     1      49.108   1.435   5.936  0.00  0.00    +0.000 HD
ATOM     14  H   UNL     1      48.781   2.950   6.704  0.00  0.00    +0.000 HD
ENDBRANCH   2  11
ENDBRANCH   1   6
BRANCH   1  15
ATOM     15  C   UNL     1      44.755   5.062  11.926  0.00  0.00    +0.000 A 
ATOM     16  C   UNL     1      45.242   4.095  12.813  0.00  0.00    +0.000 A 
ATOM     17  C   UNL     1      46.398   4.340  13.551  0.00  0.00    +0.000 A 
ATOM     18  C   UNL     1      47.084   5.548  13.402  0.00  0.00    +0.000 A 
ATOM     19  C   UNL     1      46.638   6.538  12.507  0.00  0.00    +0.000 A 
ATOM     20  C   UNL     1      45.445   6.280  11.804  0.00  0.00    +0.000 A 
BRANCH  19  21
ATOM     21  C   UNL     1      47.434   7.760  12.234  0.00  0.00    +0.000 A 
ATOM     22  C   UNL     1      48.792   7.671  11.872  0.00  0.00    +0.000 A 
ATOM     23  C   UNL     1      49.528   8.803  11.503  0.00  0.00    +0.000 A 
ATOM     24  C   UNL     1      48.915  10.048  11.483  0.00  0.00    +0.000 A 
ATOM     25 CL   UNL     1      49.801  11.432  10.976  0.00  0.00    +0.000 Cl
ATOM     26  C   UNL     1      47.581  10.176  11.857  0.00  0.00    +0.000 A 
ATOM     27  C   UNL     1      46.853   9.043  12.240  0.00  0.00    +0.000 A 
ENDBRANCH  19  21
ENDBRANCH   1  15
TORSDOF 4
ENDMDL
MODEL 2
REMARK VINA RESULT:    -8.902      2.700      3.982
REMARK INTER + INTRA:         -11.911
REMARK INTER:                 -11.006
REMARK INTRA:                  -0.905
REMARK UNBOUND:                -0.928
REMARK  Name = 
REMARK  4 active torsions:
REMARK  status: ('A' for Active; 'I' for Inactive)
REMARK    1  A    between atoms: C_2  and  C_4
REMARK    2  A    between atoms: N_8  and  C_9
REMARK    3  A    between atoms: C_9  and  C_10
REMARK    4  A    between atoms: C_14  and  C_15
REMARK                            x       y       z     vdW  Elec       q    Type
REMARK                         _______ _______ _______ _____ _____    ______ ____
ROOT
ATOM      1  C   UNL     1      43.776   4.835  11.181  0.00  0.00    +0.000 C 
ENDROOT
BRANCH   1   6
ATOM      2  C   UNL     1      46.378   2.240   7.694  0.00  0.00    +0.000 A 
ATOM      3  C   UNL     1      45.743   1.780   8.843  0.00  0.00    +0.000 A 
ATOM      4  C   UNL     1      44.910   2.647   9.555  0.00  0.00    +0.000 A 
ATOM      5  C   UNL     1      44.743   3.962   9.127  0.00  0.00    +0.000 A 
ATOM      6  N   UNL     1      43.872   4.853   9.736  0.00  0.00    +0.000 N 
ATOM      7  N   UNL     1      45.378   4.426   8.033  0.00  0.00    +0.000 NA
ATOM      8  C   UNL     1      46.180   3.568   7.344  0.00  0.00    +0.000 A 
ATOM      9  H   UNL     1      44.036   5.770   9.326  0.00  0.00    +0.000 HD
BRANCH   2  11
ATOM     10  N   UNL     1      48.319   1.992   6.253  0.00  0.00    +0.000 N 
ATOM     11  C   UNL     1      47.248   1.393   6.854  0.00  0.00    +0.000 C 
ATOM     12  O   UNL     1      47.041   0.194   6.731  0.00  0.00    +0.000 OA
ATOM     13  H   UNL     1      48.963   1.373   5.774  0.00  0.00    +0.000 HD
ATOM     14  H   UNL     1      48.664   2.899   6.530  0.00  0.00    +0.000 HD
ENDBRANCH   2  11
ENDBRANCH   1   6
BRANCH   1  15
ATOM     15  C   UNL     1      44.899   5.628  11.807  0.00  0.00    +0.000 A 
ATOM     16  C   UNL     1      45.141   6.954  11.427  0.00  0.00    +0.000 A 
ATOM     17  C   UNL     1      46.134   7.694  12.063  0.00  0.00    +0.000 A 
ATOM     18  C   UNL     1      46.889   7.122  13.091  0.00  0.00    +0.000 A 
ATOM     19  C   UNL     1      46.665   5.800  13.514  0.00  0.00    +0.000 A 
ATOM     20  C   UNL     1      45.682   5.061  12.827  0.00  0.00    +0.000 A 
BRANCH  19  21
ATOM     21  C   UNL     1      47.357   5.229  14.696  0.00  0.00    +0.000 A 
ATOM     22  C   UNL     1      48.252   6.009  15.455  0.00  0.00    +0.000 A 
ATOM     23  C   UNL     1      48.828   5.525  16.634  0.00  0.00    +0.000 A 
ATOM     24  C   UNL     1      48.515   4.248  17.081  0.00  0.00    +0.000 A 
ATOM     25 CL   UNL     1      49.178   3.671  18.559  0.00  0.00    +0.000 Cl
ATOM     26  C   UNL     1      47.654   3.442  16.344  0.00  0.00    +0.000 A 
ATOM     27  C   UNL     1      47.092   3.925  15.157  0.00  0.00    +0.000 A 
ENDBRANCH  19  21
ENDBRANCH   1  15
TORSDOF 4
ENDMDL
MODEL 3
REMARK VINA RESULT:    -7.650      4.008      6.923
REMARK INTER + INTRA:         -10.366
REMARK INTER:                  -9.436
REMARK INTRA:                  -0.930
REMARK UNBOUND:                -0.928
REMARK  Name = 
REMARK  4 active torsions:
REMARK  status: ('A' for Active; 'I' for Inactive)
REMARK    1  A    between atoms: C_2  and  C_4
REMARK    2  A    between atoms: N_8  and  C_9
REMARK    3  A    between atoms: C_9  and  C_10
REMARK    4  A    between atoms: C_14  and  C_15
REMARK                            x       y       z     vdW  Elec       q    Type
REMARK                         _______ _______ _______ _____ _____    ______ ____
ROOT
ATOM      1  C   UNL     1      44.133   6.529  12.079  0.00  0.00    +0.000 C 
ENDROOT
BRANCH   1   6
ATOM      2  C   UNL     1      49.045   7.644  12.632  0.00  0.00    +0.000 A 
ATOM      3  C   UNL     1      48.117   8.169  11.738  0.00  0.00    +0.000 A 
ATOM      4  C   UNL     1      46.764   7.859  11.899  0.00  0.00    +0.000 A 
ATOM      5  C   UNL     1      46.360   7.014  12.930  0.00  0.00    +0.000 A 
ATOM      6  N   UNL     1      45.030   6.727  13.199  0.00  0.00    +0.000 N 
ATOM      7  N   UNL     1      47.255   6.476  13.782  0.00  0.00    +0.000 NA
ATOM      8  C   UNL     1      48.569   6.793  13.618  0.00  0.00    +0.000 A 
ATOM      9  H   UNL     1      45.012   5.990  13.901  0.00  0.00    +0.000 HD
BRANCH   2  11
ATOM     10  N   UNL     1      51.214   7.791  13.716  0.00  0.00    +0.000 N 
ATOM     11  C   UNL     1      50.490   7.940  12.567  0.00  0.00    +0.000 C 
ATOM     12  O   UNL     1      51.025   8.269  11.518  0.00  0.00    +0.000 OA
ATOM     13  H   UNL     1      52.219   7.891  13.624  0.00  0.00    +0.000 HD
ATOM     14  H   UNL     1      50.868   7.286  14.518  0.00  0.00    +0.000 HD
ENDBRANCH   2  11
ENDBRANCH   1   6
BRANCH   1  15
ATOM     15  C   UNL     1      44.146   5.089  11.625  0.00  0.00    +0.000 A 
ATOM     16  C   UNL     1      43.345   4.130  12.257  0.00  0.00    +0.000 A 
ATOM     17  C   UNL     1      43.313   2.821  11.782  0.00  0.00    +0.000 A 
ATOM     18  C   UNL     1      44.073   2.459  10.666  0.00  0.00    +0.000 A 
ATOM     19  C   UNL     1      44.876   3.397   9.992  0.00  0.00    +0.000 A 
ATOM     20  C   UNL     1      44.920   4.703  10.518  0.00  0.00    +0.000 A 
BRANCH  19  21
ATOM     21  C   UNL     1      45.572   3.063   8.725  0.00  0.00    +0.000 A 
ATOM     22  C   UNL     1      45.913   4.071   7.801  0.00  0.00    +0.000 A 
ATOM     23  C   UNL     1      46.665   3.791   6.655  0.00  0.00    +0.000 A 
ATOM     24  C   UNL     1      47.098   2.494   6.414  0.00  0.00    +0.000 A 
ATOM     25 CL   UNL     1      48.070   2.157   5.036  0.00  0.00    +0.000 Cl
ATOM     26  C   UNL     1      46.760   1.470   7.293  0.00  0.00    +0.000 A 
ATOM     27  C   UNL     1      45.994   1.752   8.430  0.00  0.00    +0.000 A 
ENDBRANCH  19  21
ENDBRANCH   1  15
TORSDOF 4
ENDMDL
MODEL 4
REMARK VINA RESULT:    -7.612      5.158      7.966
REMARK INTER + INTRA:         -10.320
REMARK INTER:                  -9.741
REMARK INTRA:                  -0.579
REMARK UNBOUND:                -0.928
REMARK  Name = 
REMARK  4 active torsions:
REMARK  status: ('A' for Active; 'I' for Inactive)
REMARK    1  A    between atoms: C_2  and  C_4
REMARK    2  A    between atoms: N_8  and  C_9
REMARK    3  A    between atoms: C_9  and  C_10
REMARK    4  A    between atoms: C_14  and  C_15
REMARK                            x       y       z     vdW  Elec       q    Type
REMARK                         _______ _______ _______ _____ _____    ______ ____
ROOT
ATOM      1  C   UNL     1      46.060   5.329  13.996  0.00  0.00    +0.000 C 
ENDROOT
BRANCH   1   6
ATOM      2  C   UNL     1      49.587   3.855  17.321  0.00  0.00    +0.000 A 
ATOM      3  C   UNL     1      49.098   5.132  17.063  0.00  0.00    +0.000 A 
ATOM      4  C   UNL     1      47.977   5.279  16.242  0.00  0.00    +0.000 A 
ATOM      5  C   UNL     1      47.377   4.158  15.673  0.00  0.00    +0.000 A 
ATOM      6  N   UNL     1      46.217   4.220  14.915  0.00  0.00    +0.000 N 
ATOM      7  N   UNL     1      47.862   2.920  15.893  0.00  0.00    +0.000 NA
ATOM      8  C   UNL     1      48.950   2.791  16.701  0.00  0.00    +0.000 A 
ATOM      9  H   UNL     1      46.067   3.299  14.508  0.00  0.00    +0.000 HD
BRANCH   2  11
ATOM     10  N   UNL     1      50.727   4.160  19.445  0.00  0.00    +0.000 N 
ATOM     11  C   UNL     1      50.742   3.593  18.202  0.00  0.00    +0.000 C 
ATOM     12  O   UNL     1      51.659   2.865  17.848  0.00  0.00    +0.000 OA
ATOM     13  H   UNL     1      51.472   3.878  20.072  0.00  0.00    +0.000 HD
ATOM     14  H   UNL     1      49.890   4.544  19.860  0.00  0.00    +0.000 HD
ENDBRANCH   2  11
ENDBRANCH   1   6
BRANCH   1  15
ATOM     15  C   UNL     1      45.113   4.971  12.875  0.00  0.00    +0.000 A 
ATOM     16  C   UNL     1      43.761   5.329  12.934  0.00  0.00    +0.000 A 
ATOM     17  C   UNL     1      42.916   5.055  11.862  0.00  0.00    +0.000 A 
ATOM     18  C   UNL     1      43.415   4.430  10.715  0.00  0.00    +0.000 A 
ATOM     19  C   UNL     1      44.771   4.071  10.609  0.00  0.00    +0.000 A 
ATOM     20  C   UNL     1      45.594   4.324  11.724  0.00  0.00    +0.000 A 
BRANCH  19  21
ATOM     21  C   UNL     1      45.342   3.541   9.346  0.00  0.00    +0.000 A 
ATOM     22  C   UNL     1      45.821   4.412   8.348  0.00  0.00    +0.000 A 
ATOM     23  C   UNL     1      46.463   3.932   7.202  0.00  0.00    +0.000 A 
ATOM     24  C   UNL     1      46.644   2.565   7.034  0.00  0.00    +0.000 A 
ATOM     25 CL   UNL     1      47.481   1.975   5.653  0.00  0.00    +0.000 Cl
ATOM     26  C   UNL     1      46.162   1.675   7.987  0.00  0.00    +0.000 A 
ATOM     27  C   UNL     1      45.507   2.160   9.126  0.00  0.00    +0.000 A 
ENDBRANCH  19  21
ENDBRANCH   1  15
TORSDOF 4
ENDMDL
MODEL 5
REMARK VINA RESULT:    -7.477      1.901      2.600
REMARK INTER + INTRA:         -10.154
REMARK INTER:                  -9.418
REMARK INTRA:                  -0.736
REMARK UNBOUND:                -0.928
REMARK  Name = 
REMARK  4 active torsions:
REMARK  status: ('A' for Active; 'I' for Inactive)
REMARK    1  A    between atoms: C_2  and  C_4
REMARK    2  A    between atoms: N_8  and  C_9
REMARK    3  A    between atoms: C_9  and  C_10
REMARK    4  A    between atoms: C_14  and  C_15
REMARK                            x       y       z     vdW  Elec       q    Type
REMARK                         _______ _______ _______ _____ _____    ______ ____
ROOT
ATOM      1  C   UNL     1      44.038   5.364  10.973  0.00  0.00    +0.000 C 
ENDROOT
BRANCH   1   6
ATOM      2  C   UNL     1      46.285   1.992   7.931  0.00  0.00    +0.000 A 
ATOM      3  C   UNL     1      45.647   1.791   9.151  0.00  0.00    +0.000 A 
ATOM      4  C   UNL     1      44.919   2.839   9.720  0.00  0.00    +0.000 A 
ATOM      5  C   UNL     1      44.858   4.075   9.080  0.00  0.00    +0.000 A 
ATOM      6  N   UNL     1      44.091   5.133   9.544  0.00  0.00    +0.000 N 
ATOM      7  N   UNL     1      45.499   4.289   7.914  0.00  0.00    +0.000 NA
ATOM      8  C   UNL     1      46.198   3.256   7.367  0.00  0.00    +0.000 A 
ATOM      9  H   UNL     1      44.325   5.950   8.984  0.00  0.00    +0.000 HD
BRANCH   2  11
ATOM     10  N   UNL     1      46.773  -0.358   7.559  0.00  0.00    +0.000 N 
ATOM     11  C   UNL     1      47.048   0.939   7.233  0.00  0.00    +0.000 C 
ATOM     12  O   UNL     1      47.868   1.216   6.368  0.00  0.00    +0.000 OA
ATOM     13  H   UNL     1      47.226  -1.066   6.991  0.00  0.00    +0.000 HD
ATOM     14  H   UNL     1      45.944  -0.630   8.066  0.00  0.00    +0.000 HD
ENDBRANCH   2  11
ENDBRANCH   1   6
BRANCH   1  15
ATOM     15  C   UNL     1      44.737   6.652  11.338  0.00  0.00    +0.000 A 
ATOM     16  C   UNL     1      44.061   7.877  11.279  0.00  0.00    +0.000 A 
ATOM     17  C   UNL     1      44.696   9.048  11.686  0.00  0.00    +0.000 A 
ATOM     18  C   UNL     1      46.009   9.006  12.165  0.00  0.00    +0.000 A 
ATOM     19  C   UNL     1      46.715   7.794  12.258  0.00  0.00    +0.000 A 
ATOM     20  C   UNL     1      46.063   6.631  11.802  0.00  0.00    +0.000 A 
BRANCH  19  21
ATOM     21  C   UNL     1      48.052   7.715  12.897  0.00  0.00    +0.000 A 
ATOM     22  C   UNL     1      49.210   8.113  12.202  0.00  0.00    +0.000 A 
ATOM     23  C   UNL     1      50.463   8.150  12.824  0.00  0.00    +0.000 A 
ATOM     24  C   UNL     1      50.580   7.794  14.161  0.00  0.00    +0.000 A 
ATOM     25 CL   UNL     1      52.108   7.892  14.943  0.00  0.00    +0.000 Cl
ATOM     26  C   UNL     1      49.461   7.373  14.872  0.00  0.00    +0.000 A 
ATOM     27  C   UNL     1      48.212   7.323  14.240  0.00  0.00    +0.000 A 
ENDBRANCH  19  21
ENDBRANCH   1  15
TORSDOF 4
ENDMDL
MODEL 6
REMARK VINA RESULT:    -6.847      6.036      8.323
REMARK INTER + INTRA:          -9.376
REMARK INTER:                  -8.498
REMARK INTRA:                  -0.878
REMARK UNBOUND:                -0.928
REMARK  Name = 
REMARK  4 active torsions:
REMARK  status: ('A' for Active; 'I' for Inactive)
REMARK    1  A    between atoms: C_2  and  C_4
REMARK    2  A    between atoms: N_8  and  C_9
REMARK    3  A    between atoms: C_9  and  C_10
REMARK    4  A    between atoms: C_14  and  C_15
REMARK                            x       y       z     vdW  Elec       q    Type
REMARK                         _______ _______ _______ _____ _____    ______ ____
ROOT
ATOM      1  C   UNL     1      49.461   7.129  16.692  0.00  0.00    +0.000 C 
ENDROOT
BRANCH   1   6
ATOM      2  C   UNL     1      51.462   2.558  17.565  0.00  0.00    +0.000 A 
ATOM      3  C   UNL     1      52.009   3.817  17.790  0.00  0.00    +0.000 A 
ATOM      4  C   UNL     1      51.195   4.946  17.662  0.00  0.00    +0.000 A 
ATOM      5  C   UNL     1      49.861   4.806  17.290  0.00  0.00    +0.000 A 
ATOM      6  N   UNL     1      48.976   5.872  17.222  0.00  0.00    +0.000 N 
ATOM      7  N   UNL     1      49.330   3.593  17.040  0.00  0.00    +0.000 NA
ATOM      8  C   UNL     1      50.132   2.501  17.176  0.00  0.00    +0.000 A 
ATOM      9  H   UNL     1      48.116   5.529  16.799  0.00  0.00    +0.000 HD
BRANCH   2  11
ATOM     10  N   UNL     1      51.544   0.192  18.110  0.00  0.00    +0.000 N 
ATOM     11  C   UNL     1      52.228   1.304  17.709  0.00  0.00    +0.000 C 
ATOM     12  O   UNL     1      53.421   1.254  17.442  0.00  0.00    +0.000 OA
ATOM     13  H   UNL     1      52.063  -0.679  18.095  0.00  0.00    +0.000 HD
ATOM     14  H   UNL     1      50.537   0.133  18.091  0.00  0.00    +0.000 HD
ENDBRANCH   2  11
ENDBRANCH   1   6
BRANCH   1  15
ATOM     15  C   UNL     1      49.251   7.202  15.197  0.00  0.00    +0.000 A 
ATOM     16  C   UNL     1      50.194   7.824  14.370  0.00  0.00    +0.000 A 
ATOM     17  C   UNL     1      50.022   7.821  12.988  0.00  0.00    +0.000 A 
ATOM     18  C   UNL     1      48.913   7.190  12.418  0.00  0.00    +0.000 A 
ATOM     19  C   UNL     1      47.953   6.539  13.213  0.00  0.00    +0.000 A 
ATOM     20  C   UNL     1      48.131   6.591  14.610  0.00  0.00    +0.000 A 
BRANCH  19  21
ATOM     21  C   UNL     1      46.852   5.744  12.616  0.00  0.00    +0.000 A 
ATOM     22  C   UNL     1      46.271   6.122  11.389  0.00  0.00    +0.000 A 
ATOM     23  C   UNL     1      45.310   5.326  10.757  0.00  0.00    +0.000 A 
ATOM     24  C   UNL     1      44.915   4.128  11.338  0.00  0.00    +0.000 A 
ATOM     25 CL   UNL     1      43.775   3.121  10.536  0.00  0.00    +0.000 Cl
ATOM     26  C   UNL     1      45.450   3.736  12.561  0.00  0.00    +0.000 A 
ATOM     27  C   UNL     1      46.400   4.543  13.197  0.00  0.00    +0.000 A 
ENDBRANCH  19  21
ENDBRANCH   1  15
TORSDOF 4
ENDMDL
MODEL 7
REMARK VINA RESULT:    -6.807      1.902      2.668
REMARK INTER + INTRA:          -9.326
REMARK INTER:                  -9.160
REMARK INTRA:                  -0.167
REMARK UNBOUND:                -0.928
REMARK  Name = 
REMARK  4 active torsions:
REMARK  status: ('A' for Active; 'I' for Inactive)
REMARK    1  A    between atoms: C_2  and  C_4
REMARK    2  A    between atoms: N_8  and  C_9
REMARK    3  A    between atoms: C_9  and  C_10
REMARK    4  A    between atoms: C_14  and  C_15
REMARK                            x       y       z     vdW  Elec       q    Type
REMARK                         _______ _______ _______ _____ _____    ______ ____
ROOT
ATOM      1  C   UNL     1      43.568   3.808  11.117  0.00  0.00    +0.000 C 
ENDROOT
BRANCH   1   6
ATOM      2  C   UNL     1      46.551   2.756   7.159  0.00  0.00    +0.000 A 
ATOM      3  C   UNL     1      46.054   3.984   7.587  0.00  0.00    +0.000 A 
ATOM      4  C   UNL     1      45.414   4.065   8.826  0.00  0.00    +0.000 A 
ATOM      5  C   UNL     1      45.256   2.922   9.606  0.00  0.00    +0.000 A 
ATOM      6  N   UNL     1      44.703   2.941  10.878  0.00  0.00    +0.000 N 
ATOM      7  N   UNL     1      45.706   1.723   9.186  0.00  0.00    +0.000 NA
ATOM      8  C   UNL     1      46.336   1.660   7.981  0.00  0.00    +0.000 A 
ATOM      9  H   UNL     1      44.576   1.975  11.172  0.00  0.00    +0.000 HD
BRANCH   2  11
ATOM     10  N   UNL     1      48.513   2.004   5.939  0.00  0.00    +0.000 N 
ATOM     11  C   UNL     1      47.273   2.575   5.884  0.00  0.00    +0.000 C 
ATOM     12  O   UNL     1      46.766   2.887   4.816  0.00  0.00    +0.000 OA
ATOM     13  H   UNL     1      48.943   1.787   5.048  0.00  0.00    +0.000 HD
ATOM     14  H   UNL     1      48.851   1.509   6.752  0.00  0.00    +0.000 HD
ENDBRANCH   2  11
ENDBRANCH   1   6
BRANCH   1  15
ATOM     15  C   UNL     1      44.006   5.247  11.255  0.00  0.00    +0.000 A 
ATOM     16  C   UNL     1      43.122   6.297  10.978  0.00  0.00    +0.000 A 
ATOM     17  C   UNL     1      43.518   7.617  11.178  0.00  0.00    +0.000 A 
ATOM     18  C   UNL     1      44.797   7.902  11.666  0.00  0.00    +0.000 A 
ATOM     19  C   UNL     1      45.708   6.875  11.973  0.00  0.00    +0.000 A 
ATOM     20  C   UNL     1      45.295   5.551  11.724  0.00  0.00    +0.000 A 
BRANCH  19  21
ATOM     21  C   UNL     1      47.011   7.155  12.625  0.00  0.00    +0.000 A 
ATOM     22  C   UNL     1      47.360   6.530  13.838  0.00  0.00    +0.000 A 
ATOM     23  C   UNL     1      48.626   6.697  14.411  0.00  0.00    +0.000 A 
ATOM     24  C   UNL     1      49.572   7.489  13.775  0.00  0.00    +0.000 A 
ATOM     25 CL   UNL     1      51.147   7.650  14.447  0.00  0.00    +0.000 Cl
ATOM     26  C   UNL     1      49.253   8.141  12.588  0.00  0.00    +0.000 A 
ATOM     27  C   UNL     1      47.980   7.983  12.027  0.00  0.00    +0.000 A 
ENDBRANCH  19  21
ENDBRANCH   1  15
TORSDOF 4
ENDMDL
