MODEL 1
REMARK VINA RESULT:    -7.491      0.000      0.000
REMARK INTER + INTRA:         -11.025
REMARK INTER:                 -10.338
REMARK INTRA:                  -0.687
REMARK UNBOUND:                -0.687
REMARK  Name = 
REMARK  7 active torsions:
REMARK  status: ('A' for Active; 'I' for Inactive)
REMARK    1  A    between atoms: N_1  and  C_2
REMARK    2  A    between atoms: C_2  and  C_3
REMARK    3  A    between atoms: C_6  and  C_7
REMARK    4  A    between atoms: C_7  and  C_8
REMARK    5  A    between atoms: C_8  and  C_9
REMARK    6  A    between atoms: C_9  and  C_10
REMARK    7  A    between atoms: C_13  and  C_14
REMARK                            x       y       z     vdW  Elec       q    Type
REMARK                         _______ _______ _______ _____ _____    ______ ____
ROOT
ATOM      1  C   UNL     1      43.896   3.411  11.813  0.00  0.00    +0.000 C 
ENDROOT
BRANCH   1   2
ATOM      2  C   UNL     1      44.006   4.517  12.866  0.00  0.00    +0.000 C 
BRANCH   2   6
ATOM      3  C   UNL     1      47.848   6.368  12.759  0.00  0.00    +0.000 A 
ATOM      4  C   UNL     1      46.873   6.807  11.867  0.00  0.00    +0.000 A 
ATOM      5  C   UNL     1      45.612   6.216  11.896  0.00  0.00    +0.000 A 
ATOM      6  C   UNL     1      45.347   5.198  12.812  0.00  0.00    +0.000 A 
ATOM      7  C   UNL     1      46.385   4.817  13.657  0.00  0.00    +0.000 A 
ATOM      8  N   UNL     1      47.617   5.376  13.656  0.00  0.00    +0.000 NA
BRANCH   3   9
ATOM      9  C   UNL     1      49.218   7.014  12.772  0.00  0.00    +0.000 C 
BRANCH   9  10
ATOM     10  N   UNL     1      49.862   6.941  14.089  0.00  0.00    +0.000 NA
ATOM     11  H   UNL     1      49.747   7.840  14.555  0.00  0.00    +0.000 HD
ATOM     12  H   UNL     1      50.865   6.832  13.936  0.00  0.00    +0.000 HD
ENDBRANCH   9  10
ENDBRANCH   3   9
ENDBRANCH   2   6
ENDBRANCH   1   2
BRANCH   1  13
ATOM     13  C   UNL     1      43.582   3.971  10.423  0.00  0.00    +0.000 C 
BRANCH  13  14
ATOM     14  C   UNL     1      44.582   3.496   9.401  0.00  0.00    +0.000 A 
ATOM     15  C   UNL     1      44.958   2.153   9.324  0.00  0.00    +0.000 A 
ATOM     16  C   UNL     1      45.911   1.753   8.389  0.00  0.00    +0.000 A 
ATOM     17  C   UNL     1      46.461   2.720   7.558  0.00  0.00    +0.000 A 
ATOM     18  N   UNL     1      46.124   4.040   7.603  0.00  0.00    +0.000 NA
ATOM     19  C   UNL     1      45.196   4.390   8.524  0.00  0.00    +0.000 A 
BRANCH  17  20
ATOM     20  C   UNL     1      47.493   2.327   6.545  0.00  0.00    +0.000 C 
ATOM     21  N   UNL     1      47.525   3.092   5.411  0.00  0.00    +0.000 N 
ATOM     22  O   UNL     1      48.262   1.390   6.713  0.00  0.00    +0.000 OA
ATOM     23  H   UNL     1      46.875   3.864   5.313  0.00  0.00    +0.000 HD
ATOM     24  H   UNL     1      48.198   2.888   4.687  0.00  0.00    +0.000 HD
ENDBRANCH  17  20
ENDBRANCH  13  14
ENDBRANCH   1  13
TORSDOF 7
ENDMDL
MODEL 2
REMARK VINA RESULT:    -7.241      1.920      6.243
REMARK INTER + INTRA:         -10.679
REMARK INTER:                  -9.884
REMARK INTRA:                  -0.795
REMARK UNBOUND:                -0.687
REMARK  Name = 
REMARK  7 active torsions:
REMARK  status: ('A' for Active; 'I' for Inactive)
REMARK    1  A    between atoms: N_1  and  C_2
REMARK    2  A    between atoms: C_2  and  C_3
REMARK    3  A    between atoms: C_6  and  C_7
REMARK    4  A    between atoms: C_7  and  C_8
REMARK    5  A    between atoms: C_8  and  C_9
REMARK    6  A    between atoms: C_9  and  C_10
REMARK    7  A    between atoms: C_13  and  C_14
REMARK                            x       y       z     vdW  Elec       q    Type
REMARK                         _______ _______ _______ _____ _____    ______ ____
ROOT
ATOM      1  C   UNL     1      44.511   3.231  11.969  0.00  0.00    +0.000 C 
ENDROOT
BRANCH   1   2
ATOM      2  C   UNL     1      43.823   3.487  10.625  0.00  0.00    +0.000 C 
BRANCH   2   6
ATOM      3  C   UNL     1      46.520   2.952   7.363  0.00  0.00    +0.000 A 
ATOM      4  C   UNL     1      46.136   1.833   8.098  0.00  0.00    +0.000 A 
ATOM      5  C   UNL     1      45.250   1.993   9.162  0.00  0.00    +0.000 A 
ATOM      6  C   UNL     1      44.766   3.264   9.473  0.00  0.00    +0.000 A 
ATOM      7  C   UNL     1      45.214   4.324   8.691  0.00  0.00    +0.000 A 
ATOM      8  N   UNL     1      46.067   4.198   7.649  0.00  0.00    +0.000 NA
BRANCH   3   9
ATOM      9  C   UNL     1      47.457   2.804   6.181  0.00  0.00    +0.000 C 
BRANCH   9  10
ATOM     10  N   UNL     1      48.418   1.709   6.361  0.00  0.00    +0.000 NA
ATOM     11  H   UNL     1      49.110   1.762   5.615  0.00  0.00    +0.000 HD
ATOM     12  H   UNL     1      47.917   0.832   6.215  0.00  0.00    +0.000 HD
ENDBRANCH   9  10
ENDBRANCH   3   9
ENDBRANCH   2   6
ENDBRANCH   1   2
BRANCH   1  13
ATOM     13  C   UNL     1      44.472   4.464  12.877  0.00  0.00    +0.000 C 
BRANCH  13  14
ATOM     14  C   UNL     1      45.759   5.244  12.800  0.00  0.00    +0.000 A 
ATOM     15  C   UNL     1      45.943   6.247  11.845  0.00  0.00    +0.000 A 
ATOM     16  C   UNL     1      47.159   6.925  11.779  0.00  0.00    +0.000 A 
ATOM     17  C   UNL     1      48.157   6.571  12.677  0.00  0.00    +0.000 A 
ATOM     18  N   UNL     1      48.019   5.597  13.620  0.00  0.00    +0.000 NA
ATOM     19  C   UNL     1      46.826   4.960  13.652  0.00  0.00    +0.000 A 
BRANCH  17  20
ATOM     20  C   UNL     1      49.480   7.275  12.631  0.00  0.00    +0.000 C 
ATOM     21  N   UNL     1      50.128   7.386  13.830  0.00  0.00    +0.000 N 
ATOM     22  O   UNL     1      49.956   7.721  11.595  0.00  0.00    +0.000 OA
ATOM     23  H   UNL     1      49.703   6.998  14.664  0.00  0.00    +0.000 HD
ATOM     24  H   UNL     1      51.026   7.845  13.873  0.00  0.00    +0.000 HD
ENDBRANCH  17  20
ENDBRANCH  13  14
ENDBRANCH   1  13
TORSDOF 7
ENDMDL
MODEL 3
REMARK VINA RESULT:    -6.998      1.918      2.453
REMARK INTER + INTRA:         -10.344
REMARK INTER:                  -9.851
REMARK INTRA:                  -0.493
REMARK UNBOUND:                -0.687
REMARK  Name = 
REMARK  7 active torsions:
REMARK  status: ('A' for Active; 'I' for Inactive)
REMARK    1  A    between atoms: N_1  and  C_2
REMARK    2  A    between atoms: C_2  and  C_3
REMARK    3  A    between atoms: C_6  and  C_7
REMARK    4  A    between atoms: C_7  and  C_8
REMARK    5  A    between atoms: C_8  and  C_9
REMARK    6  A    between atoms: C_9  and  C_10
REMARK    7  A    between atoms: C_13  and  C_14
REMARK                            x       y       z     vdW  Elec       q    Type
REMARK                         _______ _______ _______ _____ _____    ______ ____
ROOT
ATOM      1  C   UNL     1      44.271   5.109  11.486  0.00  0.00    +0.000 C 
ENDROOT
BRANCH   1   2
ATOM      2  C   UNL     1      45.725   5.589  11.509  0.00  0.00    +0.000 C 
BRANCH   2   6
ATOM      3  C   UNL     1      47.471   4.922  15.344  0.00  0.00    +0.000 A 
ATOM      4  C   UNL     1      47.892   6.025  14.604  0.00  0.00    +0.000 A 
ATOM      5  C   UNL     1      47.325   6.258  13.353  0.00  0.00    +0.000 A 
ATOM      6  C   UNL     1      46.351   5.388  12.863  0.00  0.00    +0.000 A 
ATOM      7  C   UNL     1      46.002   4.307  13.666  0.00  0.00    +0.000 A 
ATOM      8  N   UNL     1      46.530   4.059  14.886  0.00  0.00    +0.000 NA
BRANCH   3   9
ATOM      9  C   UNL     1      48.047   4.662  16.721  0.00  0.00    +0.000 C 
BRANCH   9  10
ATOM     10  N   UNL     1      49.364   4.016  16.666  0.00  0.00    +0.000 NA
ATOM     11  H   UNL     1      49.915   4.469  15.938  0.00  0.00    +0.000 HD
ATOM     12  H   UNL     1      49.223   3.055  16.352  0.00  0.00    +0.000 HD
ENDBRANCH   9  10
ENDBRANCH   3   9
ENDBRANCH   2   6
ENDBRANCH   1   2
BRANCH   1  13
ATOM     13  C   UNL     1      43.778   4.840  10.061  0.00  0.00    +0.000 C 
BRANCH  13  14
ATOM     14  C   UNL     1      44.680   3.869   9.342  0.00  0.00    +0.000 A 
ATOM     15  C   UNL     1      45.545   4.296   8.332  0.00  0.00    +0.000 A 
ATOM     16  C   UNL     1      46.341   3.367   7.663  0.00  0.00    +0.000 A 
ATOM     17  C   UNL     1      46.240   2.032   8.032  0.00  0.00    +0.000 A 
ATOM     18  N   UNL     1      45.407   1.575   9.009  0.00  0.00    +0.000 NA
ATOM     19  C   UNL     1      44.650   2.506   9.634  0.00  0.00    +0.000 A 
BRANCH  17  20
ATOM     20  C   UNL     1      47.077   1.005   7.331  0.00  0.00    +0.000 C 
ATOM     21  N   UNL     1      46.783  -0.297   7.632  0.00  0.00    +0.000 N 
ATOM     22  O   UNL     1      47.962   1.300   6.539  0.00  0.00    +0.000 OA
ATOM     23  H   UNL     1      46.038  -0.501   8.288  0.00  0.00    +0.000 HD
ATOM     24  H   UNL     1      47.303  -1.042   7.193  0.00  0.00    +0.000 HD
ENDBRANCH  17  20
ENDBRANCH  13  14
ENDBRANCH   1  13
TORSDOF 7
ENDMDL
MODEL 4
REMARK VINA RESULT:    -6.762      2.729      6.453
REMARK INTER + INTRA:         -10.019
REMARK INTER:                  -9.820
REMARK INTRA:                  -0.199
REMARK UNBOUND:                -0.687
REMARK  Name = 
REMARK  7 active torsions:
REMARK  status: ('A' for Active; 'I' for Inactive)
REMARK    1  A    between atoms: N_1  and  C_2
REMARK    2  A    between atoms: C_2  and  C_3
REMARK    3  A    between atoms: C_6  and  C_7
REMARK    4  A    between atoms: C_7  and  C_8
REMARK    5  A    between atoms: C_8  and  C_9
REMARK    6  A    between atoms: C_9  and  C_10
REMARK    7  A    between atoms: C_13  and  C_14
REMARK                            x       y       z     vdW  Elec       q    Type
REMARK                         _______ _______ _______ _____ _____    ______ ____
ROOT
ATOM      1  C   UNL     1      43.550   3.364  11.493  0.00  0.00    +0.000 C 
ENDROOT
BRANCH   1   2
ATOM      2  C   UNL     1      43.757   4.178  10.213  0.00  0.00    +0.000 C 
BRANCH   2   6
ATOM      3  C   UNL     1      46.592   2.263   7.663  0.00  0.00    +0.000 A 
ATOM      4  C   UNL     1      46.455   3.647   7.585  0.00  0.00    +0.000 A 
ATOM      5  C   UNL     1      45.538   4.285   8.417  0.00  0.00    +0.000 A 
ATOM      6  C   UNL     1      44.774   3.533   9.309  0.00  0.00    +0.000 A 
ATOM      7  C   UNL     1      44.970   2.156   9.309  0.00  0.00    +0.000 A 
ATOM      8  N   UNL     1      45.857   1.509   8.518  0.00  0.00    +0.000 NA
BRANCH   3   9
ATOM      9  C   UNL     1      47.604   1.546   6.793  0.00  0.00    +0.000 C 
BRANCH   9  10
ATOM     10  N   UNL     1      48.628   2.452   6.260  0.00  0.00    +0.000 NA
ATOM     11  H   UNL     1      48.192   3.351   6.059  0.00  0.00    +0.000 HD
ATOM     12  H   UNL     1      48.929   2.080   5.358  0.00  0.00    +0.000 HD
ENDBRANCH   9  10
ENDBRANCH   3   9
ENDBRANCH   2   6
ENDBRANCH   1   2
BRANCH   1  13
ATOM     13  C   UNL     1      44.792   3.380  12.390  0.00  0.00    +0.000 C 
BRANCH  13  14
ATOM     14  C   UNL     1      45.322   4.780  12.568  0.00  0.00    +0.000 A 
ATOM     15  C   UNL     1      46.695   5.035  12.608  0.00  0.00    +0.000 A 
ATOM     16  C   UNL     1      47.152   6.336  12.809  0.00  0.00    +0.000 A 
ATOM     17  C   UNL     1      46.210   7.344  12.966  0.00  0.00    +0.000 A 
ATOM     18  N   UNL     1      44.864   7.137  12.936  0.00  0.00    +0.000 NA
ATOM     19  C   UNL     1      44.459   5.861  12.741  0.00  0.00    +0.000 A 
BRANCH  17  20
ATOM     20  C   UNL     1      46.666   8.756  13.189  0.00  0.00    +0.000 C 
ATOM     21  N   UNL     1      47.088   9.043  14.458  0.00  0.00    +0.000 N 
ATOM     22  O   UNL     1      46.667   9.599  12.302  0.00  0.00    +0.000 OA
ATOM     23  H   UNL     1      47.077   8.315  15.164  0.00  0.00    +0.000 HD
ATOM     24  H   UNL     1      47.413   9.972  14.679  0.00  0.00    +0.000 HD
ENDBRANCH  17  20
ENDBRANCH  13  14
ENDBRANCH   1  13
TORSDOF 7
ENDMDL
MODEL 5
REMARK VINA RESULT:    -6.677      1.257      1.782
REMARK INTER + INTRA:          -9.901
REMARK INTER:                  -9.157
REMARK INTRA:                  -0.743
REMARK UNBOUND:                -0.687
REMARK  Name = 
REMARK  7 active torsions:
REMARK  status: ('A' for Active; 'I' for Inactive)
REMARK    1  A    between atoms: N_1  and  C_2
REMARK    2  A    between atoms: C_2  and  C_3
REMARK    3  A    between atoms: C_6  and  C_7
REMARK    4  A    between atoms: C_7  and  C_8
REMARK    5  A    between atoms: C_8  and  C_9
REMARK    6  A    between atoms: C_9  and  C_10
REMARK    7  A    between atoms: C_13  and  C_14
REMARK                            x       y       z     vdW  Elec       q    Type
REMARK                         _______ _______ _______ _____ _____    ______ ____
ROOT
ATOM      1  C   UNL     1      44.399   4.699  11.760  0.00  0.00    +0.000 C 
ENDROOT
BRANCH   1   2
ATOM      2  C   UNL     1      44.435   6.226  11.865  0.00  0.00    +0.000 C 
BRANCH   2   6
ATOM      3  C   UNL     1      48.124   7.670  13.449  0.00  0.00    +0.000 A 
ATOM      4  C   UNL     1      48.081   6.375  12.938  0.00  0.00    +0.000 A 
ATOM      5  C   UNL     1      46.884   5.893  12.412  0.00  0.00    +0.000 A 
ATOM      6  C   UNL     1      45.754   6.711  12.405  0.00  0.00    +0.000 A 
ATOM      7  C   UNL     1      45.887   7.985  12.947  0.00  0.00    +0.000 A 
ATOM      8  N   UNL     1      47.037   8.482  13.458  0.00  0.00    +0.000 NA
BRANCH   3   9
ATOM      9  C   UNL     1      49.420   8.231  13.998  0.00  0.00    +0.000 C 
BRANCH   9  10
ATOM     10  N   UNL     1      50.336   7.181  14.458  0.00  0.00    +0.000 NA
ATOM     11  H   UNL     1      49.786   6.364  14.721  0.00  0.00    +0.000 HD
ATOM     12  H   UNL     1      50.775   7.510  15.319  0.00  0.00    +0.000 HD
ENDBRANCH   9  10
ENDBRANCH   3   9
ENDBRANCH   2   6
ENDBRANCH   1   2
BRANCH   1  13
ATOM     13  C   UNL     1      43.724   4.229  10.468  0.00  0.00    +0.000 C 
BRANCH  13  14
ATOM     14  C   UNL     1      44.737   3.738   9.466  0.00  0.00    +0.000 A 
ATOM     15  C   UNL     1      45.452   4.629   8.662  0.00  0.00    +0.000 A 
ATOM     16  C   UNL     1      46.357   4.141   7.722  0.00  0.00    +0.000 A 
ATOM     17  C   UNL     1      46.514   2.765   7.616  0.00  0.00    +0.000 A 
ATOM     18  N   UNL     1      45.834   1.862   8.378  0.00  0.00    +0.000 NA
ATOM     19  C   UNL     1      44.964   2.375   9.279  0.00  0.00    +0.000 A 
BRANCH  17  20
ATOM     20  C   UNL     1      47.475   2.203   6.611  0.00  0.00    +0.000 C 
ATOM     21  N   UNL     1      47.534   2.871   5.419  0.00  0.00    +0.000 N 
ATOM     22  O   UNL     1      48.166   1.218   6.835  0.00  0.00    +0.000 OA
ATOM     23  H   UNL     1      46.949   3.687   5.275  0.00  0.00    +0.000 HD
ATOM     24  H   UNL     1      48.162   2.552   4.697  0.00  0.00    +0.000 HD
ENDBRANCH  17  20
ENDBRANCH  13  14
ENDBRANCH   1  13
TORSDOF 7
ENDMDL
MODEL 6
REMARK VINA RESULT:    -6.316      3.090      4.815
REMARK INTER + INTRA:          -9.403
REMARK INTER:                  -8.660
REMARK INTRA:                  -0.744
REMARK UNBOUND:                -0.687
REMARK  Name = 
REMARK  7 active torsions:
REMARK  status: ('A' for Active; 'I' for Inactive)
REMARK    1  A    between atoms: N_1  and  C_2
REMARK    2  A    between atoms: C_2  and  C_3
REMARK    3  A    between atoms: C_6  and  C_7
REMARK    4  A    between atoms: C_7  and  C_8
REMARK    5  A    between atoms: C_8  and  C_9
REMARK    6  A    between atoms: C_9  and  C_10
REMARK    7  A    between atoms: C_13  and  C_14
REMARK                            x       y       z     vdW  Elec       q    Type
REMARK                         _______ _______ _______ _____ _____    ______ ____
ROOT
ATOM      1  C   UNL     1      46.502   8.142  13.338  0.00  0.00    +0.000 C 
ENDROOT
BRANCH   1   2
ATOM      2  C   UNL     1      47.790   7.319  13.245  0.00  0.00    +0.000 C 
BRANCH   2   6
ATOM      3  C   UNL     1      47.882   4.184  16.137  0.00  0.00    +0.000 A 
ATOM      4  C   UNL     1      48.498   5.394  16.447  0.00  0.00    +0.000 A 
ATOM      5  C   UNL     1      48.470   6.428  15.514  0.00  0.00    +0.000 A 
ATOM      6  C   UNL     1      47.829   6.237  14.290  0.00  0.00    +0.000 A 
ATOM      7  C   UNL     1      47.251   4.992  14.062  0.00  0.00    +0.000 A 
ATOM      8  N   UNL     1      47.258   3.972  14.951  0.00  0.00    +0.000 NA
BRANCH   3   9
ATOM      9  C   UNL     1      47.870   3.053  17.144  0.00  0.00    +0.000 C 
BRANCH   9  10
ATOM     10  N   UNL     1      46.536   2.818  17.710  0.00  0.00    +0.000 NA
ATOM     11  H   UNL     1      46.400   3.456  18.492  0.00  0.00    +0.000 HD
ATOM     12  H   UNL     1      46.533   1.880  18.111  0.00  0.00    +0.000 HD
ENDBRANCH   9  10
ENDBRANCH   3   9
ENDBRANCH   2   6
ENDBRANCH   1   2
BRANCH   1  13
ATOM     13  C   UNL     1      45.691   8.088  12.040  0.00  0.00    +0.000 C 
BRANCH  13  14
ATOM     14  C   UNL     1      45.241   6.682  11.733  0.00  0.00    +0.000 A 
ATOM     15  C   UNL     1      45.692   6.010  10.594  0.00  0.00    +0.000 A 
ATOM     16  C   UNL     1      45.229   4.724  10.321  0.00  0.00    +0.000 A 
ATOM     17  C   UNL     1      44.323   4.152  11.204  0.00  0.00    +0.000 A 
ATOM     18  N   UNL     1      43.856   4.775  12.323  0.00  0.00    +0.000 NA
ATOM     19  C   UNL     1      44.327   6.022  12.553  0.00  0.00    +0.000 A 
BRANCH  17  20
ATOM     20  C   UNL     1      43.800   2.772  10.940  0.00  0.00    +0.000 C 
ATOM     21  N   UNL     1      44.354   2.130   9.866  0.00  0.00    +0.000 N 
ATOM     22  O   UNL     1      42.940   2.246  11.633  0.00  0.00    +0.000 OA
ATOM     23  H   UNL     1      45.068   2.598   9.320  0.00  0.00    +0.000 HD
ATOM     24  H   UNL     1      44.053   1.196   9.631  0.00  0.00    +0.000 HD
ENDBRANCH  17  20
ENDBRANCH  13  14
ENDBRANCH   1  13
TORSDOF 7
ENDMDL
MODEL 7
REMARK VINA RESULT:    -5.942      3.873      7.232
REMARK INTER + INTRA:          -8.887
REMARK INTER:                  -8.148
REMARK INTRA:                  -0.739
REMARK UNBOUND:                -0.687
REMARK  Name = 
REMARK  7 active torsions:
REMARK  status: ('A' for Active; 'I' for Inactive)
REMARK    1  A    between atoms: N_1  and  C_2
REMARK    2  A    between atoms: C_2  and  C_3
REMARK    3  A    between atoms: C_6  and  C_7
REMARK    4  A    between atoms: C_7  and  C_8
REMARK    5  A    between atoms: C_8  and  C_9
REMARK    6  A    between atoms: C_9  and  C_10
REMARK    7  A    between atoms: C_13  and  C_14
REMARK                            x       y       z     vdW  Elec       q    Type
REMARK                         _______ _______ _______ _____ _____    ______ ____
ROOT
ATOM      1  C   UNL     1      46.592   8.010  13.269  0.00  0.00    +0.000 C 
ENDROOT
BRANCH   1   2
ATOM      2  C   UNL     1      45.838   8.027  11.937  0.00  0.00    +0.000 C 
BRANCH   2   6
ATOM      3  C   UNL     1      44.373   4.147  10.936  0.00  0.00    +0.000 A 
ATOM      4  C   UNL     1      45.300   4.747  10.087  0.00  0.00    +0.000 A 
ATOM      5  C   UNL     1      45.792   6.011  10.406  0.00  0.00    +0.000 A 
ATOM      6  C   UNL     1      45.350   6.653  11.563  0.00  0.00    +0.000 A 
ATOM      7  C   UNL     1      44.414   5.982  12.344  0.00  0.00    +0.000 A 
ATOM      8  N   UNL     1      43.924   4.753  12.063  0.00  0.00    +0.000 NA
BRANCH   3   9
ATOM      9  C   UNL     1      43.846   2.760  10.631  0.00  0.00    +0.000 C 
BRANCH   9  10
ATOM     10  N   UNL     1      43.006   2.228  11.710  0.00  0.00    +0.000 NA
ATOM     11  H   UNL     1      43.368   1.316  11.983  0.00  0.00    +0.000 HD
ATOM     12  H   UNL     1      42.078   2.056  11.322  0.00  0.00    +0.000 HD
ENDBRANCH   9  10
ENDBRANCH   3   9
ENDBRANCH   2   6
ENDBRANCH   1   2
BRANCH   1  13
ATOM     13  C   UNL     1      47.814   7.088  13.226  0.00  0.00    +0.000 C 
BRANCH  13  14
ATOM     14  C   UNL     1      47.790   6.091  14.356  0.00  0.00    +0.000 A 
ATOM     15  C   UNL     1      48.483   6.328  15.546  0.00  0.00    +0.000 A 
ATOM     16  C   UNL     1      48.469   5.371  16.558  0.00  0.00    +0.000 A 
ATOM     17  C   UNL     1      47.756   4.199  16.342  0.00  0.00    +0.000 A 
ATOM     18  N   UNL     1      47.070   3.928  15.196  0.00  0.00    +0.000 NA
ATOM     19  C   UNL     1      47.109   4.881  14.236  0.00  0.00    +0.000 A 
BRANCH  17  20
ATOM     20  C   UNL     1      47.723   3.144  17.407  0.00  0.00    +0.000 C 
ATOM     21  N   UNL     1      48.918   2.899  18.028  0.00  0.00    +0.000 N 
ATOM     22  O   UNL     1      46.702   2.542  17.710  0.00  0.00    +0.000 OA
ATOM     23  H   UNL     1      49.739   3.424  17.753  0.00  0.00    +0.000 HD
ATOM     24  H   UNL     1      48.968   2.205  18.759  0.00  0.00    +0.000 HD
ENDBRANCH  17  20
ENDBRANCH  13  14
ENDBRANCH   1  13
TORSDOF 7
ENDMDL
MODEL 8
REMARK VINA RESULT:    -5.705      5.073      8.229
REMARK INTER + INTRA:          -8.560
REMARK INTER:                  -7.953
REMARK INTRA:                  -0.607
REMARK UNBOUND:                -0.687
REMARK  Name = 
REMARK  7 active torsions:
REMARK  status: ('A' for Active; 'I' for Inactive)
REMARK    1  A    between atoms: N_1  and  C_2
REMARK    2  A    between atoms: C_2  and  C_3
REMARK    3  A    between atoms: C_6  and  C_7
REMARK    4  A    between atoms: C_7  and  C_8
REMARK    5  A    between atoms: C_8  and  C_9
REMARK    6  A    between atoms: C_9  and  C_10
REMARK    7  A    between atoms: C_13  and  C_14
REMARK                            x       y       z     vdW  Elec       q    Type
REMARK                         _______ _______ _______ _____ _____    ______ ____
ROOT
ATOM      1  C   UNL     1      47.590   5.603  15.927  0.00  0.00    +0.000 C 
ENDROOT
BRANCH   1   2
ATOM      2  C   UNL     1      47.874   5.566  14.423  0.00  0.00    +0.000 C 
BRANCH   2   6
ATOM      3  C   UNL     1      44.520   4.126  12.214  0.00  0.00    +0.000 A 
ATOM      4  C   UNL     1      45.560   3.243  12.497  0.00  0.00    +0.000 A 
ATOM      5  C   UNL     1      46.658   3.699  13.223  0.00  0.00    +0.000 A 
ATOM      6  C   UNL     1      46.700   5.025  13.653  0.00  0.00    +0.000 A 
ATOM      7  C   UNL     1      45.622   5.838  13.314  0.00  0.00    +0.000 A 
ATOM      8  N   UNL     1      44.541   5.422  12.616  0.00  0.00    +0.000 NA
BRANCH   3   9
ATOM      9  C   UNL     1      43.299   3.650  11.454  0.00  0.00    +0.000 C 
BRANCH   9  10
ATOM     10  N   UNL     1      43.001   2.235  11.700  0.00  0.00    +0.000 NA
ATOM     11  H   UNL     1      43.440   1.679  10.968  0.00  0.00    +0.000 HD
ATOM     12  H   UNL     1      41.995   2.107  11.583  0.00  0.00    +0.000 HD
ENDBRANCH   9  10
ENDBRANCH   3   9
ENDBRANCH   2   6
ENDBRANCH   1   2
BRANCH   1  13
ATOM     13  C   UNL     1      47.351   4.202  16.500  0.00  0.00    +0.000 C 
BRANCH  13  14
ATOM     14  C   UNL     1      48.650   3.527  16.857  0.00  0.00    +0.000 A 
ATOM     15  C   UNL     1      49.625   4.184  17.611  0.00  0.00    +0.000 A 
ATOM     16  C   UNL     1      50.830   3.543  17.895  0.00  0.00    +0.000 A 
ATOM     17  C   UNL     1      51.018   2.256  17.408  0.00  0.00    +0.000 A 
ATOM     18  N   UNL     1      50.094   1.582  16.667  0.00  0.00    +0.000 NA
ATOM     19  C   UNL     1      48.938   2.237  16.412  0.00  0.00    +0.000 A 
BRANCH  17  20
ATOM     20  C   UNL     1      52.304   1.538  17.690  0.00  0.00    +0.000 C 
ATOM     21  N   UNL     1      52.172   0.264  18.172  0.00  0.00    +0.000 N 
ATOM     22  O   UNL     1      53.401   2.047  17.501  0.00  0.00    +0.000 OA
ATOM     23  H   UNL     1      51.245  -0.123  18.309  0.00  0.00    +0.000 HD
ATOM     24  H   UNL     1      52.996  -0.280  18.379  0.00  0.00    +0.000 HD
ENDBRANCH  17  20
ENDBRANCH  13  14
ENDBRANCH   1  13
TORSDOF 7
ENDMDL
MODEL 9
REMARK VINA RESULT:    -5.465      3.720      5.473
REMARK INTER + INTRA:          -8.228
REMARK INTER:                  -7.483
REMARK INTRA:                  -0.746
REMARK UNBOUND:                -0.687
REMARK  Name = 
REMARK  7 active torsions:
REMARK  status: ('A' for Active; 'I' for Inactive)
REMARK    1  A    between atoms: N_1  and  C_2
REMARK    2  A    between atoms: C_2  and  C_3
REMARK    3  A    between atoms: C_6  and  C_7
REMARK    4  A    between atoms: C_7  and  C_8
REMARK    5  A    between atoms: C_8  and  C_9
REMARK    6  A    between atoms: C_9  and  C_10
REMARK    7  A    between atoms: C_13  and  C_14
REMARK                            x       y       z     vdW  Elec       q    Type
REMARK                         _______ _______ _______ _____ _____    ______ ____
ROOT
ATOM      1  C   UNL     1      48.559   6.603  13.551  0.00  0.00    +0.000 C 
ENDROOT
BRANCH   1   2
ATOM      2  C   UNL     1      49.008   7.456  14.741  0.00  0.00    +0.000 C 
BRANCH   2   6
ATOM      3  C   UNL     1      48.688   5.399  18.465  0.00  0.00    +0.000 A 
ATOM      4  C   UNL     1      48.173   4.791  17.322  0.00  0.00    +0.000 A 
ATOM      5  C   UNL     1      48.277   5.449  16.099  0.00  0.00    +0.000 A 
ATOM      6  C   UNL     1      48.890   6.700  16.037  0.00  0.00    +0.000 A 
ATOM      7  C   UNL     1      49.364   7.236  17.230  0.00  0.00    +0.000 A 
ATOM      8  N   UNL     1      49.283   6.617  18.431  0.00  0.00    +0.000 NA
BRANCH   3   9
ATOM      9  C   UNL     1      48.617   4.693  19.803  0.00  0.00    +0.000 C 
BRANCH   9  10
ATOM     10  N   UNL     1      48.435   3.243  19.664  0.00  0.00    +0.000 NA
ATOM     11  H   UNL     1      47.657   2.957  20.256  0.00  0.00    +0.000 HD
ATOM     12  H   UNL     1      49.263   2.790  20.054  0.00  0.00    +0.000 HD
ENDBRANCH   9  10
ENDBRANCH   3   9
ENDBRANCH   2   6
ENDBRANCH   1   2
BRANCH   1  13
ATOM     13  C   UNL     1      47.250   7.114  12.940  0.00  0.00    +0.000 C 
BRANCH  13  14
ATOM     14  C   UNL     1      46.386   5.976  12.462  0.00  0.00    +0.000 A 
ATOM     15  C   UNL     1      46.258   4.801  13.207  0.00  0.00    +0.000 A 
ATOM     16  C   UNL     1      45.478   3.754  12.720  0.00  0.00    +0.000 A 
ATOM     17  C   UNL     1      44.848   3.921  11.494  0.00  0.00    +0.000 A 
ATOM     18  N   UNL     1      44.950   5.048  10.736  0.00  0.00    +0.000 NA
ATOM     19  C   UNL     1      45.717   6.042  11.241  0.00  0.00    +0.000 A 
BRANCH  17  20
ATOM     20  C   UNL     1      44.005   2.813  10.937  0.00  0.00    +0.000 C 
ATOM     21  N   UNL     1      44.482   2.229   9.795  0.00  0.00    +0.000 N 
ATOM     22  O   UNL     1      42.963   2.447  11.463  0.00  0.00    +0.000 OA
ATOM     23  H   UNL     1      45.353   2.558   9.394  0.00  0.00    +0.000 HD
ATOM     24  H   UNL     1      43.968   1.474   9.367  0.00  0.00    +0.000 HD
ENDBRANCH  17  20
ENDBRANCH  13  14
ENDBRANCH   1  13
TORSDOF 7
ENDMDL
