MODEL 1
REMARK VINA RESULT:    -8.765      0.000      0.000
REMARK INTER + INTRA:         -12.432
REMARK INTER:                 -11.839
REMARK INTRA:                  -0.593
REMARK UNBOUND:                -0.593
REMARK  Name = 
REMARK  7 active torsions:
REMARK  status: ('A' for Active; 'I' for Inactive)
REMARK    1  A    between atoms: C_1  and  C_2
REMARK    2  A    between atoms: C_2  and  N_3
REMARK    3  A    between atoms: C_2  and  C_16
REMARK    4  A    between atoms: C_4  and  C_6
REMARK    5  A    between atoms: C_19  and  O_20
REMARK    6  A    between atoms: O_20  and  C_21
REMARK    7  A    between atoms: C_21  and  C_22
REMARK                            x       y       z     vdW  Elec       q    Type
REMARK                         _______ _______ _______ _____ _____    ______ ____
ROOT
ATOM      1  C   UNL     1      48.166   8.878  12.245  0.00  0.00    +0.000 C 
ATOM      2  C   UNL     1      47.011   8.305  13.079  0.00  0.00    +0.000 C 
ENDROOT
BRANCH   2   3
ATOM      3  C   UNL     1      46.270   7.178  12.383  0.00  0.00    +0.000 A 
ATOM      4  C   UNL     1      46.582   6.842  11.055  0.00  0.00    +0.000 A 
ATOM      5  C   UNL     1      45.959   5.758  10.430  0.00  0.00    +0.000 A 
ATOM      6  C   UNL     1      45.019   4.998  11.124  0.00  0.00    +0.000 A 
ATOM      7  C   UNL     1      44.623   5.398  12.397  0.00  0.00    +0.000 A 
ATOM      8  C   UNL     1      45.241   6.475  13.020  0.00  0.00    +0.000 A 
BRANCH   6   9
ATOM      9  O   UNL     1      44.551   3.877  10.493  0.00  0.00    +0.000 OA
BRANCH   9  10
ATOM     10  C   UNL     1      44.429   4.022   9.075  0.00  0.00    +0.000 C 
BRANCH  10  11
ATOM     11  C   UNL     1      45.361   3.079   8.376  0.00  0.00    +0.000 A 
ATOM     12  C   UNL     1      46.251   3.534   7.399  0.00  0.00    +0.000 A 
ATOM     13  C   UNL     1      47.147   2.644   6.818  0.00  0.00    +0.000 A 
ATOM     14  C   UNL     1      47.129   1.326   7.245  0.00  0.00    +0.000 A 
ATOM     15  N   UNL     1      46.291   0.852   8.191  0.00  0.00    +0.000 NA
ATOM     16  C   UNL     1      45.426   1.739   8.734  0.00  0.00    +0.000 A 
ENDBRANCH  10  11
ENDBRANCH   9  10
ENDBRANCH   6   9
ENDBRANCH   2   3
BRANCH   2  17
ATOM     17  N   UNL     1      47.498   7.827  14.354  0.00  0.00    +0.000 N 
ATOM     18  C   UNL     1      48.400   6.804  14.454  0.00  0.00    +0.000 C 
ATOM     19  O   UNL     1      48.964   6.322  13.476  0.00  0.00    +0.000 OA
ATOM     20  H   UNL     1      46.951   8.088  15.167  0.00  0.00    +0.000 HD
BRANCH  18  21
ATOM     21  C   UNL     1      48.687   6.336  15.810  0.00  0.00    +0.000 A 
ATOM     22  C   UNL     1      49.535   7.068  16.630  0.00  0.00    +0.000 A 
ATOM     23  S   UNL     1      49.780   6.357  18.160  0.00  0.00    +0.000 S 
ATOM     24  C   UNL     1      48.794   5.026  17.761  0.00  0.00    +0.000 A 
ATOM     25  N   UNL     1      48.630   3.994  18.629  0.00  0.00    +0.000 NA
ATOM     26  C   UNL     1      47.894   3.034  18.184  0.00  0.00    +0.000 A 
ATOM     27  N   UNL     1      47.289   3.020  16.953  0.00  0.00    +0.000 N 
ATOM     28  C   UNL     1      47.382   4.065  16.065  0.00  0.00    +0.000 A 
ATOM     29  O   UNL     1      46.744   4.066  15.016  0.00  0.00    +0.000 OA
ATOM     30  C   UNL     1      48.247   5.145  16.494  0.00  0.00    +0.000 A 
ATOM     31  H   UNL     1      46.695   2.251  16.680  0.00  0.00    +0.000 HD
ENDBRANCH  18  21
ENDBRANCH   2  17
TORSDOF 6
ENDMDL
MODEL 2
REMARK VINA RESULT:    -7.707      2.571      3.497
REMARK INTER + INTRA:         -11.003
REMARK INTER:                  -9.727
REMARK INTRA:                  -1.276
REMARK UNBOUND:                -0.593
REMARK  Name = 
REMARK  7 active torsions:
REMARK  status: ('A' for Active; 'I' for Inactive)
REMARK    1  A    between atoms: C_1  and  C_2
REMARK    2  A    between atoms: C_2  and  N_3
REMARK    3  A    between atoms: C_2  and  C_16
REMARK    4  A    between atoms: C_4  and  C_6
REMARK    5  A    between atoms: C_19  and  O_20
REMARK    6  A    between atoms: O_20  and  C_21
REMARK    7  A    between atoms: C_21  and  C_22
REMARK                            x       y       z     vdW  Elec       q    Type
REMARK                         _______ _______ _______ _____ _____    ______ ____
ROOT
ATOM      1  C   UNL     1      47.161   3.959  16.228  0.00  0.00    +0.000 C 
ATOM      2  C   UNL     1      47.812   4.932  15.234  0.00  0.00    +0.000 C 
ENDROOT
BRANCH   2   3
ATOM      3  C   UNL     1      47.060   5.040  13.920  0.00  0.00    +0.000 A 
ATOM      4  C   UNL     1      46.055   4.111  13.603  0.00  0.00    +0.000 A 
ATOM      5  C   UNL     1      45.307   4.244  12.430  0.00  0.00    +0.000 A 
ATOM      6  C   UNL     1      45.552   5.308  11.563  0.00  0.00    +0.000 A 
ATOM      7  C   UNL     1      46.621   6.162  11.815  0.00  0.00    +0.000 A 
ATOM      8  C   UNL     1      47.368   6.031  12.980  0.00  0.00    +0.000 A 
BRANCH   6   9
ATOM      9  O   UNL     1      44.692   5.448  10.506  0.00  0.00    +0.000 OA
BRANCH   9  10
ATOM     10  C   UNL     1      44.070   4.223  10.104  0.00  0.00    +0.000 C 
BRANCH  10  11
ATOM     11  C   UNL     1      44.950   3.489   9.138  0.00  0.00    +0.000 A 
ATOM     12  C   UNL     1      45.654   4.170   8.141  0.00  0.00    +0.000 A 
ATOM     13  C   UNL     1      46.512   3.466   7.303  0.00  0.00    +0.000 A 
ATOM     14  C   UNL     1      46.643   2.101   7.499  0.00  0.00    +0.000 A 
ATOM     15  N   UNL     1      45.985   1.411   8.455  0.00  0.00    +0.000 NA
ATOM     16  C   UNL     1      45.154   2.120   9.251  0.00  0.00    +0.000 A 
ENDBRANCH  10  11
ENDBRANCH   9  10
ENDBRANCH   6   9
ENDBRANCH   2   3
BRANCH   2  17
ATOM     17  N   UNL     1      47.923   6.250  15.819  0.00  0.00    +0.000 N 
ATOM     18  C   UNL     1      49.127   6.792  16.174  0.00  0.00    +0.000 C 
ATOM     19  O   UNL     1      50.199   6.264  15.892  0.00  0.00    +0.000 OA
ATOM     20  H   UNL     1      47.070   6.642  16.202  0.00  0.00    +0.000 HD
BRANCH  18  21
ATOM     21  C   UNL     1      49.068   8.069  16.885  0.00  0.00    +0.000 A 
ATOM     22  C   UNL     1      49.676   9.193  16.342  0.00  0.00    +0.000 A 
ATOM     23  S   UNL     1      49.534  10.581  17.321  0.00  0.00    +0.000 S 
ATOM     24  C   UNL     1      48.692   9.716  18.522  0.00  0.00    +0.000 A 
ATOM     25  N   UNL     1      48.323  10.315  19.684  0.00  0.00    +0.000 NA
ATOM     26  C   UNL     1      47.731   9.535  20.522  0.00  0.00    +0.000 A 
ATOM     27  N   UNL     1      47.455   8.210  20.296  0.00  0.00    +0.000 N 
ATOM     28  C   UNL     1      47.759   7.577  19.115  0.00  0.00    +0.000 A 
ATOM     29  O   UNL     1      47.406   6.421  18.904  0.00  0.00    +0.000 OA
ATOM     30  C   UNL     1      48.480   8.396  18.161  0.00  0.00    +0.000 A 
ATOM     31  H   UNL     1      46.955   7.664  20.982  0.00  0.00    +0.000 HD
ENDBRANCH  18  21
ENDBRANCH   2  17
TORSDOF 6
ENDMDL
MODEL 3
REMARK VINA RESULT:    -7.662      2.065      2.722
REMARK INTER + INTRA:         -10.942
REMARK INTER:                 -10.076
REMARK INTRA:                  -0.866
REMARK UNBOUND:                -0.593
REMARK  Name = 
REMARK  7 active torsions:
REMARK  status: ('A' for Active; 'I' for Inactive)
REMARK    1  A    between atoms: C_1  and  C_2
REMARK    2  A    between atoms: C_2  and  N_3
REMARK    3  A    between atoms: C_2  and  C_16
REMARK    4  A    between atoms: C_4  and  C_6
REMARK    5  A    between atoms: C_19  and  O_20
REMARK    6  A    between atoms: O_20  and  C_21
REMARK    7  A    between atoms: C_21  and  C_22
REMARK                            x       y       z     vdW  Elec       q    Type
REMARK                         _______ _______ _______ _____ _____    ______ ____
ROOT
ATOM      1  C   UNL     1      49.071   7.162  12.748  0.00  0.00    +0.000 C 
ATOM      2  C   UNL     1      47.820   6.981  13.620  0.00  0.00    +0.000 C 
ENDROOT
BRANCH   2   3
ATOM      3  C   UNL     1      46.689   6.266  12.905  0.00  0.00    +0.000 A 
ATOM      4  C   UNL     1      45.880   6.961  11.990  0.00  0.00    +0.000 A 
ATOM      5  C   UNL     1      44.884   6.294  11.271  0.00  0.00    +0.000 A 
ATOM      6  C   UNL     1      44.685   4.927  11.457  0.00  0.00    +0.000 A 
ATOM      7  C   UNL     1      45.404   4.261  12.445  0.00  0.00    +0.000 A 
ATOM      8  C   UNL     1      46.395   4.921  13.161  0.00  0.00    +0.000 A 
BRANCH   6   9
ATOM      9  O   UNL     1      43.784   4.320  10.624  0.00  0.00    +0.000 OA
BRANCH   9  10
ATOM     10  C   UNL     1      44.108   2.960  10.317  0.00  0.00    +0.000 C 
BRANCH  10  11
ATOM     11  C   UNL     1      45.037   2.902   9.143  0.00  0.00    +0.000 A 
ATOM     12  C   UNL     1      45.650   1.705   8.764  0.00  0.00    +0.000 A 
ATOM     13  C   UNL     1      46.454   1.673   7.631  0.00  0.00    +0.000 A 
ATOM     14  C   UNL     1      46.609   2.844   6.906  0.00  0.00    +0.000 A 
ATOM     15  N   UNL     1      46.028   4.016   7.236  0.00  0.00    +0.000 NA
ATOM     16  C   UNL     1      45.256   4.019   8.347  0.00  0.00    +0.000 A 
ENDBRANCH  10  11
ENDBRANCH   9  10
ENDBRANCH   6   9
ENDBRANCH   2   3
BRANCH   2  17
ATOM     17  N   UNL     1      48.146   6.252  14.825  0.00  0.00    +0.000 N 
ATOM     18  C   UNL     1      48.674   6.863  15.929  0.00  0.00    +0.000 C 
ATOM     19  O   UNL     1      48.771   8.083  16.026  0.00  0.00    +0.000 OA
ATOM     20  H   UNL     1      48.225   5.245  14.730  0.00  0.00    +0.000 HD
BRANCH  18  21
ATOM     21  C   UNL     1      49.086   5.974  17.015  0.00  0.00    +0.000 A 
ATOM     22  C   UNL     1      48.127   5.363  17.812  0.00  0.00    +0.000 A 
ATOM     23  S   UNL     1      48.790   4.391  19.045  0.00  0.00    +0.000 S 
ATOM     24  C   UNL     1      50.380   4.789  18.582  0.00  0.00    +0.000 A 
ATOM     25  N   UNL     1      51.448   4.328  19.285  0.00  0.00    +0.000 NA
ATOM     26  C   UNL     1      52.590   4.739  18.851  0.00  0.00    +0.000 A 
ATOM     27  N   UNL     1      52.764   5.558  17.763  0.00  0.00    +0.000 N 
ATOM     28  C   UNL     1      51.718   6.002  16.990  0.00  0.00    +0.000 A 
ATOM     29  O   UNL     1      51.915   6.646  15.964  0.00  0.00    +0.000 OA
ATOM     30  C   UNL     1      50.407   5.615  17.471  0.00  0.00    +0.000 A 
ATOM     31  H   UNL     1      53.690   5.813  17.455  0.00  0.00    +0.000 HD
ENDBRANCH  18  21
ENDBRANCH   2  17
TORSDOF 6
ENDMDL
MODEL 4
REMARK VINA RESULT:    -7.227      3.821      8.086
REMARK INTER + INTRA:         -10.355
REMARK INTER:                  -9.382
REMARK INTRA:                  -0.974
REMARK UNBOUND:                -0.593
REMARK  Name = 
REMARK  7 active torsions:
REMARK  status: ('A' for Active; 'I' for Inactive)
REMARK    1  A    between atoms: C_1  and  C_2
REMARK    2  A    between atoms: C_2  and  N_3
REMARK    3  A    between atoms: C_2  and  C_16
REMARK    4  A    between atoms: C_4  and  C_6
REMARK    5  A    between atoms: C_19  and  O_20
REMARK    6  A    between atoms: O_20  and  C_21
REMARK    7  A    between atoms: C_21  and  C_22
REMARK                            x       y       z     vdW  Elec       q    Type
REMARK                         _______ _______ _______ _____ _____    ______ ____
ROOT
ATOM      1  C   UNL     1      48.357   8.944  15.866  0.00  0.00    +0.000 C 
ATOM      2  C   UNL     1      48.657   7.640  15.113  0.00  0.00    +0.000 C 
ENDROOT
BRANCH   2   3
ATOM      3  C   UNL     1      49.155   6.527  16.016  0.00  0.00    +0.000 A 
ATOM      4  C   UNL     1      48.272   5.530  16.462  0.00  0.00    +0.000 A 
ATOM      5  C   UNL     1      48.736   4.460  17.232  0.00  0.00    +0.000 A 
ATOM      6  C   UNL     1      50.088   4.373  17.564  0.00  0.00    +0.000 A 
ATOM      7  C   UNL     1      50.943   5.417  17.223  0.00  0.00    +0.000 A 
ATOM      8  C   UNL     1      50.483   6.482  16.457  0.00  0.00    +0.000 A 
BRANCH   6   9
ATOM      9  O   UNL     1      50.489   3.232  18.205  0.00  0.00    +0.000 OA
BRANCH   9  10
ATOM     10  C   UNL     1      50.997   2.225  17.324  0.00  0.00    +0.000 C 
BRANCH  10  11
ATOM     11  C   UNL     1      52.341   1.757  17.794  0.00  0.00    +0.000 A 
ATOM     12  C   UNL     1      52.875   0.540  17.361  0.00  0.00    +0.000 A 
ATOM     13  C   UNL     1      54.152   0.168  17.765  0.00  0.00    +0.000 A 
ATOM     14  C   UNL     1      54.857   1.035  18.583  0.00  0.00    +0.000 A 
ATOM     15  N   UNL     1      54.378   2.220  19.015  0.00  0.00    +0.000 NA
ATOM     16  C   UNL     1      53.132   2.554  18.611  0.00  0.00    +0.000 A 
ENDBRANCH  10  11
ENDBRANCH   9  10
ENDBRANCH   6   9
ENDBRANCH   2   3
BRANCH   2  17
ATOM     17  N   UNL     1      47.478   7.181  14.412  0.00  0.00    +0.000 N 
ATOM     18  C   UNL     1      47.553   6.472  13.244  0.00  0.00    +0.000 C 
ATOM     19  O   UNL     1      48.615   6.055  12.791  0.00  0.00    +0.000 OA
ATOM     20  H   UNL     1      46.605   7.629  14.665  0.00  0.00    +0.000 HD
BRANCH  18  21
ATOM     21  C   UNL     1      46.279   6.203  12.578  0.00  0.00    +0.000 A 
ATOM     22  C   UNL     1      45.583   7.238  11.970  0.00  0.00    +0.000 A 
ATOM     23  S   UNL     1      44.107   6.747  11.274  0.00  0.00    +0.000 S 
ATOM     24  C   UNL     1      44.330   5.142  11.798  0.00  0.00    +0.000 A 
ATOM     25  N   UNL     1      43.378   4.198  11.580  0.00  0.00    +0.000 NA
ATOM     26  C   UNL     1      43.656   3.036  12.066  0.00  0.00    +0.000 A 
ATOM     27  N   UNL     1      44.812   2.727  12.737  0.00  0.00    +0.000 N 
ATOM     28  C   UNL     1      45.825   3.634  12.933  0.00  0.00    +0.000 A 
ATOM     29  O   UNL     1      46.889   3.298  13.444  0.00  0.00    +0.000 OA
ATOM     30  C   UNL     1      45.536   4.972  12.456  0.00  0.00    +0.000 A 
ATOM     31  H   UNL     1      44.982   1.786  13.061  0.00  0.00    +0.000 HD
ENDBRANCH  18  21
ENDBRANCH   2  17
TORSDOF 6
ENDMDL
MODEL 5
REMARK VINA RESULT:    -6.792      2.573      3.134
REMARK INTER + INTRA:          -9.768
REMARK INTER:                  -8.571
REMARK INTRA:                  -1.197
REMARK UNBOUND:                -0.593
REMARK  Name = 
REMARK  7 active torsions:
REMARK  status: ('A' for Active; 'I' for Inactive)
REMARK    1  A    between atoms: C_1  and  C_2
REMARK    2  A    between atoms: C_2  and  N_3
REMARK    3  A    between atoms: C_2  and  C_16
REMARK    4  A    between atoms: C_4  and  C_6
REMARK    5  A    between atoms: C_19  and  O_20
REMARK    6  A    between atoms: O_20  and  C_21
REMARK    7  A    between atoms: C_21  and  C_22
REMARK                            x       y       z     vdW  Elec       q    Type
REMARK                         _______ _______ _______ _____ _____    ______ ____
ROOT
ATOM      1  C   UNL     1      49.963   7.689  12.311  0.00  0.00    +0.000 C 
ATOM      2  C   UNL     1      48.810   7.923  13.297  0.00  0.00    +0.000 C 
ENDROOT
BRANCH   2   3
ATOM      3  C   UNL     1      47.440   7.716  12.678  0.00  0.00    +0.000 A 
ATOM      4  C   UNL     1      46.358   8.522  13.070  0.00  0.00    +0.000 A 
ATOM      5  C   UNL     1      45.111   8.389  12.453  0.00  0.00    +0.000 A 
ATOM      6  C   UNL     1      44.931   7.451  11.437  0.00  0.00    +0.000 A 
ATOM      7  C   UNL     1      45.966   6.573  11.127  0.00  0.00    +0.000 A 
ATOM      8  C   UNL     1      47.206   6.703  11.740  0.00  0.00    +0.000 A 
BRANCH   6   9
ATOM      9  O   UNL     1      43.724   7.470  10.792  0.00  0.00    +0.000 OA
BRANCH   9  10
ATOM     10  C   UNL     1      42.672   6.824  11.517  0.00  0.00    +0.000 C 
BRANCH  10  11
ATOM     11  C   UNL     1      43.012   5.382  11.745  0.00  0.00    +0.000 A 
ATOM     12  C   UNL     1      43.314   4.533  10.677  0.00  0.00    +0.000 A 
ATOM     13  C   UNL     1      43.689   3.218  10.930  0.00  0.00    +0.000 A 
ATOM     14  C   UNL     1      43.760   2.800  12.249  0.00  0.00    +0.000 A 
ATOM     15  N   UNL     1      43.483   3.593  13.305  0.00  0.00    +0.000 NA
ATOM     16  C   UNL     1      43.116   4.864  13.030  0.00  0.00    +0.000 A 
ENDBRANCH  10  11
ENDBRANCH   9  10
ENDBRANCH   6   9
ENDBRANCH   2   3
BRANCH   2  17
ATOM     17  N   UNL     1      48.941   7.052  14.444  0.00  0.00    +0.000 N 
ATOM     18  C   UNL     1      48.792   7.504  15.726  0.00  0.00    +0.000 C 
ATOM     19  O   UNL     1      48.398   8.637  15.986  0.00  0.00    +0.000 OA
ATOM     20  H   UNL     1      49.409   6.167  14.281  0.00  0.00    +0.000 HD
BRANCH  18  21
ATOM     21  C   UNL     1      49.097   6.540  16.783  0.00  0.00    +0.000 A 
ATOM     22  C   UNL     1      50.028   6.856  17.762  0.00  0.00    +0.000 A 
ATOM     23  S   UNL     1      50.279   5.603  18.890  0.00  0.00    +0.000 S 
ATOM     24  C   UNL     1      49.182   4.581  18.082  0.00  0.00    +0.000 A 
ATOM     25  N   UNL     1      48.975   3.306  18.504  0.00  0.00    +0.000 NA
ATOM     26  C   UNL     1      48.153   2.629  17.778  0.00  0.00    +0.000 A 
ATOM     27  N   UNL     1      47.501   3.119  16.674  0.00  0.00    +0.000 N 
ATOM     28  C   UNL     1      47.636   4.417  16.244  0.00  0.00    +0.000 A 
ATOM     29  O   UNL     1      46.960   4.853  15.317  0.00  0.00    +0.000 OA
ATOM     30  C   UNL     1      48.596   5.203  16.993  0.00  0.00    +0.000 A 
ATOM     31  H   UNL     1      46.840   2.545  16.171  0.00  0.00    +0.000 HD
ENDBRANCH  18  21
ENDBRANCH   2  17
TORSDOF 6
ENDMDL
MODEL 6
REMARK VINA RESULT:    -6.705      2.887      7.845
REMARK INTER + INTRA:          -9.650
REMARK INTER:                  -9.595
REMARK INTRA:                  -0.055
REMARK UNBOUND:                -0.593
REMARK  Name = 
REMARK  7 active torsions:
REMARK  status: ('A' for Active; 'I' for Inactive)
REMARK    1  A    between atoms: C_1  and  C_2
REMARK    2  A    between atoms: C_2  and  N_3
REMARK    3  A    between atoms: C_2  and  C_16
REMARK    4  A    between atoms: C_4  and  C_6
REMARK    5  A    between atoms: C_19  and  O_20
REMARK    6  A    between atoms: O_20  and  C_21
REMARK    7  A    between atoms: C_21  and  C_22
REMARK                            x       y       z     vdW  Elec       q    Type
REMARK                         _______ _______ _______ _____ _____    ______ ____
ROOT
ATOM      1  C   UNL     1      46.836   8.822  12.200  0.00  0.00    +0.000 C 
ATOM      2  C   UNL     1      47.606   7.497  12.299  0.00  0.00    +0.000 C 
ENDROOT
BRANCH   2   3
ATOM      3  C   UNL     1      48.040   7.161  13.714  0.00  0.00    +0.000 A 
ATOM      4  C   UNL     1      47.799   5.881  14.242  0.00  0.00    +0.000 A 
ATOM      5  C   UNL     1      48.260   5.538  15.516  0.00  0.00    +0.000 A 
ATOM      6  C   UNL     1      48.969   6.467  16.275  0.00  0.00    +0.000 A 
ATOM      7  C   UNL     1      49.109   7.769  15.805  0.00  0.00    +0.000 A 
ATOM      8  C   UNL     1      48.650   8.114  14.539  0.00  0.00    +0.000 A 
BRANCH   6   9
ATOM      9  O   UNL     1      49.502   6.017  17.453  0.00  0.00    +0.000 OA
BRANCH   9  10
ATOM     10  C   UNL     1      48.985   4.750  17.872  0.00  0.00    +0.000 C 
BRANCH  10  11
ATOM     11  C   UNL     1      50.020   3.682  17.687  0.00  0.00    +0.000 A 
ATOM     12  C   UNL     1      51.335   3.867  18.121  0.00  0.00    +0.000 A 
ATOM     13  C   UNL     1      52.253   2.831  17.992  0.00  0.00    +0.000 A 
ATOM     14  C   UNL     1      51.818   1.636  17.441  0.00  0.00    +0.000 A 
ATOM     15  N   UNL     1      50.555   1.418  17.018  0.00  0.00    +0.000 NA
ATOM     16  C   UNL     1      49.686   2.445  17.150  0.00  0.00    +0.000 A 
ENDBRANCH  10  11
ENDBRANCH   9  10
ENDBRANCH   6   9
ENDBRANCH   2   3
BRANCH   2  17
ATOM     17  N   UNL     1      46.805   6.409  11.785  0.00  0.00    +0.000 N 
ATOM     18  C   UNL     1      45.480   6.267  12.096  0.00  0.00    +0.000 C 
ATOM     19  O   UNL     1      44.849   7.123  12.709  0.00  0.00    +0.000 OA
ATOM     20  H   UNL     1      47.315   5.615  11.413  0.00  0.00    +0.000 HD
BRANCH  18  21
ATOM     21  C   UNL     1      44.841   5.040  11.620  0.00  0.00    +0.000 A 
ATOM     22  C   UNL     1      44.036   4.302  12.476  0.00  0.00    +0.000 A 
ATOM     23  S   UNL     1      43.402   2.889  11.762  0.00  0.00    +0.000 S 
ATOM     24  C   UNL     1      44.218   3.197  10.298  0.00  0.00    +0.000 A 
ATOM     25  N   UNL     1      44.150   2.318   9.264  0.00  0.00    +0.000 NA
ATOM     26  C   UNL     1      44.848   2.652   8.233  0.00  0.00    +0.000 A 
ATOM     27  N   UNL     1      45.595   3.799   8.133  0.00  0.00    +0.000 N 
ATOM     28  C   UNL     1      45.648   4.743   9.132  0.00  0.00    +0.000 A 
ATOM     29  O   UNL     1      46.239   5.806   8.971  0.00  0.00    +0.000 OA
ATOM     30  C   UNL     1      44.927   4.385  10.337  0.00  0.00    +0.000 A 
ATOM     31  H   UNL     1      46.090   4.019   7.282  0.00  0.00    +0.000 HD
ENDBRANCH  18  21
ENDBRANCH   2  17
TORSDOF 6
ENDMDL
MODEL 7
REMARK VINA RESULT:    -6.517      3.258      7.660
REMARK INTER + INTRA:          -9.395
REMARK INTER:                  -9.371
REMARK INTRA:                  -0.024
REMARK UNBOUND:                -0.593
REMARK  Name = 
REMARK  7 active torsions:
REMARK  status: ('A' for Active; 'I' for Inactive)
REMARK    1  A    between atoms: C_1  and  C_2
REMARK    2  A    between atoms: C_2  and  N_3
REMARK    3  A    between atoms: C_2  and  C_16
REMARK    4  A    between atoms: C_4  and  C_6
REMARK    5  A    between atoms: C_19  and  O_20
REMARK    6  A    between atoms: O_20  and  C_21
REMARK    7  A    between atoms: C_21  and  C_22
REMARK                            x       y       z     vdW  Elec       q    Type
REMARK                         _______ _______ _______ _____ _____    ______ ____
ROOT
ATOM      1  C   UNL     1      47.379   9.042  12.559  0.00  0.00    +0.000 C 
ATOM      2  C   UNL     1      48.223   7.766  12.424  0.00  0.00    +0.000 C 
ENDROOT
BRANCH   2   3
ATOM      3  C   UNL     1      48.564   7.128  13.758  0.00  0.00    +0.000 A 
ATOM      4  C   UNL     1      49.695   7.553  14.475  0.00  0.00    +0.000 A 
ATOM      5  C   UNL     1      49.976   7.024  15.738  0.00  0.00    +0.000 A 
ATOM      6  C   UNL     1      49.131   6.068  16.299  0.00  0.00    +0.000 A 
ATOM      7  C   UNL     1      48.078   5.561  15.544  0.00  0.00    +0.000 A 
ATOM      8  C   UNL     1      47.796   6.085  14.288  0.00  0.00    +0.000 A 
BRANCH   6   9
ATOM      9  O   UNL     1      49.397   5.697  17.590  0.00  0.00    +0.000 OA
BRANCH   9  10
ATOM     10  C   UNL     1      49.068   4.334  17.877  0.00  0.00    +0.000 C 
BRANCH  10  11
ATOM     11  C   UNL     1      50.306   3.489  17.858  0.00  0.00    +0.000 A 
ATOM     12  C   UNL     1      50.283   2.184  17.357  0.00  0.00    +0.000 A 
ATOM     13  C   UNL     1      51.463   1.452  17.295  0.00  0.00    +0.000 A 
ATOM     14  C   UNL     1      52.632   2.057  17.728  0.00  0.00    +0.000 A 
ATOM     15  N   UNL     1      52.694   3.315  18.211  0.00  0.00    +0.000 NA
ATOM     16  C   UNL     1      51.530   4.002  18.266  0.00  0.00    +0.000 A 
ENDBRANCH  10  11
ENDBRANCH   9  10
ENDBRANCH   6   9
ENDBRANCH   2   3
BRANCH   2  17
ATOM     17  N   UNL     1      47.539   6.793  11.602  0.00  0.00    +0.000 N 
ATOM     18  C   UNL     1      46.179   6.653  11.616  0.00  0.00    +0.000 C 
ATOM     19  O   UNL     1      45.440   7.432  12.211  0.00  0.00    +0.000 OA
ATOM     20  H   UNL     1      48.111   6.045  11.225  0.00  0.00    +0.000 HD
BRANCH  18  21
ATOM     21  C   UNL     1      45.644   5.532  10.842  0.00  0.00    +0.000 A 
ATOM     22  C   UNL     1      45.761   5.527   9.459  0.00  0.00    +0.000 A 
ATOM     23  S   UNL     1      45.054   4.161   8.724  0.00  0.00    +0.000 S 
ATOM     24  C   UNL     1      44.531   3.553  10.227  0.00  0.00    +0.000 A 
ATOM     25  N   UNL     1      43.791   2.416  10.301  0.00  0.00    +0.000 NA
ATOM     26  C   UNL     1      43.427   2.093  11.494  0.00  0.00    +0.000 A 
ATOM     27  N   UNL     1      43.752   2.795  12.628  0.00  0.00    +0.000 N 
ATOM     28  C   UNL     1      44.544   3.918  12.607  0.00  0.00    +0.000 A 
ATOM     29  O   UNL     1      44.902   4.462  13.646  0.00  0.00    +0.000 OA
ATOM     30  C   UNL     1      44.931   4.357  11.281  0.00  0.00    +0.000 A 
ATOM     31  H   UNL     1      43.464   2.466  13.537  0.00  0.00    +0.000 HD
ENDBRANCH  18  21
ENDBRANCH   2  17
TORSDOF 6
ENDMDL
MODEL 8
REMARK VINA RESULT:    -6.407      3.420      7.268
REMARK INTER + INTRA:          -9.247
REMARK INTER:                  -7.768
REMARK INTRA:                  -1.479
REMARK UNBOUND:                -0.593
REMARK  Name = 
REMARK  7 active torsions:
REMARK  status: ('A' for Active; 'I' for Inactive)
REMARK    1  A    between atoms: C_1  and  C_2
REMARK    2  A    between atoms: C_2  and  N_3
REMARK    3  A    between atoms: C_2  and  C_16
REMARK    4  A    between atoms: C_4  and  C_6
REMARK    5  A    between atoms: C_19  and  O_20
REMARK    6  A    between atoms: O_20  and  C_21
REMARK    7  A    between atoms: C_21  and  C_22
REMARK                            x       y       z     vdW  Elec       q    Type
REMARK                         _______ _______ _______ _____ _____    ______ ____
ROOT
ATOM      1  C   UNL     1      48.349  10.161  13.953  0.00  0.00    +0.000 C 
ATOM      2  C   UNL     1      48.634   8.655  13.861  0.00  0.00    +0.000 C 
ENDROOT
BRANCH   2   3
ATOM      3  C   UNL     1      49.191   8.071  15.147  0.00  0.00    +0.000 A 
ATOM      4  C   UNL     1      48.504   8.249  16.359  0.00  0.00    +0.000 A 
ATOM      5  C   UNL     1      48.969   7.653  17.535  0.00  0.00    +0.000 A 
ATOM      6  C   UNL     1      50.124   6.873  17.512  0.00  0.00    +0.000 A 
ATOM      7  C   UNL     1      50.870   6.790  16.341  0.00  0.00    +0.000 A 
ATOM      8  C   UNL     1      50.410   7.383  15.170  0.00  0.00    +0.000 A 
BRANCH   6   9
ATOM      9  O   UNL     1      50.442   6.215  18.671  0.00  0.00    +0.000 OA
BRANCH   9  10
ATOM     10  C   UNL     1      49.393   5.374  19.162  0.00  0.00    +0.000 C 
BRANCH  10  11
ATOM     11  C   UNL     1      49.178   4.219  18.231  0.00  0.00    +0.000 A 
ATOM     12  C   UNL     1      47.912   3.934  17.713  0.00  0.00    +0.000 A 
ATOM     13  C   UNL     1      47.761   2.895  16.801  0.00  0.00    +0.000 A 
ATOM     14  C   UNL     1      48.889   2.183  16.429  0.00  0.00    +0.000 A 
ATOM     15  N   UNL     1      50.128   2.434  16.901  0.00  0.00    +0.000 NA
ATOM     16  C   UNL     1      50.244   3.445  17.791  0.00  0.00    +0.000 A 
ENDBRANCH  10  11
ENDBRANCH   9  10
ENDBRANCH   6   9
ENDBRANCH   2   3
BRANCH   2  17
ATOM     17  N   UNL     1      47.433   7.935  13.503  0.00  0.00    +0.000 N 
ATOM     18  C   UNL     1      47.306   7.272  12.314  0.00  0.00    +0.000 C 
ATOM     19  O   UNL     1      48.245   7.122  11.537  0.00  0.00    +0.000 OA
ATOM     20  H   UNL     1      46.600   8.162  14.036  0.00  0.00    +0.000 HD
BRANCH  18  21
ATOM     21  C   UNL     1      45.983   6.714  12.031  0.00  0.00    +0.000 A 
ATOM     22  C   UNL     1      44.989   7.523  11.498  0.00  0.00    +0.000 A 
ATOM     23  S   UNL     1      43.507   6.714  11.266  0.00  0.00    +0.000 S 
ATOM     24  C   UNL     1      44.133   5.266  11.910  0.00  0.00    +0.000 A 
ATOM     25  N   UNL     1      43.345   4.170  12.059  0.00  0.00    +0.000 NA
ATOM     26  C   UNL     1      43.933   3.158  12.597  0.00  0.00    +0.000 A 
ATOM     27  N   UNL     1      45.250   3.134  12.985  0.00  0.00    +0.000 N 
ATOM     28  C   UNL     1      46.099   4.200  12.803  0.00  0.00    +0.000 A 
ATOM     29  O   UNL     1      47.294   4.111  13.064  0.00  0.00    +0.000 OA
ATOM     30  C   UNL     1      45.469   5.385  12.255  0.00  0.00    +0.000 A 
ATOM     31  H   UNL     1      45.659   2.295  13.368  0.00  0.00    +0.000 HD
ENDBRANCH  18  21
ENDBRANCH   2  17
TORSDOF 6
ENDMDL
MODEL 9
REMARK VINA RESULT:    -5.934      2.852      4.719
REMARK INTER + INTRA:          -8.609
REMARK INTER:                  -7.446
REMARK INTRA:                  -1.163
REMARK UNBOUND:                -0.593
REMARK  Name = 
REMARK  7 active torsions:
REMARK  status: ('A' for Active; 'I' for Inactive)
REMARK    1  A    between atoms: C_1  and  C_2
REMARK    2  A    between atoms: C_2  and  N_3
REMARK    3  A    between atoms: C_2  and  C_16
REMARK    4  A    between atoms: C_4  and  C_6
REMARK    5  A    between atoms: C_19  and  O_20
REMARK    6  A    between atoms: O_20  and  C_21
REMARK    7  A    between atoms: C_21  and  C_22
REMARK                            x       y       z     vdW  Elec       q    Type
REMARK                         _______ _______ _______ _____ _____    ______ ____
ROOT
ATOM      1  C   UNL     1      47.701   5.106  17.863  0.00  0.00    +0.000 C 
ATOM      2  C   UNL     1      48.568   5.145  16.596  0.00  0.00    +0.000 C 
ENDROOT
BRANCH   2   3
ATOM      3  C   UNL     1      47.762   5.345  15.325  0.00  0.00    +0.000 A 
ATOM      4  C   UNL     1      46.838   4.370  14.914  0.00  0.00    +0.000 A 
ATOM      5  C   UNL     1      46.039   4.577  13.786  0.00  0.00    +0.000 A 
ATOM      6  C   UNL     1      46.153   5.761  13.058  0.00  0.00    +0.000 A 
ATOM      7  C   UNL     1      47.146   6.676  13.393  0.00  0.00    +0.000 A 
ATOM      8  C   UNL     1      47.943   6.471  14.513  0.00  0.00    +0.000 A 
BRANCH   6   9
ATOM      9  O   UNL     1      45.247   5.948  12.049  0.00  0.00    +0.000 OA
BRANCH   9  10
ATOM     10  C   UNL     1      45.832   5.951  10.742  0.00  0.00    +0.000 C 
BRANCH  10  11
ATOM     11  C   UNL     1      45.335   4.779   9.951  0.00  0.00    +0.000 A 
ATOM     12  C   UNL     1      45.732   4.580   8.626  0.00  0.00    +0.000 A 
ATOM     13  C   UNL     1      45.303   3.448   7.943  0.00  0.00    +0.000 A 
ATOM     14  C   UNL     1      44.497   2.544   8.616  0.00  0.00    +0.000 A 
ATOM     15  N   UNL     1      44.099   2.699   9.896  0.00  0.00    +0.000 NA
ATOM     16  C   UNL     1      44.526   3.812  10.534  0.00  0.00    +0.000 A 
ENDBRANCH  10  11
ENDBRANCH   9  10
ENDBRANCH   6   9
ENDBRANCH   2   3
BRANCH   2  17
ATOM     17  N   UNL     1      49.556   6.196  16.693  0.00  0.00    +0.000 N 
ATOM     18  C   UNL     1      50.871   5.939  16.965  0.00  0.00    +0.000 C 
ATOM     19  O   UNL     1      51.328   4.800  17.002  0.00  0.00    +0.000 OA
ATOM     20  H   UNL     1      49.197   7.136  16.820  0.00  0.00    +0.000 HD
BRANCH  18  21
ATOM     21  C   UNL     1      51.721   7.111  17.175  0.00  0.00    +0.000 A 
ATOM     22  C   UNL     1      52.358   7.295  18.394  0.00  0.00    +0.000 A 
ATOM     23  S   UNL     1      53.278   8.728  18.469  0.00  0.00    +0.000 S 
ATOM     24  C   UNL     1      52.821   9.170  16.889  0.00  0.00    +0.000 A 
ATOM     25  N   UNL     1      53.223  10.352  16.351  0.00  0.00    +0.000 NA
ATOM     26  C   UNL     1      52.772  10.580  15.165  0.00  0.00    +0.000 A 
ATOM     27  N   UNL     1      51.967   9.722  14.458  0.00  0.00    +0.000 N 
ATOM     28  C   UNL     1      51.581   8.494  14.939  0.00  0.00    +0.000 A 
ATOM     29  O   UNL     1      50.949   7.708  14.241  0.00  0.00    +0.000 OA
ATOM     30  C   UNL     1      52.015   8.215  16.293  0.00  0.00    +0.000 A 
ATOM     31  H   UNL     1      51.678   9.947  13.517  0.00  0.00    +0.000 HD
ENDBRANCH  18  21
ENDBRANCH   2  17
TORSDOF 6
ENDMDL
