MODEL 1
REMARK VINA RESULT:    -7.193      0.000      0.000
REMARK INTER + INTRA:         -10.412
REMARK INTER:                  -9.295
REMARK INTRA:                  -1.117
REMARK UNBOUND:                -1.117
REMARK  Name = 
REMARK  6 active torsions:
REMARK  status: ('A' for Active; 'I' for Inactive)
REMARK    1  A    between atoms: C_1  and  N_2
REMARK    2  A    between atoms: N_2  and  C_3
REMARK    3  A    between atoms: C_3  and  C_4
REMARK    4  A    between atoms: C_7  and  C_8
REMARK    5  A    between atoms: C_8  and  N_9
REMARK    6  A    between atoms: C_16  and  C_18
REMARK                            x       y       z     vdW  Elec       q    Type
REMARK                         _______ _______ _______ _____ _____    ______ ____
ROOT
ATOM      1  C   UNL     1      46.024   8.577  12.150  0.00  0.00    +0.000 C 
ATOM      2  N   UNL     1      45.863   7.130  12.090  0.00  0.00    +0.000 N 
ATOM      3  C   UNL     1      44.663   6.666  11.517  0.00  0.00    +0.000 C 
ATOM      4  O   UNL     1      43.804   7.449  11.115  0.00  0.00    +0.000 OA
ENDROOT
BRANCH   3   5
ATOM      5  C   UNL     1      44.413   5.217  11.440  0.00  0.00    +0.000 A 
ATOM      6  C   UNL     1      43.664   4.499  12.359  0.00  0.00    +0.000 A 
ATOM      7  S   UNL     1      43.495   2.847  11.965  0.00  0.00    +0.000 S 
ATOM      8  C   UNL     1      44.278   3.072  10.473  0.00  0.00    +0.000 A 
ATOM      9  N   UNL     1      44.362   2.062   9.566  0.00  0.00    +0.000 NA
ATOM     10  C   UNL     1      44.908   2.404   8.447  0.00  0.00    +0.000 A 
ATOM     11  N   UNL     1      45.420   3.646   8.171  0.00  0.00    +0.000 N 
ATOM     12  C   UNL     1      45.493   4.652   9.112  0.00  0.00    +0.000 A 
ATOM     13  O   UNL     1      46.182   5.647   8.921  0.00  0.00    +0.000 OA
ATOM     14  C   UNL     1      44.762   4.360  10.331  0.00  0.00    +0.000 A 
ATOM     15  H   UNL     1      45.903   3.822   7.303  0.00  0.00    +0.000 HD
ENDBRANCH   3   5
BRANCH   2  16
ATOM     16  C   UNL     1      47.008   6.252  12.322  0.00  0.00    +0.000 C 
BRANCH  16  17
ATOM     17  C   UNL     1      47.354   5.879  13.738  0.00  0.00    +0.000 A 
ATOM     18  C   UNL     1      46.828   4.711  14.308  0.00  0.00    +0.000 A 
ATOM     19  C   UNL     1      47.236   4.300  15.570  0.00  0.00    +0.000 A 
ATOM     20  C   UNL     1      48.186   5.034  16.287  0.00  0.00    +0.000 A 
ATOM     21  C   UNL     1      48.672   6.237  15.738  0.00  0.00    +0.000 A 
ATOM     22  C   UNL     1      48.255   6.652  14.477  0.00  0.00    +0.000 A 
BRANCH  20  23
ATOM     23  C   UNL     1      48.697   4.537  17.622  0.00  0.00    +0.000 C 
BRANCH  23  24
ATOM     24  N   UNL     1      50.048   5.028  17.923  0.00  0.00    +0.000 NA
ATOM     25  C   UNL     1      50.216   5.421  19.327  0.00  0.00    +0.000 C 
ATOM     26  C   UNL     1      51.462   4.699  19.809  0.00  0.00    +0.000 C 
ATOM     27  N   UNL     1      51.633   3.577  18.885  0.00  0.00    +0.000 NA
ATOM     28  C   UNL     1      51.075   4.044  17.625  0.00  0.00    +0.000 C 
ATOM     29  H   UNL     1      51.064   2.799  19.206  0.00  0.00    +0.000 HD
ENDBRANCH  23  24
ENDBRANCH  20  23
ENDBRANCH  16  17
ENDBRANCH   2  16
TORSDOF 5
ENDMDL
MODEL 2
REMARK VINA RESULT:    -6.902      0.863      1.537
REMARK INTER + INTRA:         -10.037
REMARK INTER:                  -9.489
REMARK INTRA:                  -0.547
REMARK UNBOUND:                -1.117
REMARK  Name = 
REMARK  6 active torsions:
REMARK  status: ('A' for Active; 'I' for Inactive)
REMARK    1  A    between atoms: C_1  and  N_2
REMARK    2  A    between atoms: N_2  and  C_3
REMARK    3  A    between atoms: C_3  and  C_4
REMARK    4  A    between atoms: C_7  and  C_8
REMARK    5  A    between atoms: C_8  and  N_9
REMARK    6  A    between atoms: C_16  and  C_18
REMARK                            x       y       z     vdW  Elec       q    Type
REMARK                         _______ _______ _______ _____ _____    ______ ____
ROOT
ATOM      1  C   UNL     1      46.537   8.613  12.372  0.00  0.00    +0.000 C 
ATOM      2  N   UNL     1      46.246   7.186  12.315  0.00  0.00    +0.000 N 
ATOM      3  C   UNL     1      45.014   6.830  11.733  0.00  0.00    +0.000 C 
ATOM      4  O   UNL     1      44.233   7.686  11.320  0.00  0.00    +0.000 OA
ENDROOT
BRANCH   3   5
ATOM      5  C   UNL     1      44.634   5.410  11.658  0.00  0.00    +0.000 A 
ATOM      6  C   UNL     1      43.907   4.739  12.628  0.00  0.00    +0.000 A 
ATOM      7  S   UNL     1      43.563   3.115  12.228  0.00  0.00    +0.000 S 
ATOM      8  C   UNL     1      44.234   3.304  10.678  0.00  0.00    +0.000 A 
ATOM      9  N   UNL     1      44.155   2.309   9.754  0.00  0.00    +0.000 NA
ATOM     10  C   UNL     1      44.632   2.626   8.597  0.00  0.00    +0.000 A 
ATOM     11  N   UNL     1      45.225   3.826   8.294  0.00  0.00    +0.000 N 
ATOM     12  C   UNL     1      45.462   4.803   9.239  0.00  0.00    +0.000 A 
ATOM     13  O   UNL     1      46.216   5.739   9.003  0.00  0.00    +0.000 OA
ATOM     14  C   UNL     1      44.814   4.549  10.512  0.00  0.00    +0.000 A 
ATOM     15  H   UNL     1      45.645   3.978   7.391  0.00  0.00    +0.000 HD
ENDBRANCH   3   5
BRANCH   2  16
ATOM     16  C   UNL     1      47.304   6.209  12.561  0.00  0.00    +0.000 C 
BRANCH  16  17
ATOM     17  C   UNL     1      47.577   5.783  13.977  0.00  0.00    +0.000 A 
ATOM     18  C   UNL     1      48.431   6.542  14.791  0.00  0.00    +0.000 A 
ATOM     19  C   UNL     1      48.593   6.220  16.132  0.00  0.00    +0.000 A 
ATOM     20  C   UNL     1      47.900   5.144  16.696  0.00  0.00    +0.000 A 
ATOM     21  C   UNL     1      47.088   4.348  15.866  0.00  0.00    +0.000 A 
ATOM     22  C   UNL     1      46.933   4.666  14.521  0.00  0.00    +0.000 A 
BRANCH  20  23
ATOM     23  C   UNL     1      48.008   4.850  18.177  0.00  0.00    +0.000 C 
BRANCH  23  24
ATOM     24  N   UNL     1      48.959   3.770  18.467  0.00  0.00    +0.000 NA
ATOM     25  C   UNL     1      48.739   2.575  17.644  0.00  0.00    +0.000 C 
ATOM     26  C   UNL     1      50.092   2.239  17.040  0.00  0.00    +0.000 C 
ATOM     27  N   UNL     1      50.858   3.485  17.105  0.00  0.00    +0.000 NA
ATOM     28  C   UNL     1      50.340   4.180  18.273  0.00  0.00    +0.000 C 
ATOM     29  H   UNL     1      50.638   4.047  16.287  0.00  0.00    +0.000 HD
ENDBRANCH  23  24
ENDBRANCH  20  23
ENDBRANCH  16  17
ENDBRANCH   2  16
TORSDOF 5
ENDMDL
MODEL 3
REMARK VINA RESULT:    -6.143      4.087      8.839
REMARK INTER + INTRA:          -9.056
REMARK INTER:                  -8.205
REMARK INTRA:                  -0.851
REMARK UNBOUND:                -1.117
REMARK  Name = 
REMARK  6 active torsions:
REMARK  status: ('A' for Active; 'I' for Inactive)
REMARK    1  A    between atoms: C_1  and  N_2
REMARK    2  A    between atoms: N_2  and  C_3
REMARK    3  A    between atoms: C_3  and  C_4
REMARK    4  A    between atoms: C_7  and  C_8
REMARK    5  A    between atoms: C_8  and  N_9
REMARK    6  A    between atoms: C_16  and  C_18
REMARK                            x       y       z     vdW  Elec       q    Type
REMARK                         _______ _______ _______ _____ _____    ______ ____
ROOT
ATOM      1  C   UNL     1      47.916   6.773  18.719  0.00  0.00    +0.000 C 
ATOM      2  N   UNL     1      49.175   6.235  18.218  0.00  0.00    +0.000 N 
ATOM      3  C   UNL     1      49.869   5.375  19.092  0.00  0.00    +0.000 C 
ATOM      4  O   UNL     1      49.434   5.120  20.214  0.00  0.00    +0.000 OA
ENDROOT
BRANCH   3   5
ATOM      5  C   UNL     1      51.160   4.807  18.670  0.00  0.00    +0.000 A 
ATOM      6  C   UNL     1      52.388   5.419  18.864  0.00  0.00    +0.000 A 
ATOM      7  S   UNL     1      53.713   4.485  18.327  0.00  0.00    +0.000 S 
ATOM      8  C   UNL     1      52.700   3.167  17.970  0.00  0.00    +0.000 A 
ATOM      9  N   UNL     1      53.219   1.972  17.579  0.00  0.00    +0.000 NA
ATOM     10  C   UNL     1      52.337   1.041  17.425  0.00  0.00    +0.000 A 
ATOM     11  N   UNL     1      50.984   1.209  17.576  0.00  0.00    +0.000 N 
ATOM     12  C   UNL     1      50.405   2.437  17.822  0.00  0.00    +0.000 A 
ATOM     13  O   UNL     1      49.198   2.603  17.694  0.00  0.00    +0.000 OA
ATOM     14  C   UNL     1      51.364   3.477  18.147  0.00  0.00    +0.000 A 
ATOM     15  H   UNL     1      50.345   0.458  17.365  0.00  0.00    +0.000 HD
ENDBRANCH   3   5
BRANCH   2  16
ATOM     16  C   UNL     1      49.508   6.343  16.800  0.00  0.00    +0.000 C 
BRANCH  16  17
ATOM     17  C   UNL     1      48.479   5.928  15.784  0.00  0.00    +0.000 A 
ATOM     18  C   UNL     1      48.319   6.664  14.601  0.00  0.00    +0.000 A 
ATOM     19  C   UNL     1      47.456   6.220  13.608  0.00  0.00    +0.000 A 
ATOM     20  C   UNL     1      46.741   5.028  13.766  0.00  0.00    +0.000 A 
ATOM     21  C   UNL     1      46.858   4.320  14.977  0.00  0.00    +0.000 A 
ATOM     22  C   UNL     1      47.717   4.771  15.974  0.00  0.00    +0.000 A 
BRANCH  20  23
ATOM     23  C   UNL     1      45.870   4.499  12.647  0.00  0.00    +0.000 C 
BRANCH  23  24
ATOM     24  N   UNL     1      44.450   4.448  13.017  0.00  0.00    +0.000 NA
ATOM     25  C   UNL     1      43.713   5.658  12.635  0.00  0.00    +0.000 C 
ATOM     26  C   UNL     1      42.494   5.171  11.872  0.00  0.00    +0.000 C 
ATOM     27  N   UNL     1      42.843   3.827  11.413  0.00  0.00    +0.000 NA
ATOM     28  C   UNL     1      43.761   3.316  12.420  0.00  0.00    +0.000 C 
ATOM     29  H   UNL     1      43.354   3.902  10.538  0.00  0.00    +0.000 HD
ENDBRANCH  23  24
ENDBRANCH  20  23
ENDBRANCH  16  17
ENDBRANCH   2  16
TORSDOF 5
ENDMDL
MODEL 4
REMARK VINA RESULT:    -6.111      3.572      8.057
REMARK INTER + INTRA:          -9.014
REMARK INTER:                  -7.814
REMARK INTRA:                  -1.200
REMARK UNBOUND:                -1.117
REMARK  Name = 
REMARK  6 active torsions:
REMARK  status: ('A' for Active; 'I' for Inactive)
REMARK    1  A    between atoms: C_1  and  N_2
REMARK    2  A    between atoms: N_2  and  C_3
REMARK    3  A    between atoms: C_3  and  C_4
REMARK    4  A    between atoms: C_7  and  C_8
REMARK    5  A    between atoms: C_8  and  N_9
REMARK    6  A    between atoms: C_16  and  C_18
REMARK                            x       y       z     vdW  Elec       q    Type
REMARK                         _______ _______ _______ _____ _____    ______ ____
ROOT
ATOM      1  C   UNL     1      47.862   9.378  17.757  0.00  0.00    +0.000 C 
ATOM      2  N   UNL     1      48.802   8.341  17.350  0.00  0.00    +0.000 N 
ATOM      3  C   UNL     1      48.924   7.242  18.223  0.00  0.00    +0.000 C 
ATOM      4  O   UNL     1      48.282   7.186  19.271  0.00  0.00    +0.000 OA
ENDROOT
BRANCH   3   5
ATOM      5  C   UNL     1      49.869   6.162  17.896  0.00  0.00    +0.000 A 
ATOM      6  C   UNL     1      51.242   6.242  18.066  0.00  0.00    +0.000 A 
ATOM      7  S   UNL     1      52.069   4.804  17.661  0.00  0.00    +0.000 S 
ATOM      8  C   UNL     1      50.606   3.978  17.402  0.00  0.00    +0.000 A 
ATOM      9  N   UNL     1      50.591   2.644  17.143  0.00  0.00    +0.000 NA
ATOM     10  C   UNL     1      49.406   2.138  17.053  0.00  0.00    +0.000 A 
ATOM     11  N   UNL     1      48.239   2.853  17.148  0.00  0.00    +0.000 N 
ATOM     12  C   UNL     1      48.210   4.228  17.257  0.00  0.00    +0.000 A 
ATOM     13  O   UNL     1      47.172   4.853  17.079  0.00  0.00    +0.000 OA
ATOM     14  C   UNL     1      49.511   4.818  17.509  0.00  0.00    +0.000 A 
ATOM     15  H   UNL     1      47.348   2.406  16.991  0.00  0.00    +0.000 HD
ENDBRANCH   3   5
BRANCH   2  16
ATOM     16  C   UNL     1      49.327   8.317  15.987  0.00  0.00    +0.000 C 
BRANCH  16  17
ATOM     17  C   UNL     1      48.428   7.843  14.877  0.00  0.00    +0.000 A 
ATOM     18  C   UNL     1      47.587   8.749  14.215  0.00  0.00    +0.000 A 
ATOM     19  C   UNL     1      46.844   8.343  13.115  0.00  0.00    +0.000 A 
ATOM     20  C   UNL     1      46.931   7.030  12.641  0.00  0.00    +0.000 A 
ATOM     21  C   UNL     1      47.731   6.106  13.340  0.00  0.00    +0.000 A 
ATOM     22  C   UNL     1      48.468   6.512  14.448  0.00  0.00    +0.000 A 
BRANCH  20  23
ATOM     23  C   UNL     1      46.191   6.613  11.389  0.00  0.00    +0.000 C 
BRANCH  23  24
ATOM     24  N   UNL     1      45.296   5.471  11.619  0.00  0.00    +0.000 NA
ATOM     25  C   UNL     1      44.108   5.823  12.405  0.00  0.00    +0.000 C 
ATOM     26  C   UNL     1      42.923   5.300  11.612  0.00  0.00    +0.000 C 
ATOM     27  N   UNL     1      43.414   5.163  10.240  0.00  0.00    +0.000 NA
ATOM     28  C   UNL     1      44.832   4.871  10.380  0.00  0.00    +0.000 C 
ATOM     29  H   UNL     1      43.326   6.059   9.770  0.00  0.00    +0.000 HD
ENDBRANCH  23  24
ENDBRANCH  20  23
ENDBRANCH  16  17
ENDBRANCH   2  16
TORSDOF 5
ENDMDL
MODEL 5
REMARK VINA RESULT:    -6.019      3.625      8.324
REMARK INTER + INTRA:          -8.895
REMARK INTER:                  -7.831
REMARK INTRA:                  -1.064
REMARK UNBOUND:                -1.117
REMARK  Name = 
REMARK  6 active torsions:
REMARK  status: ('A' for Active; 'I' for Inactive)
REMARK    1  A    between atoms: C_1  and  N_2
REMARK    2  A    between atoms: N_2  and  C_3
REMARK    3  A    between atoms: C_3  and  C_4
REMARK    4  A    between atoms: C_7  and  C_8
REMARK    5  A    between atoms: C_8  and  N_9
REMARK    6  A    between atoms: C_16  and  C_18
REMARK                            x       y       z     vdW  Elec       q    Type
REMARK                         _______ _______ _______ _____ _____    ______ ____
ROOT
ATOM      1  C   UNL     1      50.337   7.906  13.119  0.00  0.00    +0.000 C 
ATOM      2  N   UNL     1      49.545   8.025  14.337  0.00  0.00    +0.000 N 
ATOM      3  C   UNL     1      50.259   7.945  15.548  0.00  0.00    +0.000 C 
ATOM      4  O   UNL     1      51.475   7.766  15.560  0.00  0.00    +0.000 OA
ENDROOT
BRANCH   3   5
ATOM      5  C   UNL     1      49.528   8.033  16.823  0.00  0.00    +0.000 A 
ATOM      6  C   UNL     1      49.390   9.191  17.571  0.00  0.00    +0.000 A 
ATOM      7  S   UNL     1      48.430   8.994  18.970  0.00  0.00    +0.000 S 
ATOM      8  C   UNL     1      48.036   7.399  18.534  0.00  0.00    +0.000 A 
ATOM      9  N   UNL     1      47.132   6.681  19.251  0.00  0.00    +0.000 NA
ATOM     10  C   UNL     1      46.870   5.518  18.754  0.00  0.00    +0.000 A 
ATOM     11  N   UNL     1      47.466   4.990  17.637  0.00  0.00    +0.000 N 
ATOM     12  C   UNL     1      48.495   5.621  16.969  0.00  0.00    +0.000 A 
ATOM     13  O   UNL     1      49.175   5.020  16.146  0.00  0.00    +0.000 OA
ATOM     14  C   UNL     1      48.718   6.987  17.404  0.00  0.00    +0.000 A 
ATOM     15  H   UNL     1      47.270   4.044  17.348  0.00  0.00    +0.000 HD
ENDBRANCH   3   5
BRANCH   2  16
ATOM     16  C   UNL     1      48.166   8.505  14.273  0.00  0.00    +0.000 C 
BRANCH  16  17
ATOM     17  C   UNL     1      47.151   7.685  13.524  0.00  0.00    +0.000 A 
ATOM     18  C   UNL     1      46.136   8.317  12.791  0.00  0.00    +0.000 A 
ATOM     19  C   UNL     1      45.270   7.571  12.004  0.00  0.00    +0.000 A 
ATOM     20  C   UNL     1      45.401   6.181  11.919  0.00  0.00    +0.000 A 
ATOM     21  C   UNL     1      46.383   5.541  12.700  0.00  0.00    +0.000 A 
ATOM     22  C   UNL     1      47.245   6.290  13.495  0.00  0.00    +0.000 A 
BRANCH  20  23
ATOM     23  C   UNL     1      44.514   5.379  10.991  0.00  0.00    +0.000 C 
BRANCH  23  24
ATOM     24  N   UNL     1      45.252   4.327  10.280  0.00  0.00    +0.000 NA
ATOM     25  C   UNL     1      44.677   2.991  10.474  0.00  0.00    +0.000 C 
ATOM     26  C   UNL     1      44.507   2.412   9.080  0.00  0.00    +0.000 C 
ATOM     27  N   UNL     1      44.487   3.571   8.186  0.00  0.00    +0.000 NA
ATOM     28  C   UNL     1      45.317   4.566   8.849  0.00  0.00    +0.000 C 
ATOM     29  H   UNL     1      43.540   3.936   8.144  0.00  0.00    +0.000 HD
ENDBRANCH  23  24
ENDBRANCH  20  23
ENDBRANCH  16  17
ENDBRANCH   2  16
TORSDOF 5
ENDMDL
MODEL 6
REMARK VINA RESULT:    -5.863      3.505      8.561
REMARK INTER + INTRA:          -8.694
REMARK INTER:                  -7.567
REMARK INTRA:                  -1.127
REMARK UNBOUND:                -1.117
REMARK  Name = 
REMARK  6 active torsions:
REMARK  status: ('A' for Active; 'I' for Inactive)
REMARK    1  A    between atoms: C_1  and  N_2
REMARK    2  A    between atoms: N_2  and  C_3
REMARK    3  A    between atoms: C_3  and  C_4
REMARK    4  A    between atoms: C_7  and  C_8
REMARK    5  A    between atoms: C_8  and  N_9
REMARK    6  A    between atoms: C_16  and  C_18
REMARK                            x       y       z     vdW  Elec       q    Type
REMARK                         _______ _______ _______ _____ _____    ______ ____
ROOT
ATOM      1  C   UNL     1      50.825   8.497  14.152  0.00  0.00    +0.000 C 
ATOM      2  N   UNL     1      49.747   7.891  14.925  0.00  0.00    +0.000 N 
ATOM      3  C   UNL     1      50.144   7.069  15.997  0.00  0.00    +0.000 C 
ATOM      4  O   UNL     1      51.332   6.868  16.241  0.00  0.00    +0.000 OA
ENDROOT
BRANCH   3   5
ATOM      5  C   UNL     1      49.116   6.402  16.813  0.00  0.00    +0.000 A 
ATOM      6  C   UNL     1      48.601   5.142  16.552  0.00  0.00    +0.000 A 
ATOM      7  S   UNL     1      47.471   4.607  17.715  0.00  0.00    +0.000 S 
ATOM      8  C   UNL     1      47.756   5.971  18.690  0.00  0.00    +0.000 A 
ATOM      9  N   UNL     1      47.190   6.083  19.920  0.00  0.00    +0.000 NA
ATOM     10  C   UNL     1      47.563   7.129  20.579  0.00  0.00    +0.000 A 
ATOM     11  N   UNL     1      48.409   8.097  20.099  0.00  0.00    +0.000 N 
ATOM     12  C   UNL     1      48.885   8.101  18.804  0.00  0.00    +0.000 A 
ATOM     13  O   UNL     1      49.417   9.097  18.331  0.00  0.00    +0.000 OA
ATOM     14  C   UNL     1      48.610   6.873  18.081  0.00  0.00    +0.000 A 
ATOM     15  H   UNL     1      48.598   8.928  20.639  0.00  0.00    +0.000 HD
ENDBRANCH   3   5
BRANCH   2  16
ATOM     16  C   UNL     1      48.375   8.370  14.775  0.00  0.00    +0.000 C 
BRANCH  16  17
ATOM     17  C   UNL     1      47.514   7.765  13.699  0.00  0.00    +0.000 A 
ATOM     18  C   UNL     1      47.801   6.485  13.203  0.00  0.00    +0.000 A 
ATOM     19  C   UNL     1      46.944   5.874  12.298  0.00  0.00    +0.000 A 
ATOM     20  C   UNL     1      45.776   6.518  11.875  0.00  0.00    +0.000 A 
ATOM     21  C   UNL     1      45.518   7.826  12.329  0.00  0.00    +0.000 A 
ATOM     22  C   UNL     1      46.383   8.440  13.229  0.00  0.00    +0.000 A 
BRANCH  20  23
ATOM     23  C   UNL     1      44.797   5.816  10.960  0.00  0.00    +0.000 C 
BRANCH  23  24
ATOM     24  N   UNL     1      45.350   4.581  10.388  0.00  0.00    +0.000 NA
ATOM     25  C   UNL     1      44.660   3.373  10.854  0.00  0.00    +0.000 C 
ATOM     26  C   UNL     1      44.299   2.598   9.599  0.00  0.00    +0.000 C 
ATOM     27  N   UNL     1      44.314   3.589   8.522  0.00  0.00    +0.000 NA
ATOM     28  C   UNL     1      45.303   4.573   8.936  0.00  0.00    +0.000 C 
ATOM     29  H   UNL     1      43.410   4.051   8.490  0.00  0.00    +0.000 HD
ENDBRANCH  23  24
ENDBRANCH  20  23
ENDBRANCH  16  17
ENDBRANCH   2  16
TORSDOF 5
ENDMDL
MODEL 7
REMARK VINA RESULT:    -5.858      3.668      8.057
REMARK INTER + INTRA:          -8.687
REMARK INTER:                  -8.828
REMARK INTRA:                   0.141
REMARK UNBOUND:                -1.117
REMARK  Name = 
REMARK  6 active torsions:
REMARK  status: ('A' for Active; 'I' for Inactive)
REMARK    1  A    between atoms: C_1  and  N_2
REMARK    2  A    between atoms: N_2  and  C_3
REMARK    3  A    between atoms: C_3  and  C_4
REMARK    4  A    between atoms: C_7  and  C_8
REMARK    5  A    between atoms: C_8  and  N_9
REMARK    6  A    between atoms: C_16  and  C_18
REMARK                            x       y       z     vdW  Elec       q    Type
REMARK                         _______ _______ _______ _____ _____    ______ ____
ROOT
ATOM      1  C   UNL     1      46.882   4.366  14.679  0.00  0.00    +0.000 C 
ATOM      2  N   UNL     1      46.479   5.564  13.953  0.00  0.00    +0.000 N 
ATOM      3  C   UNL     1      47.486   6.525  13.741  0.00  0.00    +0.000 C 
ATOM      4  O   UNL     1      48.628   6.357  14.167  0.00  0.00    +0.000 OA
ENDROOT
BRANCH   3   5
ATOM      5  C   UNL     1      47.156   7.774  13.036  0.00  0.00    +0.000 A 
ATOM      6  C   UNL     1      45.954   8.453  13.162  0.00  0.00    +0.000 A 
ATOM      7  S   UNL     1      45.891   9.907  12.270  0.00  0.00    +0.000 S 
ATOM      8  C   UNL     1      47.523   9.758  11.818  0.00  0.00    +0.000 A 
ATOM      9  N   UNL     1      48.154  10.750  11.135  0.00  0.00    +0.000 NA
ATOM     10  C   UNL     1      49.411  10.535  10.936  0.00  0.00    +0.000 A 
ATOM     11  N   UNL     1      50.082   9.399  11.312  0.00  0.00    +0.000 N 
ATOM     12  C   UNL     1      49.449   8.306  11.869  0.00  0.00    +0.000 A 
ATOM     13  O   UNL     1      50.016   7.224  11.953  0.00  0.00    +0.000 OA
ATOM     14  C   UNL     1      48.071   8.562  12.243  0.00  0.00    +0.000 A 
ATOM     15  H   UNL     1      51.048   9.263  11.056  0.00  0.00    +0.000 HD
ENDBRANCH   3   5
BRANCH   2  16
ATOM     16  C   UNL     1      45.206   5.597  13.237  0.00  0.00    +0.000 C 
BRANCH  16  17
ATOM     17  C   UNL     1      45.123   4.945  11.883  0.00  0.00    +0.000 A 
ATOM     18  C   UNL     1      45.408   5.685  10.726  0.00  0.00    +0.000 A 
ATOM     19  C   UNL     1      45.448   5.061   9.486  0.00  0.00    +0.000 A 
ATOM     20  C   UNL     1      45.219   3.686   9.372  0.00  0.00    +0.000 A 
ATOM     21  C   UNL     1      44.876   2.955  10.526  0.00  0.00    +0.000 A 
ATOM     22  C   UNL     1      44.827   3.583  11.766  0.00  0.00    +0.000 A 
BRANCH  20  23
ATOM     23  C   UNL     1      45.352   2.992   8.034  0.00  0.00    +0.000 C 
BRANCH  23  24
ATOM     24  N   UNL     1      46.735   2.985   7.540  0.00  0.00    +0.000 NA
ATOM     25  C   UNL     1      47.209   1.645   7.178  0.00  0.00    +0.000 C 
ATOM     26  C   UNL     1      47.775   1.776   5.775  0.00  0.00    +0.000 C 
ATOM     27  N   UNL     1      47.152   2.979   5.223  0.00  0.00    +0.000 NA
ATOM     28  C   UNL     1      46.913   3.835   6.375  0.00  0.00    +0.000 C 
ATOM     29  H   UNL     1      46.249   2.729   4.830  0.00  0.00    +0.000 HD
ENDBRANCH  23  24
ENDBRANCH  20  23
ENDBRANCH  16  17
ENDBRANCH   2  16
TORSDOF 5
ENDMDL
MODEL 8
REMARK VINA RESULT:    -5.713      3.503      7.949
REMARK INTER + INTRA:          -8.500
REMARK INTER:                  -8.190
REMARK INTRA:                  -0.310
REMARK UNBOUND:                -1.117
REMARK  Name = 
REMARK  6 active torsions:
REMARK  status: ('A' for Active; 'I' for Inactive)
REMARK    1  A    between atoms: C_1  and  N_2
REMARK    2  A    between atoms: N_2  and  C_3
REMARK    3  A    between atoms: C_3  and  C_4
REMARK    4  A    between atoms: C_7  and  C_8
REMARK    5  A    between atoms: C_8  and  N_9
REMARK    6  A    between atoms: C_16  and  C_18
REMARK                            x       y       z     vdW  Elec       q    Type
REMARK                         _______ _______ _______ _____ _____    ______ ____
ROOT
ATOM      1  C   UNL     1      48.847   9.310  11.769  0.00  0.00    +0.000 C 
ATOM      2  N   UNL     1      49.118   8.355  12.836  0.00  0.00    +0.000 N 
ATOM      3  C   UNL     1      49.393   8.906  14.102  0.00  0.00    +0.000 C 
ATOM      4  O   UNL     1      49.419  10.124  14.275  0.00  0.00    +0.000 OA
ENDROOT
BRANCH   3   5
ATOM      5  C   UNL     1      49.700   8.010  15.229  0.00  0.00    +0.000 A 
ATOM      6  C   UNL     1      48.747   7.417  16.042  0.00  0.00    +0.000 A 
ATOM      7  S   UNL     1      49.406   6.374  17.223  0.00  0.00    +0.000 S 
ATOM      8  C   UNL     1      50.969   6.554  16.580  0.00  0.00    +0.000 A 
ATOM      9  N   UNL     1      52.011   5.821  17.055  0.00  0.00    +0.000 NA
ATOM     10  C   UNL     1      53.118   6.002  16.415  0.00  0.00    +0.000 A 
ATOM     11  N   UNL     1      53.289   6.884  15.378  0.00  0.00    +0.000 N 
ATOM     12  C   UNL     1      52.302   7.755  14.966  0.00  0.00    +0.000 A 
ATOM     13  O   UNL     1      52.560   8.697  14.227  0.00  0.00    +0.000 OA
ATOM     14  C   UNL     1      51.004   7.485  15.557  0.00  0.00    +0.000 A 
ATOM     15  H   UNL     1      54.201   7.031  14.973  0.00  0.00    +0.000 HD
ENDBRANCH   3   5
BRANCH   2  16
ATOM     16  C   UNL     1      48.808   6.939  12.652  0.00  0.00    +0.000 C 
BRANCH  16  17
ATOM     17  C   UNL     1      47.392   6.477  12.863  0.00  0.00    +0.000 A 
ATOM     18  C   UNL     1      46.319   7.278  12.446  0.00  0.00    +0.000 A 
ATOM     19  C   UNL     1      45.016   6.807  12.530  0.00  0.00    +0.000 A 
ATOM     20  C   UNL     1      44.752   5.523  13.020  0.00  0.00    +0.000 A 
ATOM     21  C   UNL     1      45.824   4.742  13.491  0.00  0.00    +0.000 A 
ATOM     22  C   UNL     1      47.129   5.219  13.415  0.00  0.00    +0.000 A 
BRANCH  20  23
ATOM     23  C   UNL     1      43.341   4.977  13.027  0.00  0.00    +0.000 C 
BRANCH  23  24
ATOM     24  N   UNL     1      43.011   4.258  11.789  0.00  0.00    +0.000 NA
ATOM     25  C   UNL     1      43.690   4.805  10.609  0.00  0.00    +0.000 C 
ATOM     26  C   UNL     1      44.352   3.619   9.930  0.00  0.00    +0.000 C 
ATOM     27  N   UNL     1      44.470   2.600  10.974  0.00  0.00    +0.000 NA
ATOM     28  C   UNL     1      43.344   2.846  11.863  0.00  0.00    +0.000 C 
ATOM     29  H   UNL     1      45.323   2.768  11.501  0.00  0.00    +0.000 HD
ENDBRANCH  23  24
ENDBRANCH  20  23
ENDBRANCH  16  17
ENDBRANCH   2  16
TORSDOF 5
ENDMDL
MODEL 9
REMARK VINA RESULT:    -5.575      4.211      7.826
REMARK INTER + INTRA:          -8.321
REMARK INTER:                  -7.735
REMARK INTRA:                  -0.586
REMARK UNBOUND:                -1.117
REMARK  Name = 
REMARK  6 active torsions:
REMARK  status: ('A' for Active; 'I' for Inactive)
REMARK    1  A    between atoms: C_1  and  N_2
REMARK    2  A    between atoms: N_2  and  C_3
REMARK    3  A    between atoms: C_3  and  C_4
REMARK    4  A    between atoms: C_7  and  C_8
REMARK    5  A    between atoms: C_8  and  N_9
REMARK    6  A    between atoms: C_16  and  C_18
REMARK                            x       y       z     vdW  Elec       q    Type
REMARK                         _______ _______ _______ _____ _____    ______ ____
ROOT
ATOM      1  C   UNL     1      49.317   6.948  15.592  0.00  0.00    +0.000 C 
ATOM      2  N   UNL     1      49.024   7.628  14.336  0.00  0.00    +0.000 N 
ATOM      3  C   UNL     1      49.511   8.944  14.219  0.00  0.00    +0.000 C 
ATOM      4  O   UNL     1      50.127   9.480  15.138  0.00  0.00    +0.000 OA
ENDROOT
BRANCH   3   5
ATOM      5  C   UNL     1      49.238   9.707  12.990  0.00  0.00    +0.000 A 
ATOM      6  C   UNL     1      48.080  10.431  12.756  0.00  0.00    +0.000 A 
ATOM      7  S   UNL     1      48.081  11.267  11.267  0.00  0.00    +0.000 S 
ATOM      8  C   UNL     1      49.693  10.820  10.963  0.00  0.00    +0.000 A 
ATOM      9  N   UNL     1      50.366  11.313   9.889  0.00  0.00    +0.000 NA
ATOM     10  C   UNL     1      51.605  10.954   9.834  0.00  0.00    +0.000 A 
ATOM     11  N   UNL     1      52.217  10.108  10.724  0.00  0.00    +0.000 N 
ATOM     12  C   UNL     1      51.534   9.466  11.737  0.00  0.00    +0.000 A 
ATOM     13  O   UNL     1      52.040   8.530  12.344  0.00  0.00    +0.000 OA
ATOM     14  C   UNL     1      50.181   9.953  11.924  0.00  0.00    +0.000 A 
ATOM     15  H   UNL     1      53.168   9.807  10.577  0.00  0.00    +0.000 HD
ENDBRANCH   3   5
BRANCH   2  16
ATOM     16  C   UNL     1      48.539   6.869  13.186  0.00  0.00    +0.000 C 
BRANCH  16  17
ATOM     17  C   UNL     1      47.109   6.402  13.182  0.00  0.00    +0.000 A 
ATOM     18  C   UNL     1      46.103   7.213  12.637  0.00  0.00    +0.000 A 
ATOM     19  C   UNL     1      44.803   6.740  12.523  0.00  0.00    +0.000 A 
ATOM     20  C   UNL     1      44.476   5.445  12.938  0.00  0.00    +0.000 A 
ATOM     21  C   UNL     1      45.473   4.651  13.538  0.00  0.00    +0.000 A 
ATOM     22  C   UNL     1      46.774   5.130  13.659  0.00  0.00    +0.000 A 
BRANCH  20  23
ATOM     23  C   UNL     1      43.081   4.898  12.731  0.00  0.00    +0.000 C 
BRANCH  23  24
ATOM     24  N   UNL     1      42.952   4.148  11.475  0.00  0.00    +0.000 NA
ATOM     25  C   UNL     1      43.761   4.708  10.387  0.00  0.00    +0.000 C 
ATOM     26  C   UNL     1      44.558   3.542   9.828  0.00  0.00    +0.000 C 
ATOM     27  N   UNL     1      44.576   2.545  10.898  0.00  0.00    +0.000 NA
ATOM     28  C   UNL     1      43.331   2.753  11.621  0.00  0.00    +0.000 C 
ATOM     29  H   UNL     1      45.342   2.757  11.531  0.00  0.00    +0.000 HD
ENDBRANCH  23  24
ENDBRANCH  20  23
ENDBRANCH  16  17
ENDBRANCH   2  16
TORSDOF 5
ENDMDL
