MODEL 1
REMARK VINA RESULT:    -8.185      0.000      0.000
REMARK INTER + INTRA:         -13.321
REMARK INTER:                 -11.774
REMARK INTRA:                  -1.547
REMARK UNBOUND:                -1.547
REMARK  Name = 
REMARK  9 active torsions:
REMARK  status: ('A' for Active; 'I' for Inactive)
REMARK    1  A    between atoms: C_1  and  N_2
REMARK    2  A    between atoms: N_2  and  C_3
REMARK    3  A    between atoms: C_3  and  C_4
REMARK    4  A    between atoms: C_7  and  C_8
REMARK    5  A    between atoms: C_8  and  C_9
REMARK    6  A    between atoms: C_9  and  O_10
REMARK    7  A    between atoms: C_9  and  C_11
REMARK    8  A    between atoms: C_11  and  C_12
REMARK    9  A    between atoms: C_20  and  C_22
REMARK                            x       y       z     vdW  Elec       q    Type
REMARK                         _______ _______ _______ _____ _____    ______ ____
ROOT
ATOM      1  C   UNL     1      47.290   5.481  13.525  0.00  0.00    +0.000 A 
ATOM      2  C   UNL     1      47.851   6.150  14.611  0.00  0.00    +0.000 A 
ATOM      3  C   UNL     1      48.021   5.481  15.821  0.00  0.00    +0.000 A 
ATOM      4  C   UNL     1      47.636   4.148  15.911  0.00  0.00    +0.000 A 
ATOM      5  N   UNL     1      47.119   3.470  14.859  0.00  0.00    +0.000 NA
ATOM      6  C   UNL     1      46.935   4.149  13.706  0.00  0.00    +0.000 A 
ENDROOT
BRANCH   1   7
ATOM      7  C   UNL     1      47.084   6.156  12.202  0.00  0.00    +0.000 C 
BRANCH   7   9
ATOM      8  C   UNL     1      46.113   8.496  12.220  0.00  0.00    +0.000 C 
ATOM      9  N   UNL     1      45.935   7.055  12.066  0.00  0.00    +0.000 N 
ATOM     10  C   UNL     1      44.681   6.635  11.583  0.00  0.00    +0.000 C 
ATOM     11  O   UNL     1      43.797   7.446  11.317  0.00  0.00    +0.000 OA
BRANCH  10  12
ATOM     12  C   UNL     1      44.413   5.198  11.431  0.00  0.00    +0.000 A 
ATOM     13  C   UNL     1      43.648   4.444  12.308  0.00  0.00    +0.000 A 
ATOM     14  S   UNL     1      43.468   2.816  11.833  0.00  0.00    +0.000 S 
ATOM     15  C   UNL     1      44.275   3.102  10.363  0.00  0.00    +0.000 A 
ATOM     16  N   UNL     1      44.379   2.130   9.421  0.00  0.00    +0.000 NA
ATOM     17  C   UNL     1      44.951   2.510   8.327  0.00  0.00    +0.000 A 
ATOM     18  N   UNL     1      45.464   3.764   8.111  0.00  0.00    +0.000 N 
ATOM     19  C   UNL     1      45.513   4.732   9.089  0.00  0.00    +0.000 A 
ATOM     20  O   UNL     1      46.192   5.744   8.944  0.00  0.00    +0.000 OA
ATOM     21  C   UNL     1      44.763   4.393  10.285  0.00  0.00    +0.000 A 
ATOM     22  H   UNL     1      45.961   3.976   7.257  0.00  0.00    +0.000 HD
ENDBRANCH  10  12
ENDBRANCH   7   9
ENDBRANCH   1   7
BRANCH   4  23
ATOM     23  C   UNL     1      47.845   3.349  17.176  0.00  0.00    +0.000 C 
BRANCH  23  24
ATOM     24  C   UNL     1      49.174   2.566  17.188  0.00  0.00    +0.000 C 
BRANCH  24  25
ATOM     25  O   UNL     1      49.376   1.897  15.935  0.00  0.00    +0.000 OA
ATOM     26  H   UNL     1      49.768   1.021  16.121  0.00  0.00    +0.000 HD
ENDBRANCH  24  25
BRANCH  24  27
ATOM     27  C   UNL     1      50.376   3.458  17.525  0.00  0.00    +0.000 C 
BRANCH  27  28
ATOM     28  C   UNL     1      51.648   2.671  17.707  0.00  0.00    +0.000 A 
ATOM     29  C   UNL     1      52.838   3.334  18.004  0.00  0.00    +0.000 A 
ATOM     30  C   UNL     1      54.001   2.593  18.172  0.00  0.00    +0.000 A 
ATOM     31  C   UNL     1      53.947   1.212  18.029  0.00  0.00    +0.000 A 
ATOM     32  C   UNL     1      52.727   0.630  17.720  0.00  0.00    +0.000 A 
ATOM     33  N   UNL     1      51.577   1.323  17.566  0.00  0.00    +0.000 NA
ENDBRANCH  27  28
ENDBRANCH  24  27
ENDBRANCH  23  24
ENDBRANCH   4  23
TORSDOF 8
ENDMDL
MODEL 2
REMARK VINA RESULT:    -7.853      4.012      8.469
REMARK INTER + INTRA:         -12.843
REMARK INTER:                 -11.273
REMARK INTRA:                  -1.570
REMARK UNBOUND:                -1.547
REMARK  Name = 
REMARK  9 active torsions:
REMARK  status: ('A' for Active; 'I' for Inactive)
REMARK    1  A    between atoms: C_1  and  N_2
REMARK    2  A    between atoms: N_2  and  C_3
REMARK    3  A    between atoms: C_3  and  C_4
REMARK    4  A    between atoms: C_7  and  C_8
REMARK    5  A    between atoms: C_8  and  C_9
REMARK    6  A    between atoms: C_9  and  O_10
REMARK    7  A    between atoms: C_9  and  C_11
REMARK    8  A    between atoms: C_11  and  C_12
REMARK    9  A    between atoms: C_20  and  C_22
REMARK                            x       y       z     vdW  Elec       q    Type
REMARK                         _______ _______ _______ _____ _____    ______ ____
ROOT
ATOM      1  C   UNL     1      46.675   7.170  13.233  0.00  0.00    +0.000 A 
ATOM      2  C   UNL     1      46.965   5.858  13.602  0.00  0.00    +0.000 A 
ATOM      3  C   UNL     1      45.981   4.878  13.497  0.00  0.00    +0.000 A 
ATOM      4  C   UNL     1      44.728   5.234  13.009  0.00  0.00    +0.000 A 
ATOM      5  N   UNL     1      44.435   6.496  12.615  0.00  0.00    +0.000 NA
ATOM      6  C   UNL     1      45.396   7.434  12.756  0.00  0.00    +0.000 A 
ENDROOT
BRANCH   1   7
ATOM      7  C   UNL     1      47.698   8.263  13.328  0.00  0.00    +0.000 C 
BRANCH   7   9
ATOM      8  C   UNL     1      49.756   7.386  12.138  0.00  0.00    +0.000 C 
ATOM      9  N   UNL     1      49.110   7.874  13.353  0.00  0.00    +0.000 N 
ATOM     10  C   UNL     1      49.962   8.139  14.443  0.00  0.00    +0.000 C 
ATOM     11  O   UNL     1      51.175   7.959  14.360  0.00  0.00    +0.000 OA
BRANCH  10  12
ATOM     12  C   UNL     1      49.385   8.603  15.712  0.00  0.00    +0.000 A 
ATOM     13  C   UNL     1      49.169   9.934  16.036  0.00  0.00    +0.000 A 
ATOM     14  S   UNL     1      48.430  10.156  17.558  0.00  0.00    +0.000 S 
ATOM     15  C   UNL     1      48.235   8.478  17.765  0.00  0.00    +0.000 A 
ATOM     16  N   UNL     1      47.566   7.978  18.835  0.00  0.00    +0.000 NA
ATOM     17  C   UNL     1      47.430   6.694  18.824  0.00  0.00    +0.000 A 
ATOM     18  N   UNL     1      47.943   5.865  17.858  0.00  0.00    +0.000 N 
ATOM     19  C   UNL     1      48.752   6.314  16.839  0.00  0.00    +0.000 A 
ATOM     20  O   UNL     1      49.389   5.527  16.144  0.00  0.00    +0.000 OA
ATOM     21  C   UNL     1      48.818   7.761  16.737  0.00  0.00    +0.000 A 
ATOM     22  H   UNL     1      47.861   4.862  17.946  0.00  0.00    +0.000 HD
ENDBRANCH  10  12
ENDBRANCH   7   9
ENDBRANCH   1   7
BRANCH   4  23
ATOM     23  C   UNL     1      43.635   4.209  12.818  0.00  0.00    +0.000 C 
BRANCH  23  24
ATOM     24  C   UNL     1      43.901   3.248  11.642  0.00  0.00    +0.000 C 
BRANCH  24  25
ATOM     25  O   UNL     1      42.991   2.139  11.682  0.00  0.00    +0.000 OA
ATOM     26  H   UNL     1      43.354   1.431  11.113  0.00  0.00    +0.000 HD
ENDBRANCH  24  25
BRANCH  24  27
ATOM     27  C   UNL     1      43.834   3.954  10.282  0.00  0.00    +0.000 C 
BRANCH  27  28
ATOM     28  C   UNL     1      44.814   3.388   9.287  0.00  0.00    +0.000 A 
ATOM     29  C   UNL     1      45.473   4.239   8.400  0.00  0.00    +0.000 A 
ATOM     30  C   UNL     1      46.377   3.702   7.492  0.00  0.00    +0.000 A 
ATOM     31  C   UNL     1      46.590   2.329   7.486  0.00  0.00    +0.000 A 
ATOM     32  C   UNL     1      45.886   1.550   8.391  0.00  0.00    +0.000 A 
ATOM     33  N   UNL     1      45.014   2.046   9.296  0.00  0.00    +0.000 NA
ENDBRANCH  27  28
ENDBRANCH  24  27
ENDBRANCH  23  24
ENDBRANCH   4  23
TORSDOF 8
ENDMDL
MODEL 3
REMARK VINA RESULT:    -7.670      3.665      8.757
REMARK INTER + INTRA:         -12.579
REMARK INTER:                 -11.090
REMARK INTRA:                  -1.489
REMARK UNBOUND:                -1.547
REMARK  Name = 
REMARK  9 active torsions:
REMARK  status: ('A' for Active; 'I' for Inactive)
REMARK    1  A    between atoms: C_1  and  N_2
REMARK    2  A    between atoms: N_2  and  C_3
REMARK    3  A    between atoms: C_3  and  C_4
REMARK    4  A    between atoms: C_7  and  C_8
REMARK    5  A    between atoms: C_8  and  C_9
REMARK    6  A    between atoms: C_9  and  O_10
REMARK    7  A    between atoms: C_9  and  C_11
REMARK    8  A    between atoms: C_11  and  C_12
REMARK    9  A    between atoms: C_20  and  C_22
REMARK                            x       y       z     vdW  Elec       q    Type
REMARK                         _______ _______ _______ _____ _____    ______ ____
ROOT
ATOM      1  C   UNL     1      46.955   7.207  13.369  0.00  0.00    +0.000 A 
ATOM      2  C   UNL     1      45.975   7.829  12.598  0.00  0.00    +0.000 A 
ATOM      3  C   UNL     1      45.168   7.064  11.759  0.00  0.00    +0.000 A 
ATOM      4  C   UNL     1      45.354   5.686  11.722  0.00  0.00    +0.000 A 
ATOM      5  N   UNL     1      46.279   5.059  12.486  0.00  0.00    +0.000 NA
ATOM      6  C   UNL     1      47.069   5.825  13.268  0.00  0.00    +0.000 A 
ENDROOT
BRANCH   1   7
ATOM      7  C   UNL     1      47.851   7.986  14.287  0.00  0.00    +0.000 C 
BRANCH   7   9
ATOM      8  C   UNL     1      50.207   8.047  13.357  0.00  0.00    +0.000 C 
ATOM      9  N   UNL     1      49.258   7.586  14.367  0.00  0.00    +0.000 N 
ATOM     10  C   UNL     1      49.813   6.943  15.490  0.00  0.00    +0.000 C 
ATOM     11  O   UNL     1      51.027   6.783  15.595  0.00  0.00    +0.000 OA
BRANCH  10  12
ATOM     12  C   UNL     1      48.921   6.422  16.535  0.00  0.00    +0.000 A 
ATOM     13  C   UNL     1      48.408   5.135  16.560  0.00  0.00    +0.000 A 
ATOM     14  S   UNL     1      47.450   4.806  17.933  0.00  0.00    +0.000 S 
ATOM     15  C   UNL     1      47.818   6.321  18.614  0.00  0.00    +0.000 A 
ATOM     16  N   UNL     1      47.391   6.650  19.861  0.00  0.00    +0.000 NA
ATOM     17  C   UNL     1      47.807   7.799  20.278  0.00  0.00    +0.000 A 
ATOM     18  N   UNL     1      48.574   8.665  19.541  0.00  0.00    +0.000 N 
ATOM     19  C   UNL     1      48.903   8.438  18.223  0.00  0.00    +0.000 A 
ATOM     20  O   UNL     1      49.374   9.332  17.526  0.00  0.00    +0.000 OA
ATOM     21  C   UNL     1      48.573   7.102  17.760  0.00  0.00    +0.000 A 
ATOM     22  H   UNL     1      48.807   9.580  19.901  0.00  0.00    +0.000 HD
ENDBRANCH  10  12
ENDBRANCH   7   9
ENDBRANCH   1   7
BRANCH   4  23
ATOM     23  C   UNL     1      44.477   4.793  10.876  0.00  0.00    +0.000 C 
BRANCH  23  24
ATOM     24  C   UNL     1      44.998   3.346  10.778  0.00  0.00    +0.000 C 
BRANCH  24  25
ATOM     25  O   UNL     1      44.698   2.619  11.980  0.00  0.00    +0.000 OA
ATOM     26  H   UNL     1      45.456   2.035  12.176  0.00  0.00    +0.000 HD
ENDBRANCH  24  25
BRANCH  24  27
ATOM     27  C   UNL     1      44.450   2.608   9.550  0.00  0.00    +0.000 C 
BRANCH  27  28
ATOM     28  C   UNL     1      45.498   2.397   8.486  0.00  0.00    +0.000 A 
ATOM     29  C   UNL     1      45.840   3.445   7.632  0.00  0.00    +0.000 A 
ATOM     30  C   UNL     1      46.810   3.236   6.660  0.00  0.00    +0.000 A 
ATOM     31  C   UNL     1      47.405   1.984   6.561  0.00  0.00    +0.000 A 
ATOM     32  C   UNL     1      47.001   0.992   7.440  0.00  0.00    +0.000 A 
ATOM     33  N   UNL     1      46.072   1.171   8.405  0.00  0.00    +0.000 NA
ENDBRANCH  27  28
ENDBRANCH  24  27
ENDBRANCH  23  24
ENDBRANCH   4  23
TORSDOF 8
ENDMDL
MODEL 4
REMARK VINA RESULT:    -7.551      3.062      8.638
REMARK INTER + INTRA:         -12.408
REMARK INTER:                 -11.024
REMARK INTRA:                  -1.384
REMARK UNBOUND:                -1.547
REMARK  Name = 
REMARK  9 active torsions:
REMARK  status: ('A' for Active; 'I' for Inactive)
REMARK    1  A    between atoms: C_1  and  N_2
REMARK    2  A    between atoms: N_2  and  C_3
REMARK    3  A    between atoms: C_3  and  C_4
REMARK    4  A    between atoms: C_7  and  C_8
REMARK    5  A    between atoms: C_8  and  C_9
REMARK    6  A    between atoms: C_9  and  O_10
REMARK    7  A    between atoms: C_9  and  C_11
REMARK    8  A    between atoms: C_11  and  C_12
REMARK    9  A    between atoms: C_20  and  C_22
REMARK                            x       y       z     vdW  Elec       q    Type
REMARK                         _______ _______ _______ _____ _____    ______ ____
ROOT
ATOM      1  C   UNL     1      48.030   6.348  13.794  0.00  0.00    +0.000 A 
ATOM      2  C   UNL     1      47.760   6.898  12.543  0.00  0.00    +0.000 A 
ATOM      3  C   UNL     1      46.717   6.386  11.775  0.00  0.00    +0.000 A 
ATOM      4  C   UNL     1      45.957   5.339  12.286  0.00  0.00    +0.000 A 
ATOM      5  N   UNL     1      46.182   4.812  13.512  0.00  0.00    +0.000 NA
ATOM      6  C   UNL     1      47.218   5.304  14.225  0.00  0.00    +0.000 A 
ENDROOT
BRANCH   1   7
ATOM      7  C   UNL     1      49.141   6.862  14.661  0.00  0.00    +0.000 C 
BRANCH   7   9
ATOM      8  C   UNL     1      48.358   9.113  15.519  0.00  0.00    +0.000 C 
ATOM      9  N   UNL     1      48.785   7.741  15.777  0.00  0.00    +0.000 N 
ATOM     10  C   UNL     1      48.625   7.281  17.098  0.00  0.00    +0.000 C 
ATOM     11  O   UNL     1      48.156   8.008  17.972  0.00  0.00    +0.000 OA
BRANCH  10  12
ATOM     12  C   UNL     1      49.061   5.922  17.446  0.00  0.00    +0.000 A 
ATOM     13  C   UNL     1      48.212   4.833  17.574  0.00  0.00    +0.000 A 
ATOM     14  S   UNL     1      49.020   3.373  17.927  0.00  0.00    +0.000 S 
ATOM     15  C   UNL     1      50.542   4.117  17.767  0.00  0.00    +0.000 A 
ATOM     16  N   UNL     1      51.687   3.392  17.846  0.00  0.00    +0.000 NA
ATOM     17  C   UNL     1      52.763   4.074  17.631  0.00  0.00    +0.000 A 
ATOM     18  N   UNL     1      52.794   5.423  17.388  0.00  0.00    +0.000 N 
ATOM     19  C   UNL     1      51.673   6.221  17.448  0.00  0.00    +0.000 A 
ATOM     20  O   UNL     1      51.769   7.445  17.470  0.00  0.00    +0.000 OA
ATOM     21  C   UNL     1      50.430   5.478  17.551  0.00  0.00    +0.000 A 
ATOM     22  H   UNL     1      53.675   5.909  17.298  0.00  0.00    +0.000 HD
ENDBRANCH  10  12
ENDBRANCH   7   9
ENDBRANCH   1   7
BRANCH   4  23
ATOM     23  C   UNL     1      44.778   4.776  11.528  0.00  0.00    +0.000 C 
BRANCH  23  24
ATOM     24  C   UNL     1      44.869   3.252  11.308  0.00  0.00    +0.000 C 
BRANCH  24  25
ATOM     25  O   UNL     1      44.309   2.547  12.426  0.00  0.00    +0.000 OA
ATOM     26  H   UNL     1      44.508   3.058  13.234  0.00  0.00    +0.000 HD
ENDBRANCH  24  25
BRANCH  24  27
ATOM     27  C   UNL     1      44.202   2.809   9.999  0.00  0.00    +0.000 C 
BRANCH  27  28
ATOM     28  C   UNL     1      45.190   2.646   8.872  0.00  0.00    +0.000 A 
ATOM     29  C   UNL     1      45.456   3.719   8.022  0.00  0.00    +0.000 A 
ATOM     30  C   UNL     1      46.371   3.554   6.991  0.00  0.00    +0.000 A 
ATOM     31  C   UNL     1      46.988   2.320   6.829  0.00  0.00    +0.000 A 
ATOM     32  C   UNL     1      46.660   1.300   7.709  0.00  0.00    +0.000 A 
ATOM     33  N   UNL     1      45.786   1.436   8.730  0.00  0.00    +0.000 NA
ENDBRANCH  27  28
ENDBRANCH  24  27
ENDBRANCH  23  24
ENDBRANCH   4  23
TORSDOF 8
ENDMDL
MODEL 5
REMARK VINA RESULT:    -7.175      3.403      8.790
REMARK INTER + INTRA:         -11.868
REMARK INTER:                 -10.850
REMARK INTRA:                  -1.018
REMARK UNBOUND:                -1.547
REMARK  Name = 
REMARK  9 active torsions:
REMARK  status: ('A' for Active; 'I' for Inactive)
REMARK    1  A    between atoms: C_1  and  N_2
REMARK    2  A    between atoms: N_2  and  C_3
REMARK    3  A    between atoms: C_3  and  C_4
REMARK    4  A    between atoms: C_7  and  C_8
REMARK    5  A    between atoms: C_8  and  C_9
REMARK    6  A    between atoms: C_9  and  O_10
REMARK    7  A    between atoms: C_9  and  C_11
REMARK    8  A    between atoms: C_11  and  C_12
REMARK    9  A    between atoms: C_20  and  C_22
REMARK                            x       y       z     vdW  Elec       q    Type
REMARK                         _______ _______ _______ _____ _____    ______ ____
ROOT
ATOM      1  C   UNL     1      47.689   6.279  13.103  0.00  0.00    +0.000 A 
ATOM      2  C   UNL     1      47.068   5.275  13.843  0.00  0.00    +0.000 A 
ATOM      3  C   UNL     1      45.910   4.673  13.354  0.00  0.00    +0.000 A 
ATOM      4  C   UNL     1      45.408   5.083  12.124  0.00  0.00    +0.000 A 
ATOM      5  N   UNL     1      46.014   6.034  11.375  0.00  0.00    +0.000 NA
ATOM      6  C   UNL     1      47.116   6.624  11.884  0.00  0.00    +0.000 A 
ENDROOT
BRANCH   1   7
ATOM      7  C   UNL     1      48.936   6.959  13.585  0.00  0.00    +0.000 C 
BRANCH   7   9
ATOM      8  C   UNL     1      47.702   9.080  14.217  0.00  0.00    +0.000 C 
ATOM      9  N   UNL     1      48.782   8.127  14.456  0.00  0.00    +0.000 N 
ATOM     10  C   UNL     1      49.493   8.288  15.661  0.00  0.00    +0.000 C 
ATOM     11  O   UNL     1      49.212   9.187  16.450  0.00  0.00    +0.000 OA
BRANCH  10  12
ATOM     12  C   UNL     1      50.615   7.387  15.960  0.00  0.00    +0.000 A 
ATOM     13  C   UNL     1      51.942   7.663  15.670  0.00  0.00    +0.000 A 
ATOM     14  S   UNL     1      53.023   6.450  16.192  0.00  0.00    +0.000 S 
ATOM     15  C   UNL     1      51.770   5.592  16.959  0.00  0.00    +0.000 A 
ATOM     16  N   UNL     1      52.031   4.484  17.699  0.00  0.00    +0.000 NA
ATOM     17  C   UNL     1      50.995   3.980  18.283  0.00  0.00    +0.000 A 
ATOM     18  N   UNL     1      49.717   4.462  18.156  0.00  0.00    +0.000 N 
ATOM     19  C   UNL     1      49.386   5.488  17.300  0.00  0.00    +0.000 A 
ATOM     20  O   UNL     1      48.213   5.730  17.026  0.00  0.00    +0.000 OA
ATOM     21  C   UNL     1      50.534   6.169  16.730  0.00  0.00    +0.000 A 
ATOM     22  H   UNL     1      48.940   3.979  18.585  0.00  0.00    +0.000 HD
ENDBRANCH  10  12
ENDBRANCH   7   9
ENDBRANCH   1   7
BRANCH   4  23
ATOM     23  C   UNL     1      44.189   4.433  11.512  0.00  0.00    +0.000 C 
BRANCH  23  24
ATOM     24  C   UNL     1      44.535   3.291  10.536  0.00  0.00    +0.000 C 
BRANCH  24  25
ATOM     25  O   UNL     1      43.693   2.152  10.774  0.00  0.00    +0.000 OA
ATOM     26  H   UNL     1      43.504   2.113  11.732  0.00  0.00    +0.000 HD
ENDBRANCH  24  25
BRANCH  24  27
ATOM     27  C   UNL     1      44.451   3.728   9.068  0.00  0.00    +0.000 C 
BRANCH  27  28
ATOM     28  C   UNL     1      45.489   3.060   8.204  0.00  0.00    +0.000 A 
ATOM     29  C   UNL     1      45.892   1.755   8.486  0.00  0.00    +0.000 A 
ATOM     30  C   UNL     1      46.847   1.152   7.677  0.00  0.00    +0.000 A 
ATOM     31  C   UNL     1      47.382   1.872   6.616  0.00  0.00    +0.000 A 
ATOM     32  C   UNL     1      46.938   3.169   6.410  0.00  0.00    +0.000 A 
ATOM     33  N   UNL     1      45.999   3.775   7.170  0.00  0.00    +0.000 NA
ENDBRANCH  27  28
ENDBRANCH  24  27
ENDBRANCH  23  24
ENDBRANCH   4  23
TORSDOF 8
ENDMDL
MODEL 6
REMARK VINA RESULT:    -7.158      3.102      8.670
REMARK INTER + INTRA:         -11.843
REMARK INTER:                 -10.505
REMARK INTRA:                  -1.338
REMARK UNBOUND:                -1.547
REMARK  Name = 
REMARK  9 active torsions:
REMARK  status: ('A' for Active; 'I' for Inactive)
REMARK    1  A    between atoms: C_1  and  N_2
REMARK    2  A    between atoms: N_2  and  C_3
REMARK    3  A    between atoms: C_3  and  C_4
REMARK    4  A    between atoms: C_7  and  C_8
REMARK    5  A    between atoms: C_8  and  C_9
REMARK    6  A    between atoms: C_9  and  O_10
REMARK    7  A    between atoms: C_9  and  C_11
REMARK    8  A    between atoms: C_11  and  C_12
REMARK    9  A    between atoms: C_20  and  C_22
REMARK                            x       y       z     vdW  Elec       q    Type
REMARK                         _______ _______ _______ _____ _____    ______ ____
ROOT
ATOM      1  C   UNL     1      48.539   7.082  13.582  0.00  0.00    +0.000 A 
ATOM      2  C   UNL     1      48.518   7.734  12.351  0.00  0.00    +0.000 A 
ATOM      3  C   UNL     1      47.530   7.420  11.421  0.00  0.00    +0.000 A 
ATOM      4  C   UNL     1      46.574   6.466  11.753  0.00  0.00    +0.000 A 
ATOM      5  N   UNL     1      46.557   5.845  12.955  0.00  0.00    +0.000 NA
ATOM      6  C   UNL     1      47.543   6.143  13.828  0.00  0.00    +0.000 A 
ENDROOT
BRANCH   1   7
ATOM      7  C   UNL     1      49.582   7.382  14.618  0.00  0.00    +0.000 C 
BRANCH   7   9
ATOM      8  C   UNL     1      48.206   9.100  15.872  0.00  0.00    +0.000 C 
ATOM      9  N   UNL     1      49.138   7.976  15.881  0.00  0.00    +0.000 N 
ATOM     10  C   UNL     1      49.391   7.393  17.137  0.00  0.00    +0.000 C 
ATOM     11  O   UNL     1      48.855   7.820  18.157  0.00  0.00    +0.000 OA
BRANCH  10  12
ATOM     12  C   UNL     1      50.342   6.276  17.234  0.00  0.00    +0.000 A 
ATOM     13  C   UNL     1      51.696   6.418  17.493  0.00  0.00    +0.000 A 
ATOM     14  S   UNL     1      52.531   4.934  17.604  0.00  0.00    +0.000 S 
ATOM     15  C   UNL     1      51.083   4.051  17.464  0.00  0.00    +0.000 A 
ATOM     16  N   UNL     1      51.073   2.699  17.587  0.00  0.00    +0.000 NA
ATOM     17  C   UNL     1      49.896   2.170  17.534  0.00  0.00    +0.000 A 
ATOM     18  N   UNL     1      48.736   2.870  17.326  0.00  0.00    +0.000 N 
ATOM     19  C   UNL     1      48.714   4.219  17.049  0.00  0.00    +0.000 A 
ATOM     20  O   UNL     1      47.697   4.763  16.628  0.00  0.00    +0.000 OA
ATOM     21  C   UNL     1      49.997   4.875  17.233  0.00  0.00    +0.000 A 
ATOM     22  H   UNL     1      47.854   2.387  17.225  0.00  0.00    +0.000 HD
ENDBRANCH  10  12
ENDBRANCH   7   9
ENDBRANCH   1   7
BRANCH   4  23
ATOM     23  C   UNL     1      45.443   6.121  10.812  0.00  0.00    +0.000 C 
BRANCH  23  24
ATOM     24  C   UNL     1      45.022   4.639  10.887  0.00  0.00    +0.000 C 
BRANCH  24  25
ATOM     25  O   UNL     1      44.180   4.412  12.028  0.00  0.00    +0.000 OA
ATOM     26  H   UNL     1      44.483   3.593  12.467  0.00  0.00    +0.000 HD
ENDBRANCH  24  25
BRANCH  24  27
ATOM     27  C   UNL     1      44.333   4.161   9.602  0.00  0.00    +0.000 C 
BRANCH  27  28
ATOM     28  C   UNL     1      45.275   3.439   8.674  0.00  0.00    +0.000 A 
ATOM     29  C   UNL     1      45.507   2.074   8.845  0.00  0.00    +0.000 A 
ATOM     30  C   UNL     1      46.376   1.422   7.978  0.00  0.00    +0.000 A 
ATOM     31  C   UNL     1      46.997   2.152   6.972  0.00  0.00    +0.000 A 
ATOM     32  C   UNL     1      46.722   3.508   6.877  0.00  0.00    +0.000 A 
ATOM     33  N   UNL     1      45.871   4.164   7.695  0.00  0.00    +0.000 NA
ENDBRANCH  27  28
ENDBRANCH  24  27
ENDBRANCH  23  24
ENDBRANCH   4  23
TORSDOF 8
ENDMDL
MODEL 7
REMARK VINA RESULT:    -7.015      2.325      3.192
REMARK INTER + INTRA:         -11.638
REMARK INTER:                  -9.708
REMARK INTRA:                  -1.930
REMARK UNBOUND:                -1.547
REMARK  Name = 
REMARK  9 active torsions:
REMARK  status: ('A' for Active; 'I' for Inactive)
REMARK    1  A    between atoms: C_1  and  N_2
REMARK    2  A    between atoms: N_2  and  C_3
REMARK    3  A    between atoms: C_3  and  C_4
REMARK    4  A    between atoms: C_7  and  C_8
REMARK    5  A    between atoms: C_8  and  C_9
REMARK    6  A    between atoms: C_9  and  O_10
REMARK    7  A    between atoms: C_9  and  C_11
REMARK    8  A    between atoms: C_11  and  C_12
REMARK    9  A    between atoms: C_20  and  C_22
REMARK                            x       y       z     vdW  Elec       q    Type
REMARK                         _______ _______ _______ _____ _____    ______ ____
ROOT
ATOM      1  C   UNL     1      47.447   5.581  13.872  0.00  0.00    +0.000 A 
ATOM      2  C   UNL     1      46.858   4.432  14.395  0.00  0.00    +0.000 A 
ATOM      3  C   UNL     1      47.133   4.051  15.706  0.00  0.00    +0.000 A 
ATOM      4  C   UNL     1      47.984   4.842  16.471  0.00  0.00    +0.000 A 
ATOM      5  N   UNL     1      48.541   5.979  15.993  0.00  0.00    +0.000 NA
ATOM      6  C   UNL     1      48.284   6.310  14.709  0.00  0.00    +0.000 A 
ENDROOT
BRANCH   1   7
ATOM      7  C   UNL     1      47.186   6.034  12.466  0.00  0.00    +0.000 C 
BRANCH   7   9
ATOM      8  C   UNL     1      46.382   8.436  12.400  0.00  0.00    +0.000 C 
ATOM      9  N   UNL     1      46.113   7.009  12.252  0.00  0.00    +0.000 N 
ATOM     10  C   UNL     1      44.864   6.669  11.698  0.00  0.00    +0.000 C 
ATOM     11  O   UNL     1      44.057   7.536  11.370  0.00  0.00    +0.000 OA
BRANCH  10  12
ATOM     12  C   UNL     1      44.505   5.252  11.545  0.00  0.00    +0.000 A 
ATOM     13  C   UNL     1      43.741   4.533  12.451  0.00  0.00    +0.000 A 
ATOM     14  S   UNL     1      43.443   2.924  11.969  0.00  0.00    +0.000 S 
ATOM     15  C   UNL     1      44.192   3.182  10.464  0.00  0.00    +0.000 A 
ATOM     16  N   UNL     1      44.193   2.218   9.508  0.00  0.00    +0.000 NA
ATOM     17  C   UNL     1      44.732   2.578   8.391  0.00  0.00    +0.000 A 
ATOM     18  N   UNL     1      45.307   3.802   8.163  0.00  0.00    +0.000 N 
ATOM     19  C   UNL     1      45.460   4.753   9.147  0.00  0.00    +0.000 A 
ATOM     20  O   UNL     1      46.190   5.726   8.978  0.00  0.00    +0.000 OA
ATOM     21  C   UNL     1      44.751   4.443  10.375  0.00  0.00    +0.000 A 
ATOM     22  H   UNL     1      45.773   3.996   7.288  0.00  0.00    +0.000 HD
ENDBRANCH  10  12
ENDBRANCH   7   9
ENDBRANCH   1   7
BRANCH   4  23
ATOM     23  C   UNL     1      48.278   4.516  17.916  0.00  0.00    +0.000 C 
BRANCH  23  24
ATOM     24  C   UNL     1      49.732   4.058  18.152  0.00  0.00    +0.000 C 
BRANCH  24  25
ATOM     25  O   UNL     1      50.516   4.239  16.964  0.00  0.00    +0.000 OA
ATOM     26  H   UNL     1      50.023   3.850  16.216  0.00  0.00    +0.000 HD
ENDBRANCH  24  25
BRANCH  24  27
ATOM     27  C   UNL     1      50.384   4.771  19.344  0.00  0.00    +0.000 C 
BRANCH  27  28
ATOM     28  C   UNL     1      50.305   6.272  19.235  0.00  0.00    +0.000 A 
ATOM     29  C   UNL     1      49.519   6.993  20.133  0.00  0.00    +0.000 A 
ATOM     30  C   UNL     1      49.460   8.377  20.021  0.00  0.00    +0.000 A 
ATOM     31  C   UNL     1      50.180   9.002  19.011  0.00  0.00    +0.000 A 
ATOM     32  C   UNL     1      50.929   8.213  18.151  0.00  0.00    +0.000 A 
ATOM     33  N   UNL     1      51.016   6.867  18.245  0.00  0.00    +0.000 NA
ENDBRANCH  27  28
ENDBRANCH  24  27
ENDBRANCH  23  24
ENDBRANCH   4  23
TORSDOF 8
ENDMDL
MODEL 8
REMARK VINA RESULT:    -6.623      2.895      9.209
REMARK INTER + INTRA:         -11.075
REMARK INTER:                  -9.962
REMARK INTRA:                  -1.113
REMARK UNBOUND:                -1.547
REMARK  Name = 
REMARK  9 active torsions:
REMARK  status: ('A' for Active; 'I' for Inactive)
REMARK    1  A    between atoms: C_1  and  N_2
REMARK    2  A    between atoms: N_2  and  C_3
REMARK    3  A    between atoms: C_3  and  C_4
REMARK    4  A    between atoms: C_7  and  C_8
REMARK    5  A    between atoms: C_8  and  C_9
REMARK    6  A    between atoms: C_9  and  O_10
REMARK    7  A    between atoms: C_9  and  C_11
REMARK    8  A    between atoms: C_11  and  C_12
REMARK    9  A    between atoms: C_20  and  C_22
REMARK                            x       y       z     vdW  Elec       q    Type
REMARK                         _______ _______ _______ _____ _____    ______ ____
ROOT
ATOM      1  C   UNL     1      48.472   5.983  15.698  0.00  0.00    +0.000 A 
ATOM      2  C   UNL     1      47.782   4.773  15.708  0.00  0.00    +0.000 A 
ATOM      3  C   UNL     1      46.933   4.453  14.651  0.00  0.00    +0.000 A 
ATOM      4  C   UNL     1      46.805   5.352  13.597  0.00  0.00    +0.000 A 
ATOM      5  N   UNL     1      47.490   6.519  13.553  0.00  0.00    +0.000 NA
ATOM      6  C   UNL     1      48.283   6.820  14.603  0.00  0.00    +0.000 A 
ENDROOT
BRANCH   1   7
ATOM      7  C   UNL     1      49.398   6.375  16.812  0.00  0.00    +0.000 C 
BRANCH   7   9
ATOM      8  C   UNL     1      47.637   6.638  18.614  0.00  0.00    +0.000 C 
ATOM      9  N   UNL     1      48.944   6.149  18.186  0.00  0.00    +0.000 N 
ATOM     10  C   UNL     1      49.609   5.293  19.085  0.00  0.00    +0.000 C 
ATOM     11  O   UNL     1      49.106   4.990  20.165  0.00  0.00    +0.000 OA
BRANCH  10  12
ATOM     12  C   UNL     1      50.943   4.782  18.741  0.00  0.00    +0.000 A 
ATOM     13  C   UNL     1      52.132   5.430  19.038  0.00  0.00    +0.000 A 
ATOM     14  S   UNL     1      53.522   4.561  18.563  0.00  0.00    +0.000 S 
ATOM     15  C   UNL     1      52.584   3.223  18.087  0.00  0.00    +0.000 A 
ATOM     16  N   UNL     1      53.170   2.071  17.672  0.00  0.00    +0.000 NA
ATOM     17  C   UNL     1      52.339   1.116  17.414  0.00  0.00    +0.000 A 
ATOM     18  N   UNL     1      50.975   1.229  17.493  0.00  0.00    +0.000 N 
ATOM     19  C   UNL     1      50.335   2.418  17.764  0.00  0.00    +0.000 A 
ATOM     20  O   UNL     1      49.127   2.541  17.587  0.00  0.00    +0.000 OA
ATOM     21  C   UNL     1      51.230   3.479  18.192  0.00  0.00    +0.000 A 
ATOM     22  H   UNL     1      50.378   0.464  17.210  0.00  0.00    +0.000 HD
ENDBRANCH  10  12
ENDBRANCH   7   9
ENDBRANCH   1   7
BRANCH   4  23
ATOM     23  C   UNL     1      45.944   5.043  12.395  0.00  0.00    +0.000 C 
BRANCH  23  24
ATOM     24  C   UNL     1      44.446   5.316  12.634  0.00  0.00    +0.000 C 
BRANCH  24  25
ATOM     25  O   UNL     1      44.264   6.558  13.330  0.00  0.00    +0.000 OA
ATOM     26  H   UNL     1      44.649   6.462  14.223  0.00  0.00    +0.000 HD
ENDBRANCH  24  25
BRANCH  24  27
ATOM     27  C   UNL     1      43.634   5.302  11.332  0.00  0.00    +0.000 C 
BRANCH  27  28
ATOM     28  C   UNL     1      44.196   4.350  10.308  0.00  0.00    +0.000 A 
ATOM     29  C   UNL     1      44.991   4.836   9.271  0.00  0.00    +0.000 A 
ATOM     30  C   UNL     1      45.506   3.945   8.338  0.00  0.00    +0.000 A 
ATOM     31  C   UNL     1      45.204   2.594   8.460  0.00  0.00    +0.000 A 
ATOM     32  C   UNL     1      44.396   2.192   9.512  0.00  0.00    +0.000 A 
ATOM     33  N   UNL     1      43.895   3.034  10.443  0.00  0.00    +0.000 NA
ENDBRANCH  27  28
ENDBRANCH  24  27
ENDBRANCH  23  24
ENDBRANCH   4  23
TORSDOF 8
ENDMDL
MODEL 9
REMARK VINA RESULT:    -6.468      3.562      8.598
REMARK INTER + INTRA:         -10.851
REMARK INTER:                  -8.698
REMARK INTRA:                  -2.153
REMARK UNBOUND:                -1.547
REMARK  Name = 
REMARK  9 active torsions:
REMARK  status: ('A' for Active; 'I' for Inactive)
REMARK    1  A    between atoms: C_1  and  N_2
REMARK    2  A    between atoms: N_2  and  C_3
REMARK    3  A    between atoms: C_3  and  C_4
REMARK    4  A    between atoms: C_7  and  C_8
REMARK    5  A    between atoms: C_8  and  C_9
REMARK    6  A    between atoms: C_9  and  O_10
REMARK    7  A    between atoms: C_9  and  C_11
REMARK    8  A    between atoms: C_11  and  C_12
REMARK    9  A    between atoms: C_20  and  C_22
REMARK                            x       y       z     vdW  Elec       q    Type
REMARK                         _______ _______ _______ _____ _____    ______ ____
ROOT
ATOM      1  C   UNL     1      50.004   7.875  16.573  0.00  0.00    +0.000 A 
ATOM      2  C   UNL     1      48.869   8.676  16.469  0.00  0.00    +0.000 A 
ATOM      3  C   UNL     1      48.026   8.539  15.369  0.00  0.00    +0.000 A 
ATOM      4  C   UNL     1      48.335   7.590  14.400  0.00  0.00    +0.000 A 
ATOM      5  N   UNL     1      49.416   6.780  14.498  0.00  0.00    +0.000 NA
ATOM      6  C   UNL     1      50.233   6.952  15.559  0.00  0.00    +0.000 A 
ENDROOT
BRANCH   1   7
ATOM      7  C   UNL     1      50.944   7.983  17.737  0.00  0.00    +0.000 C 
BRANCH   7   9
ATOM      8  C   UNL     1      49.921   8.862  19.882  0.00  0.00    +0.000 C 
ATOM      9  N   UNL     1      50.401   7.743  19.077  0.00  0.00    +0.000 N 
ATOM     10  C   UNL     1      50.114   6.456  19.572  0.00  0.00    +0.000 C 
ATOM     11  O   UNL     1      49.498   6.302  20.624  0.00  0.00    +0.000 OA
BRANCH  10  12
ATOM     12  C   UNL     1      50.590   5.278  18.834  0.00  0.00    +0.000 A 
ATOM     13  C   UNL     1      51.855   4.726  18.969  0.00  0.00    +0.000 A 
ATOM     14  S   UNL     1      52.094   3.325  18.024  0.00  0.00    +0.000 S 
ATOM     15  C   UNL     1      50.468   3.323  17.525  0.00  0.00    +0.000 A 
ATOM     16  N   UNL     1      49.970   2.311  16.768  0.00  0.00    +0.000 NA
ATOM     17  C   UNL     1      48.705   2.402  16.527  0.00  0.00    +0.000 A 
ATOM     18  N   UNL     1      47.906   3.437  16.940  0.00  0.00    +0.000 N 
ATOM     19  C   UNL     1      48.396   4.553  17.580  0.00  0.00    +0.000 A 
ATOM     20  O   UNL     1      47.706   5.560  17.715  0.00  0.00    +0.000 OA
ATOM     21  C   UNL     1      49.784   4.430  17.989  0.00  0.00    +0.000 A 
ATOM     22  H   UNL     1      46.936   3.482  16.658  0.00  0.00    +0.000 HD
ENDBRANCH  10  12
ENDBRANCH   7   9
ENDBRANCH   1   7
BRANCH   4  23
ATOM     23  C   UNL     1      47.434   7.353  13.211  0.00  0.00    +0.000 C 
BRANCH  23  24
ATOM     24  C   UNL     1      46.704   5.996  13.263  0.00  0.00    +0.000 C 
BRANCH  24  25
ATOM     25  O   UNL     1      46.803   5.420  14.574  0.00  0.00    +0.000 OA
ATOM     26  H   UNL     1      46.565   4.475  14.507  0.00  0.00    +0.000 HD
ENDBRANCH  24  25
BRANCH  24  27
ATOM     27  C   UNL     1      45.236   6.104  12.830  0.00  0.00    +0.000 C 
BRANCH  27  28
ATOM     28  C   UNL     1      44.822   4.989  11.904  0.00  0.00    +0.000 A 
ATOM     29  C   UNL     1      44.040   3.940  12.387  0.00  0.00    +0.000 A 
ATOM     30  C   UNL     1      43.663   2.922  11.520  0.00  0.00    +0.000 A 
ATOM     31  C   UNL     1      44.086   2.973  10.198  0.00  0.00    +0.000 A 
ATOM     32  C   UNL     1      44.871   4.044   9.798  0.00  0.00    +0.000 A 
ATOM     33  N   UNL     1      45.239   5.055  10.615  0.00  0.00    +0.000 NA
ENDBRANCH  27  28
ENDBRANCH  24  27
ENDBRANCH  23  24
ENDBRANCH   4  23
TORSDOF 8
ENDMDL
