MODEL 1
REMARK VINA RESULT:    -8.782      0.000      0.000
REMARK INTER + INTRA:         -13.399
REMARK INTER:                 -12.376
REMARK INTRA:                  -1.023
REMARK UNBOUND:                -1.023
REMARK  Name = 
REMARK  8 active torsions:
REMARK  status: ('A' for Active; 'I' for Inactive)
REMARK    1  A    between atoms: C_1  and  C_2
REMARK    2  A    between atoms: C_2  and  N_3
REMARK    3  A    between atoms: C_2  and  C_26
REMARK    4  A    between atoms: N_3  and  C_4
REMARK    5  A    between atoms: C_4  and  C_5
REMARK    6  A    between atoms: C_10  and  C_11
REMARK    7  A    between atoms: C_11  and  N_12
REMARK    8  A    between atoms: C_13  and  C_15
REMARK                            x       y       z     vdW  Elec       q    Type
REMARK                         _______ _______ _______ _____ _____    ______ ____
ROOT
ATOM      1  C   UNL     1      44.938   5.444  11.254  0.00  0.00    +0.000 A 
ATOM      2  C   UNL     1      45.896   6.435  11.013  0.00  0.00    +0.000 A 
ATOM      3  C   UNL     1      46.921   6.640  11.931  0.00  0.00    +0.000 A 
ATOM      4  F   UNL     1      47.845   7.578  11.684  0.00  0.00    +0.000 F 
ATOM      5  C   UNL     1      47.025   5.868  13.084  0.00  0.00    +0.000 A 
ATOM      6  C   UNL     1      46.085   4.866  13.343  0.00  0.00    +0.000 A 
ATOM      7  C   UNL     1      45.030   4.682  12.435  0.00  0.00    +0.000 A 
ENDROOT
BRANCH   1   8
ATOM      8  C   UNL     1      43.852   5.143  10.247  0.00  0.00    +0.000 C 
BRANCH   8   9
ATOM      9  N   UNL     1      44.382   4.411   9.107  0.00  0.00    +0.000 NA
ATOM     10  H   UNL     1      45.043   5.006   8.606  0.00  0.00    +0.000 HD
BRANCH   9  12
ATOM     11  C   UNL     1      44.149   2.039   9.931  0.00  0.00    +0.000 C 
ATOM     12  C   UNL     1      45.084   3.164   9.466  0.00  0.00    +0.000 C 
BRANCH  12  13
ATOM     13  C   UNL     1      45.914   2.694   8.272  0.00  0.00    +0.000 A 
ATOM     14  C   UNL     1      46.237   3.583   7.244  0.00  0.00    +0.000 A 
ATOM     15  C   UNL     1      47.039   3.145   6.197  0.00  0.00    +0.000 A 
ATOM     16  C   UNL     1      47.507   1.838   6.203  0.00  0.00    +0.000 A 
ATOM     17  C   UNL     1      47.150   1.019   7.262  0.00  0.00    +0.000 A 
ATOM     18  N   UNL     1      46.365   1.413   8.291  0.00  0.00    +0.000 NA
ENDBRANCH  12  13
ENDBRANCH   9  12
ENDBRANCH   8   9
ENDBRANCH   1   8
BRANCH   6  19
ATOM     19  C   UNL     1      46.212   3.989  14.558  0.00  0.00    +0.000 C 
BRANCH  19  20
ATOM     20  N   UNL     1      47.262   4.427  15.439  0.00  0.00    +0.000 N 
ATOM     21  C   UNL     1      47.338   4.016  16.743  0.00  0.00    +0.000 C 
ATOM     22  O   UNL     1      46.503   3.267  17.249  0.00  0.00    +0.000 OA
ATOM     23  H   UNL     1      47.823   5.216  15.133  0.00  0.00    +0.000 HD
BRANCH  21  24
ATOM     24  C   UNL     1      48.520   4.451  17.496  0.00  0.00    +0.000 A 
ATOM     25  C   UNL     1      48.484   5.645  18.203  0.00  0.00    +0.000 A 
ATOM     26  S   UNL     1      49.938   5.999  19.021  0.00  0.00    +0.000 S 
ATOM     27  C   UNL     1      50.677   4.583  18.433  0.00  0.00    +0.000 A 
ATOM     28  N   UNL     1      51.970   4.293  18.730  0.00  0.00    +0.000 NA
ATOM     29  C   UNL     1      52.414   3.208  18.190  0.00  0.00    +0.000 A 
ATOM     30  N   UNL     1      51.671   2.373  17.392  0.00  0.00    +0.000 N 
ATOM     31  C   UNL     1      50.340   2.592  17.119  0.00  0.00    +0.000 A 
ATOM     32  O   UNL     1      49.675   1.765  16.505  0.00  0.00    +0.000 OA
ATOM     33  C   UNL     1      49.813   3.830  17.657  0.00  0.00    +0.000 A 
ATOM     34  H   UNL     1      52.067   1.521  17.026  0.00  0.00    +0.000 HD
ENDBRANCH  21  24
ENDBRANCH  19  20
ENDBRANCH   6  19
TORSDOF 7
ENDMDL
MODEL 2
REMARK VINA RESULT:    -7.855      3.853      9.352
REMARK INTER + INTRA:         -12.093
REMARK INTER:                 -10.512
REMARK INTRA:                  -1.580
REMARK UNBOUND:                -1.023
REMARK  Name = 
REMARK  8 active torsions:
REMARK  status: ('A' for Active; 'I' for Inactive)
REMARK    1  A    between atoms: C_1  and  C_2
REMARK    2  A    between atoms: C_2  and  N_3
REMARK    3  A    between atoms: C_2  and  C_26
REMARK    4  A    between atoms: N_3  and  C_4
REMARK    5  A    between atoms: C_4  and  C_5
REMARK    6  A    between atoms: C_10  and  C_11
REMARK    7  A    between atoms: C_11  and  N_12
REMARK    8  A    between atoms: C_13  and  C_15
REMARK                            x       y       z     vdW  Elec       q    Type
REMARK                         _______ _______ _______ _____ _____    ______ ____
ROOT
ATOM      1  C   UNL     1      49.167   4.968  18.783  0.00  0.00    +0.000 A 
ATOM      2  C   UNL     1      48.408   3.793  18.828  0.00  0.00    +0.000 A 
ATOM      3  C   UNL     1      47.629   3.433  17.734  0.00  0.00    +0.000 A 
ATOM      4  F   UNL     1      46.921   2.297  17.777  0.00  0.00    +0.000 F 
ATOM      5  C   UNL     1      47.597   4.212  16.581  0.00  0.00    +0.000 A 
ATOM      6  C   UNL     1      48.353   5.386  16.508  0.00  0.00    +0.000 A 
ATOM      7  C   UNL     1      49.112   5.768  17.626  0.00  0.00    +0.000 A 
ENDROOT
BRANCH   1   8
ATOM      8  C   UNL     1      50.081   5.355  19.923  0.00  0.00    +0.000 C 
BRANCH   8   9
ATOM      9  N   UNL     1      51.171   4.404  20.067  0.00  0.00    +0.000 NA
ATOM     10  H   UNL     1      50.791   3.456  20.067  0.00  0.00    +0.000 HD
BRANCH   9  12
ATOM     11  C   UNL     1      53.461   5.229  19.404  0.00  0.00    +0.000 C 
ATOM     12  C   UNL     1      52.183   4.482  18.996  0.00  0.00    +0.000 C 
BRANCH  12  13
ATOM     13  C   UNL     1      52.530   3.068  18.530  0.00  0.00    +0.000 A 
ATOM     14  C   UNL     1      51.621   2.335  17.764  0.00  0.00    +0.000 A 
ATOM     15  C   UNL     1      51.982   1.073  17.306  0.00  0.00    +0.000 A 
ATOM     16  C   UNL     1      53.241   0.577  17.614  0.00  0.00    +0.000 A 
ATOM     17  C   UNL     1      54.090   1.367  18.372  0.00  0.00    +0.000 A 
ATOM     18  N   UNL     1      53.765   2.594  18.838  0.00  0.00    +0.000 NA
ENDBRANCH  12  13
ENDBRANCH   9  12
ENDBRANCH   8   9
ENDBRANCH   1   8
BRANCH   6  19
ATOM     19  C   UNL     1      48.371   6.212  15.251  0.00  0.00    +0.000 C 
BRANCH  19  20
ATOM     20  N   UNL     1      47.158   6.071  14.490  0.00  0.00    +0.000 N 
ATOM     21  C   UNL     1      47.117   6.285  13.138  0.00  0.00    +0.000 C 
ATOM     22  O   UNL     1      48.106   6.634  12.495  0.00  0.00    +0.000 OA
ATOM     23  H   UNL     1      46.288   6.017  15.011  0.00  0.00    +0.000 HD
BRANCH  21  24
ATOM     24  C   UNL     1      45.843   5.998  12.470  0.00  0.00    +0.000 A 
ATOM     25  C   UNL     1      45.130   7.030  11.875  0.00  0.00    +0.000 A 
ATOM     26  S   UNL     1      43.675   6.524  11.145  0.00  0.00    +0.000 S 
ATOM     27  C   UNL     1      43.931   4.911  11.625  0.00  0.00    +0.000 A 
ATOM     28  N   UNL     1      43.018   3.944  11.348  0.00  0.00    +0.000 NA
ATOM     29  C   UNL     1      43.323   2.775  11.801  0.00  0.00    +0.000 A 
ATOM     30  N   UNL     1      44.472   2.479  12.491  0.00  0.00    +0.000 N 
ATOM     31  C   UNL     1      45.454   3.412  12.737  0.00  0.00    +0.000 A 
ATOM     32  O   UNL     1      46.521   3.089  13.248  0.00  0.00    +0.000 OA
ATOM     33  C   UNL     1      45.131   4.754  12.297  0.00  0.00    +0.000 A 
ATOM     34  H   UNL     1      44.668   1.537  12.791  0.00  0.00    +0.000 HD
ENDBRANCH  21  24
ENDBRANCH  19  20
ENDBRANCH   6  19
TORSDOF 7
ENDMDL
MODEL 3
REMARK VINA RESULT:    -7.613      3.479      8.734
REMARK INTER + INTRA:         -11.751
REMARK INTER:                 -10.594
REMARK INTRA:                  -1.157
REMARK UNBOUND:                -1.023
REMARK  Name = 
REMARK  8 active torsions:
REMARK  status: ('A' for Active; 'I' for Inactive)
REMARK    1  A    between atoms: C_1  and  C_2
REMARK    2  A    between atoms: C_2  and  N_3
REMARK    3  A    between atoms: C_2  and  C_26
REMARK    4  A    between atoms: N_3  and  C_4
REMARK    5  A    between atoms: C_4  and  C_5
REMARK    6  A    between atoms: C_10  and  C_11
REMARK    7  A    between atoms: C_11  and  N_12
REMARK    8  A    between atoms: C_13  and  C_15
REMARK                            x       y       z     vdW  Elec       q    Type
REMARK                         _______ _______ _______ _____ _____    ______ ____
ROOT
ATOM      1  C   UNL     1      49.319   7.088  14.978  0.00  0.00    +0.000 A 
ATOM      2  C   UNL     1      50.525   7.748  14.716  0.00  0.00    +0.000 A 
ATOM      3  C   UNL     1      50.700   8.406  13.504  0.00  0.00    +0.000 A 
ATOM      4  F   UNL     1      51.850   9.052  13.267  0.00  0.00    +0.000 F 
ATOM      5  C   UNL     1      49.693   8.437  12.543  0.00  0.00    +0.000 A 
ATOM      6  C   UNL     1      48.476   7.792  12.785  0.00  0.00    +0.000 A 
ATOM      7  C   UNL     1      48.311   7.098  13.994  0.00  0.00    +0.000 A 
ENDROOT
BRANCH   1   8
ATOM      8  C   UNL     1      49.063   6.423  16.311  0.00  0.00    +0.000 C 
BRANCH   8   9
ATOM      9  N   UNL     1      48.685   5.029  16.137  0.00  0.00    +0.000 NA
ATOM     10  H   UNL     1      49.338   4.583  15.492  0.00  0.00    +0.000 HD
BRANCH   9  12
ATOM     11  C   UNL     1      47.511   3.264  17.504  0.00  0.00    +0.000 C 
ATOM     12  C   UNL     1      48.686   4.246  17.388  0.00  0.00    +0.000 C 
BRANCH  12  13
ATOM     13  C   UNL     1      50.011   3.493  17.508  0.00  0.00    +0.000 A 
ATOM     14  C   UNL     1      51.104   4.087  18.143  0.00  0.00    +0.000 A 
ATOM     15  C   UNL     1      52.280   3.362  18.288  0.00  0.00    +0.000 A 
ATOM     16  C   UNL     1      52.337   2.061  17.806  0.00  0.00    +0.000 A 
ATOM     17  C   UNL     1      51.208   1.539  17.195  0.00  0.00    +0.000 A 
ATOM     18  N   UNL     1      50.052   2.222  17.032  0.00  0.00    +0.000 NA
ENDBRANCH  12  13
ENDBRANCH   9  12
ENDBRANCH   8   9
ENDBRANCH   1   8
BRANCH   6  19
ATOM     19  C   UNL     1      47.358   7.859  11.781  0.00  0.00    +0.000 C 
BRANCH  19  20
ATOM     20  N   UNL     1      46.671   6.602  11.646  0.00  0.00    +0.000 N 
ATOM     21  C   UNL     1      45.305   6.518  11.614  0.00  0.00    +0.000 C 
ATOM     22  O   UNL     1      44.580   7.505  11.723  0.00  0.00    +0.000 OA
ATOM     23  H   UNL     1      47.219   5.758  11.790  0.00  0.00    +0.000 HD
BRANCH  21  24
ATOM     24  C   UNL     1      44.740   5.188  11.361  0.00  0.00    +0.000 A 
ATOM     25  C   UNL     1      43.929   4.591  12.318  0.00  0.00    +0.000 A 
ATOM     26  S   UNL     1      43.356   3.051  11.865  0.00  0.00    +0.000 S 
ATOM     27  C   UNL     1      44.196   3.114  10.386  0.00  0.00    +0.000 A 
ATOM     28  N   UNL     1      44.165   2.069   9.518  0.00  0.00    +0.000 NA
ATOM     29  C   UNL     1      44.875   2.237   8.453  0.00  0.00    +0.000 A 
ATOM     30  N   UNL     1      45.600   3.366   8.168  0.00  0.00    +0.000 N 
ATOM     31  C   UNL     1      45.608   4.474   8.986  0.00  0.00    +0.000 A 
ATOM     32  O   UNL     1      46.167   5.510   8.644  0.00  0.00    +0.000 OA
ATOM     33  C   UNL     1      44.871   4.310  10.223  0.00  0.00    +0.000 A 
ATOM     34  H   UNL     1      46.109   3.449   7.302  0.00  0.00    +0.000 HD
ENDBRANCH  21  24
ENDBRANCH  19  20
ENDBRANCH   6  19
TORSDOF 7
ENDMDL
MODEL 4
REMARK VINA RESULT:    -7.518      2.157      3.446
REMARK INTER + INTRA:         -11.618
REMARK INTER:                 -10.237
REMARK INTRA:                  -1.382
REMARK UNBOUND:                -1.023
REMARK  Name = 
REMARK  8 active torsions:
REMARK  status: ('A' for Active; 'I' for Inactive)
REMARK    1  A    between atoms: C_1  and  C_2
REMARK    2  A    between atoms: C_2  and  N_3
REMARK    3  A    between atoms: C_2  and  C_26
REMARK    4  A    between atoms: N_3  and  C_4
REMARK    5  A    between atoms: C_4  and  C_5
REMARK    6  A    between atoms: C_10  and  C_11
REMARK    7  A    between atoms: C_11  and  N_12
REMARK    8  A    between atoms: C_13  and  C_15
REMARK                            x       y       z     vdW  Elec       q    Type
REMARK                         _______ _______ _______ _____ _____    ______ ____
ROOT
ATOM      1  C   UNL     1      47.303   5.681  13.877  0.00  0.00    +0.000 A 
ATOM      2  C   UNL     1      47.544   6.109  12.566  0.00  0.00    +0.000 A 
ATOM      3  C   UNL     1      48.548   7.038  12.319  0.00  0.00    +0.000 A 
ATOM      4  F   UNL     1      48.785   7.429  11.059  0.00  0.00    +0.000 F 
ATOM      5  C   UNL     1      49.335   7.546  13.348  0.00  0.00    +0.000 A 
ATOM      6  C   UNL     1      49.120   7.127  14.665  0.00  0.00    +0.000 A 
ATOM      7  C   UNL     1      48.084   6.216  14.920  0.00  0.00    +0.000 A 
ENDROOT
BRANCH   1   8
ATOM      8  C   UNL     1      46.271   4.619  14.178  0.00  0.00    +0.000 C 
BRANCH   8   9
ATOM      9  N   UNL     1      46.085   3.731  13.042  0.00  0.00    +0.000 NA
ATOM     10  H   UNL     1      46.305   2.775  13.325  0.00  0.00    +0.000 HD
BRANCH   9  12
ATOM     11  C   UNL     1      43.874   4.940  12.932  0.00  0.00    +0.000 C 
ATOM     12  C   UNL     1      44.715   3.732  12.495  0.00  0.00    +0.000 C 
BRANCH  12  13
ATOM     13  C   UNL     1      44.783   3.667  10.969  0.00  0.00    +0.000 A 
ATOM     14  C   UNL     1      45.261   4.757  10.238  0.00  0.00    +0.000 A 
ATOM     15  C   UNL     1      45.365   4.653   8.856  0.00  0.00    +0.000 A 
ATOM     16  C   UNL     1      44.999   3.465   8.237  0.00  0.00    +0.000 A 
ATOM     17  C   UNL     1      44.541   2.427   9.031  0.00  0.00    +0.000 A 
ATOM     18  N   UNL     1      44.422   2.499  10.377  0.00  0.00    +0.000 NA
ENDBRANCH  12  13
ENDBRANCH   9  12
ENDBRANCH   8   9
ENDBRANCH   1   8
BRANCH   6  19
ATOM     19  C   UNL     1      49.995   7.626  15.782  0.00  0.00    +0.000 C 
BRANCH  19  20
ATOM     20  N   UNL     1      50.883   6.607  16.275  0.00  0.00    +0.000 N 
ATOM     21  C   UNL     1      50.809   6.134  17.558  0.00  0.00    +0.000 C 
ATOM     22  O   UNL     1      49.996   6.565  18.375  0.00  0.00    +0.000 OA
ATOM     23  H   UNL     1      51.705   6.400  15.716  0.00  0.00    +0.000 HD
BRANCH  21  24
ATOM     24  C   UNL     1      51.701   5.018  17.894  0.00  0.00    +0.000 A 
ATOM     25  C   UNL     1      52.943   5.277  18.458  0.00  0.00    +0.000 A 
ATOM     26  S   UNL     1      53.850   3.871  18.787  0.00  0.00    +0.000 S 
ATOM     27  C   UNL     1      52.627   2.869  18.158  0.00  0.00    +0.000 A 
ATOM     28  N   UNL     1      52.786   1.521  18.101  0.00  0.00    +0.000 NA
ATOM     29  C   UNL     1      51.796   0.886  17.569  0.00  0.00    +0.000 A 
ATOM     30  N   UNL     1      50.648   1.479  17.105  0.00  0.00    +0.000 N 
ATOM     31  C   UNL     1      50.415   2.832  17.203  0.00  0.00    +0.000 A 
ATOM     32  O   UNL     1      49.332   3.313  16.891  0.00  0.00    +0.000 OA
ATOM     33  C   UNL     1      51.524   3.594  17.741  0.00  0.00    +0.000 A 
ATOM     34  H   UNL     1      49.895   0.924  16.729  0.00  0.00    +0.000 HD
ENDBRANCH  21  24
ENDBRANCH  19  20
ENDBRANCH   6  19
TORSDOF 7
ENDMDL
MODEL 5
REMARK VINA RESULT:    -7.518      3.847      9.759
REMARK INTER + INTRA:         -11.618
REMARK INTER:                  -9.850
REMARK INTRA:                  -1.768
REMARK UNBOUND:                -1.023
REMARK  Name = 
REMARK  8 active torsions:
REMARK  status: ('A' for Active; 'I' for Inactive)
REMARK    1  A    between atoms: C_1  and  C_2
REMARK    2  A    between atoms: C_2  and  N_3
REMARK    3  A    between atoms: C_2  and  C_26
REMARK    4  A    between atoms: N_3  and  C_4
REMARK    5  A    between atoms: C_4  and  C_5
REMARK    6  A    between atoms: C_10  and  C_11
REMARK    7  A    between atoms: C_11  and  N_12
REMARK    8  A    between atoms: C_13  and  C_15
REMARK                            x       y       z     vdW  Elec       q    Type
REMARK                         _______ _______ _______ _____ _____    ______ ____
ROOT
ATOM      1  C   UNL     1      50.039   4.108  17.712  0.00  0.00    +0.000 A 
ATOM      2  C   UNL     1      49.002   3.217  18.007  0.00  0.00    +0.000 A 
ATOM      3  C   UNL     1      47.758   3.386  17.410  0.00  0.00    +0.000 A 
ATOM      4  F   UNL     1      46.775   2.517  17.682  0.00  0.00    +0.000 F 
ATOM      5  C   UNL     1      47.521   4.421  16.509  0.00  0.00    +0.000 A 
ATOM      6  C   UNL     1      48.544   5.320  16.191  0.00  0.00    +0.000 A 
ATOM      7  C   UNL     1      49.790   5.170  16.820  0.00  0.00    +0.000 A 
ENDROOT
BRANCH   1   8
ATOM      8  C   UNL     1      51.425   3.916  18.283  0.00  0.00    +0.000 C 
BRANCH   8   9
ATOM      9  N   UNL     1      51.419   4.057  19.731  0.00  0.00    +0.000 NA
ATOM     10  H   UNL     1      52.213   3.546  20.121  0.00  0.00    +0.000 HD
BRANCH   9  12
ATOM     11  C   UNL     1      52.311   6.370  19.262  0.00  0.00    +0.000 C 
ATOM     12  C   UNL     1      51.512   5.453  20.200  0.00  0.00    +0.000 C 
BRANCH  12  13
ATOM     13  C   UNL     1      50.102   6.010  20.399  0.00  0.00    +0.000 A 
ATOM     14  C   UNL     1      49.766   7.271  19.900  0.00  0.00    +0.000 A 
ATOM     15  C   UNL     1      48.463   7.732  20.046  0.00  0.00    +0.000 A 
ATOM     16  C   UNL     1      47.526   6.925  20.676  0.00  0.00    +0.000 A 
ATOM     17  C   UNL     1      47.935   5.684  21.137  0.00  0.00    +0.000 A 
ATOM     18  N   UNL     1      49.196   5.210  21.017  0.00  0.00    +0.000 NA
ENDBRANCH  12  13
ENDBRANCH   9  12
ENDBRANCH   8   9
ENDBRANCH   1   8
BRANCH   6  19
ATOM     19  C   UNL     1      48.321   6.411  15.181  0.00  0.00    +0.000 C 
BRANCH  19  20
ATOM     20  N   UNL     1      47.115   6.212  14.421  0.00  0.00    +0.000 N 
ATOM     21  C   UNL     1      47.067   6.408  13.067  0.00  0.00    +0.000 C 
ATOM     22  O   UNL     1      48.041   6.789  12.419  0.00  0.00    +0.000 OA
ATOM     23  H   UNL     1      46.248   6.130  14.943  0.00  0.00    +0.000 HD
BRANCH  21  24
ATOM     24  C   UNL     1      45.805   6.062  12.403  0.00  0.00    +0.000 A 
ATOM     25  C   UNL     1      45.064   7.054  11.773  0.00  0.00    +0.000 A 
ATOM     26  S   UNL     1      43.629   6.482  11.053  0.00  0.00    +0.000 S 
ATOM     27  C   UNL     1      43.932   4.893  11.582  0.00  0.00    +0.000 A 
ATOM     28  N   UNL     1      43.050   3.891  11.331  0.00  0.00    +0.000 NA
ATOM     29  C   UNL     1      43.387   2.745  11.821  0.00  0.00    +0.000 A 
ATOM     30  N   UNL     1      44.541   2.506  12.525  0.00  0.00    +0.000 N 
ATOM     31  C   UNL     1      45.494   3.475  12.746  0.00  0.00    +0.000 A 
ATOM     32  O   UNL     1      46.566   3.201  13.271  0.00  0.00    +0.000 OA
ATOM     33  C   UNL     1      45.132   4.793  12.264  0.00  0.00    +0.000 A 
ATOM     34  H   UNL     1      44.763   1.580  12.854  0.00  0.00    +0.000 HD
ENDBRANCH  21  24
ENDBRANCH  19  20
ENDBRANCH   6  19
TORSDOF 7
ENDMDL
MODEL 6
REMARK VINA RESULT:    -7.231      3.622      8.646
REMARK INTER + INTRA:         -11.213
REMARK INTER:                  -9.760
REMARK INTRA:                  -1.453
REMARK UNBOUND:                -1.023
REMARK  Name = 
REMARK  8 active torsions:
REMARK  status: ('A' for Active; 'I' for Inactive)
REMARK    1  A    between atoms: C_1  and  C_2
REMARK    2  A    between atoms: C_2  and  N_3
REMARK    3  A    between atoms: C_2  and  C_26
REMARK    4  A    between atoms: N_3  and  C_4
REMARK    5  A    between atoms: C_4  and  C_5
REMARK    6  A    between atoms: C_10  and  C_11
REMARK    7  A    between atoms: C_11  and  N_12
REMARK    8  A    between atoms: C_13  and  C_15
REMARK                            x       y       z     vdW  Elec       q    Type
REMARK                         _______ _______ _______ _____ _____    ______ ____
ROOT
ATOM      1  C   UNL     1      49.772   8.277  14.512  0.00  0.00    +0.000 A 
ATOM      2  C   UNL     1      50.552   8.171  13.355  0.00  0.00    +0.000 A 
ATOM      3  C   UNL     1      49.935   7.980  12.124  0.00  0.00    +0.000 A 
ATOM      4  F   UNL     1      50.687   7.899  11.018  0.00  0.00    +0.000 F 
ATOM      5  C   UNL     1      48.550   7.903  12.011  0.00  0.00    +0.000 A 
ATOM      6  C   UNL     1      47.748   8.015  13.152  0.00  0.00    +0.000 A 
ATOM      7  C   UNL     1      48.372   8.173  14.400  0.00  0.00    +0.000 A 
ENDROOT
BRANCH   1   8
ATOM      8  C   UNL     1      50.400   8.557  15.858  0.00  0.00    +0.000 C 
BRANCH   8   9
ATOM      9  N   UNL     1      50.041   7.534  16.827  0.00  0.00    +0.000 NA
ATOM     10  H   UNL     1      49.029   7.399  16.813  0.00  0.00    +0.000 HD
BRANCH   9  12
ATOM     11  C   UNL     1      51.944   5.980  17.401  0.00  0.00    +0.000 C 
ATOM     12  C   UNL     1      50.670   6.222  16.578  0.00  0.00    +0.000 C 
BRANCH  12  13
ATOM     13  C   UNL     1      49.651   5.116  16.853  0.00  0.00    +0.000 A 
ATOM     14  C   UNL     1      48.295   5.328  16.598  0.00  0.00    +0.000 A 
ATOM     15  C   UNL     1      47.395   4.289  16.805  0.00  0.00    +0.000 A 
ATOM     16  C   UNL     1      47.869   3.063  17.252  0.00  0.00    +0.000 A 
ATOM     17  C   UNL     1      49.230   2.928  17.474  0.00  0.00    +0.000 A 
ATOM     18  N   UNL     1      50.128   3.922  17.290  0.00  0.00    +0.000 NA
ENDBRANCH  12  13
ENDBRANCH   9  12
ENDBRANCH   8   9
ENDBRANCH   1   8
BRANCH   6  19
ATOM     19  C   UNL     1      46.249   7.987  13.043  0.00  0.00    +0.000 C 
BRANCH  19  20
ATOM     20  N   UNL     1      45.751   6.680  12.700  0.00  0.00    +0.000 N 
ATOM     21  C   UNL     1      44.790   6.494  11.744  0.00  0.00    +0.000 C 
ATOM     22  O   UNL     1      44.274   7.430  11.135  0.00  0.00    +0.000 OA
ATOM     23  H   UNL     1      45.976   5.920  13.335  0.00  0.00    +0.000 HD
BRANCH  21  24
ATOM     24  C   UNL     1      44.456   5.103  11.417  0.00  0.00    +0.000 A 
ATOM     25  C   UNL     1      43.671   4.361  12.290  0.00  0.00    +0.000 A 
ATOM     26  S   UNL     1      43.378   2.768  11.759  0.00  0.00    +0.000 S 
ATOM     27  C   UNL     1      44.315   3.004  10.358  0.00  0.00    +0.000 A 
ATOM     28  N   UNL     1      44.513   1.996   9.469  0.00  0.00    +0.000 NA
ATOM     29  C   UNL     1      45.272   2.303   8.471  0.00  0.00    +0.000 A 
ATOM     30  N   UNL     1      45.837   3.537   8.271  0.00  0.00    +0.000 N 
ATOM     31  C   UNL     1      45.611   4.606   9.109  0.00  0.00    +0.000 A 
ATOM     32  O   UNL     1      46.030   5.724   8.837  0.00  0.00    +0.000 OA
ATOM     33  C   UNL     1      44.810   4.293  10.276  0.00  0.00    +0.000 A 
ATOM     34  H   UNL     1      46.395   3.724   7.453  0.00  0.00    +0.000 HD
ENDBRANCH  21  24
ENDBRANCH  19  20
ENDBRANCH   6  19
TORSDOF 7
ENDMDL
MODEL 7
REMARK VINA RESULT:    -7.120      3.703      5.829
REMARK INTER + INTRA:         -11.057
REMARK INTER:                  -8.870
REMARK INTRA:                  -2.187
REMARK UNBOUND:                -1.023
REMARK  Name = 
REMARK  8 active torsions:
REMARK  status: ('A' for Active; 'I' for Inactive)
REMARK    1  A    between atoms: C_1  and  C_2
REMARK    2  A    between atoms: C_2  and  N_3
REMARK    3  A    between atoms: C_2  and  C_26
REMARK    4  A    between atoms: N_3  and  C_4
REMARK    5  A    between atoms: C_4  and  C_5
REMARK    6  A    between atoms: C_10  and  C_11
REMARK    7  A    between atoms: C_11  and  N_12
REMARK    8  A    between atoms: C_13  and  C_15
REMARK                            x       y       z     vdW  Elec       q    Type
REMARK                         _______ _______ _______ _____ _____    ______ ____
ROOT
ATOM      1  C   UNL     1      47.519   6.775  12.162  0.00  0.00    +0.000 A 
ATOM      2  C   UNL     1      46.227   7.128  11.757  0.00  0.00    +0.000 A 
ATOM      3  C   UNL     1      45.133   6.438  12.267  0.00  0.00    +0.000 A 
ATOM      4  F   UNL     1      43.897   6.795  11.889  0.00  0.00    +0.000 F 
ATOM      5  C   UNL     1      45.292   5.406  13.187  0.00  0.00    +0.000 A 
ATOM      6  C   UNL     1      46.572   5.040  13.614  0.00  0.00    +0.000 A 
ATOM      7  C   UNL     1      47.679   5.713  13.073  0.00  0.00    +0.000 A 
ENDROOT
BRANCH   1   8
ATOM      8  C   UNL     1      48.729   7.547  11.687  0.00  0.00    +0.000 C 
BRANCH   8   9
ATOM      9  N   UNL     1      49.874   7.312  12.552  0.00  0.00    +0.000 NA
ATOM     10  H   UNL     1      50.653   6.967  11.990  0.00  0.00    +0.000 HD
BRANCH   9  12
ATOM     11  C   UNL     1      49.929   9.833  12.607  0.00  0.00    +0.000 C 
ATOM     12  C   UNL     1      50.339   8.512  13.273  0.00  0.00    +0.000 C 
BRANCH  12  13
ATOM     13  C   UNL     1      49.819   8.468  14.710  0.00  0.00    +0.000 A 
ATOM     14  C   UNL     1      48.723   9.247  15.087  0.00  0.00    +0.000 A 
ATOM     15  C   UNL     1      48.235   9.148  16.385  0.00  0.00    +0.000 A 
ATOM     16  C   UNL     1      48.844   8.270  17.271  0.00  0.00    +0.000 A 
ATOM     17  C   UNL     1      49.921   7.525  16.820  0.00  0.00    +0.000 A 
ATOM     18  N   UNL     1      50.424   7.605  15.567  0.00  0.00    +0.000 NA
ENDBRANCH  12  13
ENDBRANCH   9  12
ENDBRANCH   8   9
ENDBRANCH   1   8
BRANCH   6  19
ATOM     19  C   UNL     1      46.759   3.963  14.646  0.00  0.00    +0.000 C 
BRANCH  19  20
ATOM     20  N   UNL     1      47.543   4.411  15.766  0.00  0.00    +0.000 N 
ATOM     21  C   UNL     1      47.347   3.929  17.033  0.00  0.00    +0.000 C 
ATOM     22  O   UNL     1      46.475   3.103  17.297  0.00  0.00    +0.000 OA
ATOM     23  H   UNL     1      48.101   5.250  15.634  0.00  0.00    +0.000 HD
BRANCH  21  24
ATOM     24  C   UNL     1      48.289   4.390  18.059  0.00  0.00    +0.000 A 
ATOM     25  C   UNL     1      47.854   5.254  19.055  0.00  0.00    +0.000 A 
ATOM     26  S   UNL     1      49.073   5.688  20.164  0.00  0.00    +0.000 S 
ATOM     27  C   UNL     1      50.234   4.762  19.334  0.00  0.00    +0.000 A 
ATOM     28  N   UNL     1      51.529   4.730  19.745  0.00  0.00    +0.000 NA
ATOM     29  C   UNL     1      52.308   4.016  19.004  0.00  0.00    +0.000 A 
ATOM     30  N   UNL     1      51.905   3.314  17.896  0.00  0.00    +0.000 N 
ATOM     31  C   UNL     1      50.593   3.264  17.482  0.00  0.00    +0.000 A 
ATOM     32  O   UNL     1      50.246   2.531  16.562  0.00  0.00    +0.000 OA
ATOM     33  C   UNL     1      49.690   4.097  18.249  0.00  0.00    +0.000 A 
ATOM     34  H   UNL     1      52.557   2.748  17.376  0.00  0.00    +0.000 HD
ENDBRANCH  21  24
ENDBRANCH  19  20
ENDBRANCH   6  19
TORSDOF 7
ENDMDL
MODEL 8
REMARK VINA RESULT:    -7.115      3.517      8.731
REMARK INTER + INTRA:         -11.049
REMARK INTER:                  -9.398
REMARK INTRA:                  -1.652
REMARK UNBOUND:                -1.023
REMARK  Name = 
REMARK  8 active torsions:
REMARK  status: ('A' for Active; 'I' for Inactive)
REMARK    1  A    between atoms: C_1  and  C_2
REMARK    2  A    between atoms: C_2  and  N_3
REMARK    3  A    between atoms: C_2  and  C_26
REMARK    4  A    between atoms: N_3  and  C_4
REMARK    5  A    between atoms: C_4  and  C_5
REMARK    6  A    between atoms: C_10  and  C_11
REMARK    7  A    between atoms: C_11  and  N_12
REMARK    8  A    between atoms: C_13  and  C_15
REMARK                            x       y       z     vdW  Elec       q    Type
REMARK                         _______ _______ _______ _____ _____    ______ ____
ROOT
ATOM      1  C   UNL     1      50.306   7.800  15.695  0.00  0.00    +0.000 A 
ATOM      2  C   UNL     1      49.461   8.567  16.506  0.00  0.00    +0.000 A 
ATOM      3  C   UNL     1      48.286   9.089  15.977  0.00  0.00    +0.000 A 
ATOM      4  F   UNL     1      47.473   9.806  16.764  0.00  0.00    +0.000 F 
ATOM      5  C   UNL     1      47.920   8.855  14.654  0.00  0.00    +0.000 A 
ATOM      6  C   UNL     1      48.743   8.084  13.826  0.00  0.00    +0.000 A 
ATOM      7  C   UNL     1      49.947   7.586  14.350  0.00  0.00    +0.000 A 
ENDROOT
BRANCH   1   8
ATOM      8  C   UNL     1      51.554   7.156  16.252  0.00  0.00    +0.000 C 
BRANCH   8   9
ATOM      9  N   UNL     1      51.454   5.705  16.221  0.00  0.00    +0.000 NA
ATOM     10  H   UNL     1      52.344   5.315  15.908  0.00  0.00    +0.000 HD
BRANCH   9  12
ATOM     11  C   UNL     1      51.215   6.077  18.704  0.00  0.00    +0.000 C 
ATOM     12  C   UNL     1      51.132   5.096  17.525  0.00  0.00    +0.000 C 
BRANCH  12  13
ATOM     13  C   UNL     1      49.736   4.477  17.459  0.00  0.00    +0.000 A 
ATOM     14  C   UNL     1      48.619   5.209  17.869  0.00  0.00    +0.000 A 
ATOM     15  C   UNL     1      47.356   4.644  17.748  0.00  0.00    +0.000 A 
ATOM     16  C   UNL     1      47.234   3.368  17.213  0.00  0.00    +0.000 A 
ATOM     17  C   UNL     1      48.387   2.708  16.822  0.00  0.00    +0.000 A 
ATOM     18  N   UNL     1      49.631   3.229  16.934  0.00  0.00    +0.000 NA
ENDBRANCH  12  13
ENDBRANCH   9  12
ENDBRANCH   8   9
ENDBRANCH   1   8
BRANCH   6  19
ATOM     19  C   UNL     1      48.338   7.777  12.411  0.00  0.00    +0.000 C 
BRANCH  19  20
ATOM     20  N   UNL     1      47.406   6.684  12.336  0.00  0.00    +0.000 N 
ATOM     21  C   UNL     1      46.056   6.885  12.218  0.00  0.00    +0.000 C 
ATOM     22  O   UNL     1      45.555   8.008  12.192  0.00  0.00    +0.000 OA
ATOM     23  H   UNL     1      47.752   5.763  12.589  0.00  0.00    +0.000 HD
BRANCH  21  24
ATOM     24  C   UNL     1      45.232   5.684  12.040  0.00  0.00    +0.000 A 
ATOM     25  C   UNL     1      44.472   5.208  13.100  0.00  0.00    +0.000 A 
ATOM     26  S   UNL     1      43.575   3.808  12.723  0.00  0.00    +0.000 S 
ATOM     27  C   UNL     1      44.194   3.770  11.139  0.00  0.00    +0.000 A 
ATOM     28  N   UNL     1      43.855   2.777  10.277  0.00  0.00    +0.000 NA
ATOM     29  C   UNL     1      44.425   2.852   9.121  0.00  0.00    +0.000 A 
ATOM     30  N   UNL     1      45.293   3.846   8.742  0.00  0.00    +0.000 N 
ATOM     31  C   UNL     1      45.614   4.907   9.558  0.00  0.00    +0.000 A 
ATOM     32  O   UNL     1      46.295   5.839   9.147  0.00  0.00    +0.000 OA
ATOM     33  C   UNL     1      45.042   4.835  10.888  0.00  0.00    +0.000 A 
ATOM     34  H   UNL     1      45.680   3.866   7.812  0.00  0.00    +0.000 HD
ENDBRANCH  21  24
ENDBRANCH  19  20
ENDBRANCH   6  19
TORSDOF 7
ENDMDL
MODEL 9
REMARK VINA RESULT:    -6.847      3.453      5.544
REMARK INTER + INTRA:         -10.673
REMARK INTER:                  -8.550
REMARK INTRA:                  -2.122
REMARK UNBOUND:                -1.023
REMARK  Name = 
REMARK  8 active torsions:
REMARK  status: ('A' for Active; 'I' for Inactive)
REMARK    1  A    between atoms: C_1  and  C_2
REMARK    2  A    between atoms: C_2  and  N_3
REMARK    3  A    between atoms: C_2  and  C_26
REMARK    4  A    between atoms: N_3  and  C_4
REMARK    5  A    between atoms: C_4  and  C_5
REMARK    6  A    between atoms: C_10  and  C_11
REMARK    7  A    between atoms: C_11  and  N_12
REMARK    8  A    between atoms: C_13  and  C_15
REMARK                            x       y       z     vdW  Elec       q    Type
REMARK                         _______ _______ _______ _____ _____    ______ ____
ROOT
ATOM      1  C   UNL     1      45.589   6.429  12.030  0.00  0.00    +0.000 A 
ATOM      2  C   UNL     1      44.707   5.895  11.084  0.00  0.00    +0.000 A 
ATOM      3  C   UNL     1      44.507   4.520  11.027  0.00  0.00    +0.000 A 
ATOM      4  F   UNL     1      43.646   4.018  10.132  0.00  0.00    +0.000 F 
ATOM      5  C   UNL     1      45.158   3.657  11.904  0.00  0.00    +0.000 A 
ATOM      6  C   UNL     1      46.038   4.167  12.864  0.00  0.00    +0.000 A 
ATOM      7  C   UNL     1      46.266   5.552  12.899  0.00  0.00    +0.000 A 
ENDROOT
BRANCH   1   8
ATOM      8  C   UNL     1      45.778   7.922  12.171  0.00  0.00    +0.000 C 
BRANCH   8   9
ATOM      9  N   UNL     1      47.042   8.231  12.820  0.00  0.00    +0.000 NA
ATOM     10  H   UNL     1      47.585   7.373  12.924  0.00  0.00    +0.000 HD
BRANCH   9  12
ATOM     11  C   UNL     1      47.540  10.667  12.392  0.00  0.00    +0.000 C 
ATOM     12  C   UNL     1      47.876   9.200  12.083  0.00  0.00    +0.000 C 
BRANCH  12  13
ATOM     13  C   UNL     1      49.349   8.927  12.383  0.00  0.00    +0.000 A 
ATOM     14  C   UNL     1      50.163   8.318  11.425  0.00  0.00    +0.000 A 
ATOM     15  C   UNL     1      51.511   8.129  11.701  0.00  0.00    +0.000 A 
ATOM     16  C   UNL     1      52.019   8.559  12.920  0.00  0.00    +0.000 A 
ATOM     17  C   UNL     1      51.150   9.162  13.815  0.00  0.00    +0.000 A 
ATOM     18  N   UNL     1      49.832   9.352  13.579  0.00  0.00    +0.000 NA
ENDBRANCH  12  13
ENDBRANCH   9  12
ENDBRANCH   8   9
ENDBRANCH   1   8
BRANCH   6  19
ATOM     19  C   UNL     1      46.709   3.254  13.853  0.00  0.00    +0.000 C 
BRANCH  19  20
ATOM     20  N   UNL     1      47.059   3.934  15.072  0.00  0.00    +0.000 N 
ATOM     21  C   UNL     1      47.995   3.439  15.940  0.00  0.00    +0.000 C 
ATOM     22  O   UNL     1      48.577   2.373  15.745  0.00  0.00    +0.000 OA
ATOM     23  H   UNL     1      46.441   4.680  15.379  0.00  0.00    +0.000 HD
BRANCH  21  24
ATOM     24  C   UNL     1      48.335   4.288  17.087  0.00  0.00    +0.000 A 
ATOM     25  C   UNL     1      48.305   3.757  18.370  0.00  0.00    +0.000 A 
ATOM     26  S   UNL     1      48.727   4.877  19.583  0.00  0.00    +0.000 S 
ATOM     27  C   UNL     1      48.934   6.121  18.440  0.00  0.00    +0.000 A 
ATOM     28  N   UNL     1      49.264   7.381  18.827  0.00  0.00    +0.000 NA
ATOM     29  C   UNL     1      49.354   8.232  17.861  0.00  0.00    +0.000 A 
ATOM     30  N   UNL     1      49.162   7.932  16.536  0.00  0.00    +0.000 N 
ATOM     31  C   UNL     1      48.892   6.657  16.092  0.00  0.00    +0.000 A 
ATOM     32  O   UNL     1      48.847   6.399  14.894  0.00  0.00    +0.000 OA
ATOM     33  C   UNL     1      48.725   5.677  17.146  0.00  0.00    +0.000 A 
ATOM     34  H   UNL     1      49.278   8.635  15.824  0.00  0.00    +0.000 HD
ENDBRANCH  21  24
ENDBRANCH  19  20
ENDBRANCH   6  19
TORSDOF 7
ENDMDL
