MODEL 1
REMARK VINA RESULT:    -8.357      0.000      0.000
REMARK INTER + INTRA:         -11.859
REMARK INTER:                 -11.288
REMARK INTRA:                  -0.570
REMARK UNBOUND:                -0.570
REMARK  Name = 
REMARK  8 active torsions:
REMARK  status: ('A' for Active; 'I' for Inactive)
REMARK    1  A    between atoms: C_1  and  O_2
REMARK    2  A    between atoms: O_2  and  C_3
REMARK    3  A    between atoms: C_5  and  C_6
REMARK    4  A    between atoms: C_11  and  N_12
REMARK    5  A    between atoms: N_12  and  C_13
REMARK    6  A    between atoms: C_13  and  C_14
REMARK    7  A    between atoms: C_18  and  N_19
REMARK    8  A    between atoms: N_22  and  C_23
REMARK                            x       y       z     vdW  Elec       q    Type
REMARK                         _______ _______ _______ _____ _____    ______ ____
ROOT
ATOM      1  N   UNL     1      43.764   5.484  10.251  0.00  0.00    +0.000 N 
ATOM      2  H   UNL     1      43.765   6.299   9.643  0.00  0.00    +0.000 HD
ENDROOT
BRANCH   1   8
ATOM      3  C   UNL     1      44.302   3.033   9.969  0.00  0.00    +0.000 A 
ATOM      4  C   UNL     1      45.058   2.061   9.298  0.00  0.00    +0.000 A 
ATOM      5  C   UNL     1      46.019   2.411   8.347  0.00  0.00    +0.000 A 
ATOM      6  C   UNL     1      46.220   3.760   8.059  0.00  0.00    +0.000 A 
ATOM      7  C   UNL     1      45.469   4.740   8.729  0.00  0.00    +0.000 A 
ATOM      8  C   UNL     1      44.510   4.411   9.711  0.00  0.00    +0.000 A 
BRANCH   5   9
ATOM      9  C   UNL     1      46.760   1.287   7.696  0.00  0.00    +0.000 C 
ATOM     10  N   UNL     1      47.787   1.581   6.846  0.00  0.00    +0.000 N 
ATOM     11  O   UNL     1      46.468   0.116   7.911  0.00  0.00    +0.000 OA
ATOM     12  H   UNL     1      48.089   2.509   6.590  0.00  0.00    +0.000 HD
ATOM     13  H   UNL     1      48.253   0.795   6.413  0.00  0.00    +0.000 HD
ENDBRANCH   5   9
BRANCH   3  15
ATOM     14  C   UNL     1      43.677   2.506  12.220  0.00  0.00    +0.000 C 
ATOM     15  O   UNL     1      43.317   2.677  10.858  0.00  0.00    +0.000 OA
ENDBRANCH   3  15
ENDBRANCH   1   8
BRANCH   1  16
ATOM     16  C   UNL     1      43.952   5.834  11.652  0.00  0.00    +0.000 C 
BRANCH  16  17
ATOM     17  C   UNL     1      45.402   6.002  12.040  0.00  0.00    +0.000 A 
ATOM     18  C   UNL     1      46.230   6.839  11.282  0.00  0.00    +0.000 A 
ATOM     19  C   UNL     1      47.494   7.177  11.750  0.00  0.00    +0.000 A 
ATOM     20  C   UNL     1      47.942   6.671  12.972  0.00  0.00    +0.000 A 
ATOM     21  C   UNL     1      47.155   5.808  13.753  0.00  0.00    +0.000 A 
ATOM     22  C   UNL     1      45.890   5.468  13.248  0.00  0.00    +0.000 A 
BRANCH  21  23
ATOM     23  N   UNL     1      47.591   5.431  15.011  0.00  0.00    +0.000 N 
ATOM     24  C   UNL     1      47.346   4.083  15.543  0.00  0.00    +0.000 C 
ATOM     25  C   UNL     1      47.205   4.161  17.082  0.00  0.00    +0.000 C 
ATOM     26  N   UNL     1      48.378   4.784  17.739  0.00  0.00    +0.000 NA
ATOM     27  C   UNL     1      48.156   4.890  19.180  0.00  0.00    +0.000 C 
ATOM     28  C   UNL     1      48.615   6.124  17.150  0.00  0.00    +0.000 C 
ATOM     29  C   UNL     1      48.764   6.092  15.609  0.00  0.00    +0.000 C 
ENDBRANCH  21  23
ENDBRANCH  16  17
ENDBRANCH   1  16
TORSDOF 6
ENDMDL
MODEL 2
REMARK VINA RESULT:    -7.630      2.443      3.056
REMARK INTER + INTRA:         -10.877
REMARK INTER:                 -10.126
REMARK INTRA:                  -0.751
REMARK UNBOUND:                -0.570
REMARK  Name = 
REMARK  8 active torsions:
REMARK  status: ('A' for Active; 'I' for Inactive)
REMARK    1  A    between atoms: C_1  and  O_2
REMARK    2  A    between atoms: O_2  and  C_3
REMARK    3  A    between atoms: C_5  and  C_6
REMARK    4  A    between atoms: C_11  and  N_12
REMARK    5  A    between atoms: N_12  and  C_13
REMARK    6  A    between atoms: C_13  and  C_14
REMARK    7  A    between atoms: C_18  and  N_19
REMARK    8  A    between atoms: N_22  and  C_23
REMARK                            x       y       z     vdW  Elec       q    Type
REMARK                         _______ _______ _______ _____ _____    ______ ____
ROOT
ATOM      1  N   UNL     1      43.813   5.502  10.254  0.00  0.00    +0.000 N 
ATOM      2  H   UNL     1      43.723   6.272   9.596  0.00  0.00    +0.000 HD
ENDROOT
BRANCH   1   8
ATOM      3  C   UNL     1      44.326   3.047   9.961  0.00  0.00    +0.000 A 
ATOM      4  C   UNL     1      45.083   2.072   9.296  0.00  0.00    +0.000 A 
ATOM      5  C   UNL     1      46.066   2.418   8.367  0.00  0.00    +0.000 A 
ATOM      6  C   UNL     1      46.289   3.766   8.093  0.00  0.00    +0.000 A 
ATOM      7  C   UNL     1      45.537   4.750   8.757  0.00  0.00    +0.000 A 
ATOM      8  C   UNL     1      44.556   4.425   9.719  0.00  0.00    +0.000 A 
BRANCH   5   9
ATOM      9  C   UNL     1      46.805   1.290   7.720  0.00  0.00    +0.000 C 
ATOM     10  N   UNL     1      47.840   1.578   6.878  0.00  0.00    +0.000 N 
ATOM     11  O   UNL     1      46.504   0.120   7.931  0.00  0.00    +0.000 OA
ATOM     12  H   UNL     1      48.149   2.504   6.625  0.00  0.00    +0.000 HD
ATOM     13  H   UNL     1      48.304   0.790   6.447  0.00  0.00    +0.000 HD
ENDBRANCH   5   9
BRANCH   3  15
ATOM     14  C   UNL     1      43.653   2.511  12.196  0.00  0.00    +0.000 C 
ATOM     15  O   UNL     1      43.321   2.696  10.829  0.00  0.00    +0.000 OA
ENDBRANCH   3  15
ENDBRANCH   1   8
BRANCH   1  16
ATOM     16  C   UNL     1      44.109   5.955  11.606  0.00  0.00    +0.000 C 
BRANCH  16  17
ATOM     17  C   UNL     1      44.992   7.180  11.649  0.00  0.00    +0.000 A 
ATOM     18  C   UNL     1      44.428   8.448  11.464  0.00  0.00    +0.000 A 
ATOM     19  C   UNL     1      45.180   9.588  11.721  0.00  0.00    +0.000 A 
ATOM     20  C   UNL     1      46.502   9.467  12.153  0.00  0.00    +0.000 A 
ATOM     21  C   UNL     1      47.116   8.215  12.327  0.00  0.00    +0.000 A 
ATOM     22  C   UNL     1      46.340   7.081  12.044  0.00  0.00    +0.000 A 
BRANCH  21  23
ATOM     23  N   UNL     1      48.385   8.144  12.873  0.00  0.00    +0.000 N 
ATOM     24  C   UNL     1      48.598   7.981  14.318  0.00  0.00    +0.000 C 
ATOM     25  C   UNL     1      49.918   8.682  14.721  0.00  0.00    +0.000 C 
ATOM     26  N   UNL     1      51.089   8.192  13.956  0.00  0.00    +0.000 NA
ATOM     27  C   UNL     1      52.288   8.937  14.333  0.00  0.00    +0.000 C 
ATOM     28  C   UNL     1      50.821   8.338  12.504  0.00  0.00    +0.000 C 
ATOM     29  C   UNL     1      49.508   7.649  12.057  0.00  0.00    +0.000 C 
ENDBRANCH  21  23
ENDBRANCH  16  17
ENDBRANCH   1  16
TORSDOF 6
ENDMDL
MODEL 3
REMARK VINA RESULT:    -7.428      2.168      3.333
REMARK INTER + INTRA:         -10.604
REMARK INTER:                 -10.426
REMARK INTRA:                  -0.178
REMARK UNBOUND:                -0.570
REMARK  Name = 
REMARK  8 active torsions:
REMARK  status: ('A' for Active; 'I' for Inactive)
REMARK    1  A    between atoms: C_1  and  O_2
REMARK    2  A    between atoms: O_2  and  C_3
REMARK    3  A    between atoms: C_5  and  C_6
REMARK    4  A    between atoms: C_11  and  N_12
REMARK    5  A    between atoms: N_12  and  C_13
REMARK    6  A    between atoms: C_13  and  C_14
REMARK    7  A    between atoms: C_18  and  N_19
REMARK    8  A    between atoms: N_22  and  C_23
REMARK                            x       y       z     vdW  Elec       q    Type
REMARK                         _______ _______ _______ _____ _____    ______ ____
ROOT
ATOM      1  N   UNL     1      43.785   5.028  10.273  0.00  0.00    +0.000 N 
ATOM      2  H   UNL     1      42.878   5.103   9.821  0.00  0.00    +0.000 HD
ENDROOT
BRANCH   1   8
ATOM      3  C   UNL     1      44.620   2.762   9.536  0.00  0.00    +0.000 A 
ATOM      4  C   UNL     1      45.504   2.039   8.722  0.00  0.00    +0.000 A 
ATOM      5  C   UNL     1      46.440   2.681   7.909  0.00  0.00    +0.000 A 
ATOM      6  C   UNL     1      46.485   4.074   7.905  0.00  0.00    +0.000 A 
ATOM      7  C   UNL     1      45.605   4.806   8.719  0.00  0.00    +0.000 A 
ATOM      8  C   UNL     1      44.668   4.179   9.568  0.00  0.00    +0.000 A 
BRANCH   5   9
ATOM      9  C   UNL     1      47.327   1.803   7.084  0.00  0.00    +0.000 C 
ATOM     10  N   UNL     1      48.326   2.378   6.353  0.00  0.00    +0.000 N 
ATOM     11  O   UNL     1      47.177   0.587   7.054  0.00  0.00    +0.000 OA
ATOM     12  H   UNL     1      48.516   3.367   6.297  0.00  0.00    +0.000 HD
ATOM     13  H   UNL     1      48.894   1.754   5.795  0.00  0.00    +0.000 HD
ENDBRANCH   5   9
BRANCH   3  15
ATOM     14  C   UNL     1      43.572   2.447  11.666  0.00  0.00    +0.000 C 
ATOM     15  O   UNL     1      43.663   2.125  10.287  0.00  0.00    +0.000 OA
ENDBRANCH   3  15
ENDBRANCH   1   8
BRANCH   1  16
ATOM     16  C   UNL     1      44.279   6.314  10.748  0.00  0.00    +0.000 C 
BRANCH  16  17
ATOM     17  C   UNL     1      45.275   6.194  11.877  0.00  0.00    +0.000 A 
ATOM     18  C   UNL     1      45.147   5.157  12.808  0.00  0.00    +0.000 A 
ATOM     19  C   UNL     1      46.172   4.902  13.712  0.00  0.00    +0.000 A 
ATOM     20  C   UNL     1      47.325   5.690  13.696  0.00  0.00    +0.000 A 
ATOM     21  C   UNL     1      47.485   6.757  12.796  0.00  0.00    +0.000 A 
ATOM     22  C   UNL     1      46.427   7.004  11.907  0.00  0.00    +0.000 A 
BRANCH  21  23
ATOM     23  N   UNL     1      48.693   7.429  12.737  0.00  0.00    +0.000 N 
ATOM     24  C   UNL     1      49.224   7.955  11.471  0.00  0.00    +0.000 C 
ATOM     25  C   UNL     1      50.771   7.925  11.517  0.00  0.00    +0.000 C 
ATOM     26  N   UNL     1      51.329   8.665  12.673  0.00  0.00    +0.000 NA
ATOM     27  C   UNL     1      52.785   8.543  12.697  0.00  0.00    +0.000 C 
ATOM     28  C   UNL     1      50.742   8.131  13.926  0.00  0.00    +0.000 C 
ATOM     29  C   UNL     1      49.193   8.144  13.924  0.00  0.00    +0.000 C 
ENDBRANCH  21  23
ENDBRANCH  16  17
ENDBRANCH   1  16
TORSDOF 6
ENDMDL
MODEL 4
REMARK VINA RESULT:    -7.232      3.222      7.269
REMARK INTER + INTRA:         -10.339
REMARK INTER:                  -9.318
REMARK INTRA:                  -1.021
REMARK UNBOUND:                -0.570
REMARK  Name = 
REMARK  8 active torsions:
REMARK  status: ('A' for Active; 'I' for Inactive)
REMARK    1  A    between atoms: C_1  and  O_2
REMARK    2  A    between atoms: O_2  and  C_3
REMARK    3  A    between atoms: C_5  and  C_6
REMARK    4  A    between atoms: C_11  and  N_12
REMARK    5  A    between atoms: N_12  and  C_13
REMARK    6  A    between atoms: C_13  and  C_14
REMARK    7  A    between atoms: C_18  and  N_19
REMARK    8  A    between atoms: N_22  and  C_23
REMARK                            x       y       z     vdW  Elec       q    Type
REMARK                         _______ _______ _______ _____ _____    ______ ____
ROOT
ATOM      1  N   UNL     1      45.924   7.867  13.313  0.00  0.00    +0.000 N 
ATOM      2  H   UNL     1      45.821   7.303  14.153  0.00  0.00    +0.000 HD
ENDROOT
BRANCH   1   8
ATOM      3  C   UNL     1      48.257   6.935  13.046  0.00  0.00    +0.000 A 
ATOM      4  C   UNL     1      49.532   7.093  12.485  0.00  0.00    +0.000 A 
ATOM      5  C   UNL     1      49.864   8.221  11.731  0.00  0.00    +0.000 A 
ATOM      6  C   UNL     1      48.897   9.204  11.529  0.00  0.00    +0.000 A 
ATOM      7  C   UNL     1      47.617   9.055  12.090  0.00  0.00    +0.000 A 
ATOM      8  C   UNL     1      47.267   7.937  12.876  0.00  0.00    +0.000 A 
BRANCH   5   9
ATOM      9  C   UNL     1      51.254   8.276  11.182  0.00  0.00    +0.000 C 
ATOM     10  N   UNL     1      51.877   7.108  10.849  0.00  0.00    +0.000 N 
ATOM     11  O   UNL     1      51.840   9.341  11.024  0.00  0.00    +0.000 OA
ATOM     12  H   UNL     1      51.488   6.184  10.960  0.00  0.00    +0.000 HD
ATOM     13  H   UNL     1      52.822   7.185  10.497  0.00  0.00    +0.000 HD
ENDBRANCH   5   9
BRANCH   3  15
ATOM     14  C   UNL     1      48.156   5.768  15.134  0.00  0.00    +0.000 C 
ATOM     15  O   UNL     1      47.920   5.796  13.735  0.00  0.00    +0.000 OA
ENDBRANCH   3  15
ENDBRANCH   1   8
BRANCH   1  16
ATOM     16  C   UNL     1      44.880   7.603  12.332  0.00  0.00    +0.000 C 
BRANCH  16  17
ATOM     17  C   UNL     1      44.635   6.131  12.098  0.00  0.00    +0.000 A 
ATOM     18  C   UNL     1      43.678   5.457  12.866  0.00  0.00    +0.000 A 
ATOM     19  C   UNL     1      43.284   4.171  12.515  0.00  0.00    +0.000 A 
ATOM     20  C   UNL     1      43.854   3.548  11.403  0.00  0.00    +0.000 A 
ATOM     21  C   UNL     1      44.836   4.178  10.620  0.00  0.00    +0.000 A 
ATOM     22  C   UNL     1      45.228   5.469  11.006  0.00  0.00    +0.000 A 
BRANCH  21  23
ATOM     23  N   UNL     1      45.280   3.570   9.459  0.00  0.00    +0.000 N 
ATOM     24  C   UNL     1      44.940   2.178   9.135  0.00  0.00    +0.000 C 
ATOM     25  C   UNL     1      46.092   1.549   8.315  0.00  0.00    +0.000 C 
ATOM     26  N   UNL     1      46.412   2.314   7.087  0.00  0.00    +0.000 NA
ATOM     27  C   UNL     1      47.549   1.710   6.396  0.00  0.00    +0.000 C 
ATOM     28  C   UNL     1      46.713   3.720   7.451  0.00  0.00    +0.000 C 
ATOM     29  C   UNL     1      45.583   4.390   8.272  0.00  0.00    +0.000 C 
ENDBRANCH  21  23
ENDBRANCH  16  17
ENDBRANCH   1  16
TORSDOF 6
ENDMDL
MODEL 5
REMARK VINA RESULT:    -7.071      3.041      8.152
REMARK INTER + INTRA:         -10.121
REMARK INTER:                  -9.418
REMARK INTRA:                  -0.703
REMARK UNBOUND:                -0.570
REMARK  Name = 
REMARK  8 active torsions:
REMARK  status: ('A' for Active; 'I' for Inactive)
REMARK    1  A    between atoms: C_1  and  O_2
REMARK    2  A    between atoms: O_2  and  C_3
REMARK    3  A    between atoms: C_5  and  C_6
REMARK    4  A    between atoms: C_11  and  N_12
REMARK    5  A    between atoms: N_12  and  C_13
REMARK    6  A    between atoms: C_13  and  C_14
REMARK    7  A    between atoms: C_18  and  N_19
REMARK    8  A    between atoms: N_22  and  C_23
REMARK                            x       y       z     vdW  Elec       q    Type
REMARK                         _______ _______ _______ _____ _____    ______ ____
ROOT
ATOM      1  N   UNL     1      47.268   6.364  13.309  0.00  0.00    +0.000 N 
ATOM      2  H   UNL     1      47.900   7.050  12.905  0.00  0.00    +0.000 HD
ENDROOT
BRANCH   1   8
ATOM      3  C   UNL     1      48.619   6.525  15.437  0.00  0.00    +0.000 A 
ATOM      4  C   UNL     1      48.940   5.951  16.675  0.00  0.00    +0.000 A 
ATOM      5  C   UNL     1      48.398   4.729  17.078  0.00  0.00    +0.000 A 
ATOM      6  C   UNL     1      47.509   4.074  16.226  0.00  0.00    +0.000 A 
ATOM      7  C   UNL     1      47.184   4.641  14.983  0.00  0.00    +0.000 A 
ATOM      8  C   UNL     1      47.740   5.861  14.544  0.00  0.00    +0.000 A 
BRANCH   5   9
ATOM      9  C   UNL     1      48.813   4.220  18.421  0.00  0.00    +0.000 C 
ATOM     10  N   UNL     1      48.259   3.063  18.887  0.00  0.00    +0.000 N 
ATOM     11  O   UNL     1      49.637   4.815  19.106  0.00  0.00    +0.000 OA
ATOM     12  H   UNL     1      47.560   2.515  18.409  0.00  0.00    +0.000 HD
ATOM     13  H   UNL     1      48.552   2.760  19.806  0.00  0.00    +0.000 HD
ENDBRANCH   5   9
BRANCH   3  15
ATOM     14  C   UNL     1      50.293   7.798  14.291  0.00  0.00    +0.000 C 
ATOM     15  O   UNL     1      49.110   7.755  15.075  0.00  0.00    +0.000 OA
ENDBRANCH   3  15
ENDBRANCH   1   8
BRANCH   1  16
ATOM     16  C   UNL     1      45.871   6.760  13.201  0.00  0.00    +0.000 C 
BRANCH  16  17
ATOM     17  C   UNL     1      45.012   5.746  12.483  0.00  0.00    +0.000 A 
ATOM     18  C   UNL     1      43.639   5.688  12.747  0.00  0.00    +0.000 A 
ATOM     19  C   UNL     1      42.807   4.922  11.940  0.00  0.00    +0.000 A 
ATOM     20  C   UNL     1      43.344   4.201  10.872  0.00  0.00    +0.000 A 
ATOM     21  C   UNL     1      44.720   4.211  10.585  0.00  0.00    +0.000 A 
ATOM     22  C   UNL     1      45.540   4.979  11.427  0.00  0.00    +0.000 A 
BRANCH  21  23
ATOM     23  N   UNL     1      45.187   3.582   9.445  0.00  0.00    +0.000 N 
ATOM     24  C   UNL     1      44.863   2.179   9.148  0.00  0.00    +0.000 C 
ATOM     25  C   UNL     1      46.034   1.542   8.361  0.00  0.00    +0.000 C 
ATOM     26  N   UNL     1      46.367   2.282   7.121  0.00  0.00    +0.000 NA
ATOM     27  C   UNL     1      47.520   1.672   6.461  0.00  0.00    +0.000 C 
ATOM     28  C   UNL     1      46.651   3.699   7.457  0.00  0.00    +0.000 C 
ATOM     29  C   UNL     1      45.502   4.377   8.246  0.00  0.00    +0.000 C 
ENDBRANCH  21  23
ENDBRANCH  16  17
ENDBRANCH   1  16
TORSDOF 6
ENDMDL
MODEL 6
REMARK VINA RESULT:    -6.667      3.884      7.887
REMARK INTER + INTRA:          -9.575
REMARK INTER:                  -8.715
REMARK INTRA:                  -0.861
REMARK UNBOUND:                -0.570
REMARK  Name = 
REMARK  8 active torsions:
REMARK  status: ('A' for Active; 'I' for Inactive)
REMARK    1  A    between atoms: C_1  and  O_2
REMARK    2  A    between atoms: O_2  and  C_3
REMARK    3  A    between atoms: C_5  and  C_6
REMARK    4  A    between atoms: C_11  and  N_12
REMARK    5  A    between atoms: N_12  and  C_13
REMARK    6  A    between atoms: C_13  and  C_14
REMARK    7  A    between atoms: C_18  and  N_19
REMARK    8  A    between atoms: N_22  and  C_23
REMARK                            x       y       z     vdW  Elec       q    Type
REMARK                         _______ _______ _______ _____ _____    ______ ____
ROOT
ATOM      1  N   UNL     1      49.355   6.121  16.619  0.00  0.00    +0.000 N 
ATOM      2  H   UNL     1      48.414   5.936  16.281  0.00  0.00    +0.000 HD
ENDROOT
BRANCH   1   8
ATOM      3  C   UNL     1      49.515   3.620  16.929  0.00  0.00    +0.000 A 
ATOM      4  C   UNL     1      50.311   2.526  17.299  0.00  0.00    +0.000 A 
ATOM      5  C   UNL     1      51.618   2.697  17.761  0.00  0.00    +0.000 A 
ATOM      6  C   UNL     1      52.139   3.987  17.846  0.00  0.00    +0.000 A 
ATOM      7  C   UNL     1      51.347   5.088  17.480  0.00  0.00    +0.000 A 
ATOM      8  C   UNL     1      50.016   4.942  17.035  0.00  0.00    +0.000 A 
BRANCH   5   9
ATOM      9  C   UNL     1      52.370   1.455  18.123  0.00  0.00    +0.000 C 
ATOM     10  N   UNL     1      51.729   0.252  18.049  0.00  0.00    +0.000 N 
ATOM     11  O   UNL     1      53.541   1.496  18.480  0.00  0.00    +0.000 OA
ATOM     12  H   UNL     1      50.764   0.118  17.787  0.00  0.00    +0.000 HD
ATOM     13  H   UNL     1      52.265  -0.562  18.317  0.00  0.00    +0.000 HD
ENDBRANCH   5   9
BRANCH   3  15
ATOM     14  C   UNL     1      47.190   3.207  17.332  0.00  0.00    +0.000 C 
ATOM     15  O   UNL     1      48.253   3.439  16.420  0.00  0.00    +0.000 OA
ENDBRANCH   3  15
ENDBRANCH   1   8
BRANCH   1  16
ATOM     16  C   UNL     1      50.074   7.069  15.779  0.00  0.00    +0.000 C 
BRANCH  16  17
ATOM     17  C   UNL     1      49.418   7.301  14.438  0.00  0.00    +0.000 A 
ATOM     18  C   UNL     1      50.089   8.040  13.457  0.00  0.00    +0.000 A 
ATOM     19  C   UNL     1      49.602   8.071  12.156  0.00  0.00    +0.000 A 
ATOM     20  C   UNL     1      48.436   7.374  11.832  0.00  0.00    +0.000 A 
ATOM     21  C   UNL     1      47.718   6.641  12.790  0.00  0.00    +0.000 A 
ATOM     22  C   UNL     1      48.221   6.640  14.101  0.00  0.00    +0.000 A 
BRANCH  21  23
ATOM     23  N   UNL     1      46.640   5.868  12.396  0.00  0.00    +0.000 N 
ATOM     24  C   UNL     1      45.982   4.932  13.318  0.00  0.00    +0.000 C 
ATOM     25  C   UNL     1      45.422   3.733  12.514  0.00  0.00    +0.000 C 
ATOM     26  N   UNL     1      44.500   4.145  11.430  0.00  0.00    +0.000 NA
ATOM     27  C   UNL     1      44.061   2.978  10.667  0.00  0.00    +0.000 C 
ATOM     28  C   UNL     1      45.187   5.116  10.544  0.00  0.00    +0.000 C 
ATOM     29  C   UNL     1      45.762   6.334  11.309  0.00  0.00    +0.000 C 
ENDBRANCH  21  23
ENDBRANCH  16  17
ENDBRANCH   1  16
TORSDOF 6
ENDMDL
MODEL 7
REMARK VINA RESULT:    -6.428      3.208      7.732
REMARK INTER + INTRA:          -9.253
REMARK INTER:                  -8.834
REMARK INTRA:                  -0.420
REMARK UNBOUND:                -0.570
REMARK  Name = 
REMARK  8 active torsions:
REMARK  status: ('A' for Active; 'I' for Inactive)
REMARK    1  A    between atoms: C_1  and  O_2
REMARK    2  A    between atoms: O_2  and  C_3
REMARK    3  A    between atoms: C_5  and  C_6
REMARK    4  A    between atoms: C_11  and  N_12
REMARK    5  A    between atoms: N_12  and  C_13
REMARK    6  A    between atoms: C_13  and  C_14
REMARK    7  A    between atoms: C_18  and  N_19
REMARK    8  A    between atoms: N_22  and  C_23
REMARK                            x       y       z     vdW  Elec       q    Type
REMARK                         _______ _______ _______ _____ _____    ______ ____
ROOT
ATOM      1  N   UNL     1      47.162   5.381  13.555  0.00  0.00    +0.000 N 
ATOM      2  H   UNL     1      47.768   4.857  12.931  0.00  0.00    +0.000 HD
ENDROOT
BRANCH   1   8
ATOM      3  C   UNL     1      47.921   7.584  12.581  0.00  0.00    +0.000 A 
ATOM      4  C   UNL     1      47.553   8.843  12.084  0.00  0.00    +0.000 A 
ATOM      5  C   UNL     1      46.221   9.261  12.068  0.00  0.00    +0.000 A 
ATOM      6  C   UNL     1      45.238   8.399  12.551  0.00  0.00    +0.000 A 
ATOM      7  C   UNL     1      45.599   7.137  13.054  0.00  0.00    +0.000 A 
ATOM      8  C   UNL     1      46.941   6.703  13.104  0.00  0.00    +0.000 A 
BRANCH   5   9
ATOM      9  C   UNL     1      45.952  10.623  11.511  0.00  0.00    +0.000 C 
ATOM     10  N   UNL     1      44.741  10.870  10.931  0.00  0.00    +0.000 N 
ATOM     11  O   UNL     1      46.790  11.516  11.567  0.00  0.00    +0.000 OA
ATOM     12  H   UNL     1      43.998  10.197  10.819  0.00  0.00    +0.000 HD
ATOM     13  H   UNL     1      44.603  11.797  10.552  0.00  0.00    +0.000 HD
ENDBRANCH   5   9
BRANCH   3  15
ATOM     14  C   UNL     1      50.155   7.757  13.427  0.00  0.00    +0.000 C 
ATOM     15  O   UNL     1      49.225   7.157  12.538  0.00  0.00    +0.000 OA
ENDBRANCH   3  15
ENDBRANCH   1   8
BRANCH   1  16
ATOM     16  C   UNL     1      46.023   4.598  14.016  0.00  0.00    +0.000 C 
BRANCH  16  17
ATOM     17  C   UNL     1      45.105   4.160  12.899  0.00  0.00    +0.000 A 
ATOM     18  C   UNL     1      43.733   4.419  12.987  0.00  0.00    +0.000 A 
ATOM     19  C   UNL     1      42.915   4.225  11.880  0.00  0.00    +0.000 A 
ATOM     20  C   UNL     1      43.464   3.760  10.683  0.00  0.00    +0.000 A 
ATOM     21  C   UNL     1      44.832   3.464  10.557  0.00  0.00    +0.000 A 
ATOM     22  C   UNL     1      45.631   3.651  11.695  0.00  0.00    +0.000 A 
BRANCH  21  23
ATOM     23  N   UNL     1      45.349   3.124   9.320  0.00  0.00    +0.000 N 
ATOM     24  C   UNL     1      45.263   1.754   8.795  0.00  0.00    +0.000 C 
ATOM     25  C   UNL     1      46.489   1.477   7.892  0.00  0.00    +0.000 C 
ATOM     26  N   UNL     1      46.630   2.457   6.790  0.00  0.00    +0.000 NA
ATOM     27  C   UNL     1      47.839   2.182   6.018  0.00  0.00    +0.000 C 
ATOM     28  C   UNL     1      46.675   3.827   7.356  0.00  0.00    +0.000 C 
ATOM     29  C   UNL     1      45.464   4.148   8.267  0.00  0.00    +0.000 C 
ENDBRANCH  21  23
ENDBRANCH  16  17
ENDBRANCH   1  16
TORSDOF 6
ENDMDL
MODEL 8
REMARK VINA RESULT:    -6.225      3.569      5.820
REMARK INTER + INTRA:          -8.979
REMARK INTER:                  -7.936
REMARK INTRA:                  -1.042
REMARK UNBOUND:                -0.570
REMARK  Name = 
REMARK  8 active torsions:
REMARK  status: ('A' for Active; 'I' for Inactive)
REMARK    1  A    between atoms: C_1  and  O_2
REMARK    2  A    between atoms: O_2  and  C_3
REMARK    3  A    between atoms: C_5  and  C_6
REMARK    4  A    between atoms: C_11  and  N_12
REMARK    5  A    between atoms: N_12  and  C_13
REMARK    6  A    between atoms: C_13  and  C_14
REMARK    7  A    between atoms: C_18  and  N_19
REMARK    8  A    between atoms: N_22  and  C_23
REMARK                            x       y       z     vdW  Elec       q    Type
REMARK                         _______ _______ _______ _____ _____    ______ ____
ROOT
ATOM      1  N   UNL     1      48.971   6.706  13.768  0.00  0.00    +0.000 N 
ATOM      2  H   UNL     1      49.548   5.899  13.993  0.00  0.00    +0.000 HD
ENDROOT
BRANCH   1   8
ATOM      3  C   UNL     1      46.964   5.174  13.717  0.00  0.00    +0.000 A 
ATOM      4  C   UNL     1      45.649   4.968  13.278  0.00  0.00    +0.000 A 
ATOM      5  C   UNL     1      44.995   5.900  12.469  0.00  0.00    +0.000 A 
ATOM      6  C   UNL     1      45.669   7.063  12.101  0.00  0.00    +0.000 A 
ATOM      7  C   UNL     1      46.989   7.275  12.534  0.00  0.00    +0.000 A 
ATOM      8  C   UNL     1      47.679   6.336  13.331  0.00  0.00    +0.000 A 
BRANCH   5   9
ATOM      9  C   UNL     1      43.592   5.572  12.066  0.00  0.00    +0.000 C 
ATOM     10  N   UNL     1      42.641   5.447  13.037  0.00  0.00    +0.000 N 
ATOM     11  O   UNL     1      43.282   5.416  10.891  0.00  0.00    +0.000 OA
ATOM     12  H   UNL     1      42.801   5.536  14.029  0.00  0.00    +0.000 HD
ATOM     13  H   UNL     1      41.708   5.209  12.727  0.00  0.00    +0.000 HD
ENDBRANCH   5   9
BRANCH   3  15
ATOM     14  C   UNL     1      47.139   4.224  15.909  0.00  0.00    +0.000 C 
ATOM     15  O   UNL     1      47.579   4.281  14.561  0.00  0.00    +0.000 OA
ENDBRANCH   3  15
ENDBRANCH   1   8
BRANCH   1  16
ATOM     16  C   UNL     1      49.101   7.775  14.749  0.00  0.00    +0.000 C 
BRANCH  16  17
ATOM     17  C   UNL     1      49.336   7.274  16.155  0.00  0.00    +0.000 A 
ATOM     18  C   UNL     1      48.621   7.835  17.219  0.00  0.00    +0.000 A 
ATOM     19  C   UNL     1      48.661   7.240  18.475  0.00  0.00    +0.000 A 
ATOM     20  C   UNL     1      49.423   6.088  18.675  0.00  0.00    +0.000 A 
ATOM     21  C   UNL     1      50.176   5.505  17.641  0.00  0.00    +0.000 A 
ATOM     22  C   UNL     1      50.133   6.137  16.388  0.00  0.00    +0.000 A 
BRANCH  21  23
ATOM     23  N   UNL     1      50.816   4.298  17.855  0.00  0.00    +0.000 N 
ATOM     24  C   UNL     1      51.993   4.190  18.729  0.00  0.00    +0.000 C 
ATOM     25  C   UNL     1      52.910   3.057  18.211  0.00  0.00    +0.000 C 
ATOM     26  N   UNL     1      52.213   1.754  18.100  0.00  0.00    +0.000 NA
ATOM     27  C   UNL     1      53.111   0.744  17.543  0.00  0.00    +0.000 C 
ATOM     28  C   UNL     1      51.013   1.911  17.243  0.00  0.00    +0.000 C 
ATOM     29  C   UNL     1      50.065   3.037  17.727  0.00  0.00    +0.000 C 
ENDBRANCH  21  23
ENDBRANCH  16  17
ENDBRANCH   1  16
TORSDOF 6
ENDMDL
MODEL 9
REMARK VINA RESULT:    -6.221      4.665      8.785
REMARK INTER + INTRA:          -8.973
REMARK INTER:                  -8.261
REMARK INTRA:                  -0.711
REMARK UNBOUND:                -0.570
REMARK  Name = 
REMARK  8 active torsions:
REMARK  status: ('A' for Active; 'I' for Inactive)
REMARK    1  A    between atoms: C_1  and  O_2
REMARK    2  A    between atoms: O_2  and  C_3
REMARK    3  A    between atoms: C_5  and  C_6
REMARK    4  A    between atoms: C_11  and  N_12
REMARK    5  A    between atoms: N_12  and  C_13
REMARK    6  A    between atoms: C_13  and  C_14
REMARK    7  A    between atoms: C_18  and  N_19
REMARK    8  A    between atoms: N_22  and  C_23
REMARK                            x       y       z     vdW  Elec       q    Type
REMARK                         _______ _______ _______ _____ _____    ______ ____
ROOT
ATOM      1  N   UNL     1      49.320   4.595  17.676  0.00  0.00    +0.000 N 
ATOM      2  H   UNL     1      49.106   4.944  18.607  0.00  0.00    +0.000 HD
ENDROOT
BRANCH   1   8
ATOM      3  C   UNL     1      51.717   3.964  18.159  0.00  0.00    +0.000 A 
ATOM      4  C   UNL     1      52.687   2.952  18.185  0.00  0.00    +0.000 A 
ATOM      5  C   UNL     1      52.400   1.652  17.763  0.00  0.00    +0.000 A 
ATOM      6  C   UNL     1      51.113   1.360  17.314  0.00  0.00    +0.000 A 
ATOM      7  C   UNL     1      50.136   2.369  17.281  0.00  0.00    +0.000 A 
ATOM      8  C   UNL     1      50.410   3.695  17.678  0.00  0.00    +0.000 A 
BRANCH   5   9
ATOM      9  C   UNL     1      53.515   0.658  17.841  0.00  0.00    +0.000 C 
ATOM     10  N   UNL     1      53.310  -0.510  18.515  0.00  0.00    +0.000 N 
ATOM     11  O   UNL     1      54.600   0.870  17.312  0.00  0.00    +0.000 OA
ATOM     12  H   UNL     1      52.462  -0.766  18.998  0.00  0.00    +0.000 HD
ATOM     13  H   UNL     1      54.092  -1.149  18.560  0.00  0.00    +0.000 HD
ENDBRANCH   5   9
BRANCH   3  15
ATOM     14  C   UNL     1      53.135   5.393  19.456  0.00  0.00    +0.000 C 
ATOM     15  O   UNL     1      51.992   5.223  18.631  0.00  0.00    +0.000 OA
ENDBRANCH   3  15
ENDBRANCH   1   8
BRANCH   1  16
ATOM     16  C   UNL     1      48.123   4.245  16.923  0.00  0.00    +0.000 C 
BRANCH  16  17
ATOM     17  C   UNL     1      47.857   5.167  15.756  0.00  0.00    +0.000 A 
ATOM     18  C   UNL     1      48.661   6.297  15.568  0.00  0.00    +0.000 A 
ATOM     19  C   UNL     1      48.574   7.024  14.387  0.00  0.00    +0.000 A 
ATOM     20  C   UNL     1      47.674   6.633  13.394  0.00  0.00    +0.000 A 
ATOM     21  C   UNL     1      46.831   5.520  13.551  0.00  0.00    +0.000 A 
ATOM     22  C   UNL     1      46.927   4.814  14.760  0.00  0.00    +0.000 A 
BRANCH  21  23
ATOM     23  N   UNL     1      46.046   5.100  12.492  0.00  0.00    +0.000 N 
ATOM     24  C   UNL     1      45.050   4.029  12.645  0.00  0.00    +0.000 C 
ATOM     25  C   UNL     1      44.915   3.265  11.306  0.00  0.00    +0.000 C 
ATOM     26  N   UNL     1      44.571   4.149  10.167  0.00  0.00    +0.000 NA
ATOM     27  C   UNL     1      44.525   3.381   8.925  0.00  0.00    +0.000 C 
ATOM     28  C   UNL     1      45.576   5.235  10.070  0.00  0.00    +0.000 C 
ATOM     29  C   UNL     1      45.743   6.029  11.390  0.00  0.00    +0.000 C 
ENDBRANCH  21  23
ENDBRANCH  16  17
ENDBRANCH   1  16
TORSDOF 6
ENDMDL
