MODEL 1
REMARK VINA RESULT:    -8.184      0.000      0.000
REMARK INTER + INTRA:         -12.626
REMARK INTER:                 -11.533
REMARK INTRA:                  -1.093
REMARK UNBOUND:                -1.093
REMARK  Name = 
REMARK  7 active torsions:
REMARK  status: ('A' for Active; 'I' for Inactive)
REMARK    1  A    between atoms: C_2  and  C_3
REMARK    2  A    between atoms: C_6  and  N_7
REMARK    3  A    between atoms: N_7  and  C_8
REMARK    4  A    between atoms: C_8  and  C_9
REMARK    5  A    between atoms: C_9  and  C_11
REMARK    6  A    between atoms: C_15  and  O_16
REMARK    7  A    between atoms: O_16  and  C_17
REMARK                            x       y       z     vdW  Elec       q    Type
REMARK                         _______ _______ _______ _____ _____    ______ ____
ROOT
ATOM      1  C   UNL     1      43.883   5.170  12.365  0.00  0.00    +0.000 C 
ATOM      2  F   UNL     1      43.172   6.105  11.654  0.00  0.00    +0.000 F 
ENDROOT
BRANCH   1   3
ATOM      3  C   UNL     1      45.344   5.546  12.514  0.00  0.00    +0.000 A 
ATOM      4  C   UNL     1      45.969   6.381  11.582  0.00  0.00    +0.000 A 
ATOM      5  C   UNL     1      47.274   6.832  11.803  0.00  0.00    +0.000 A 
ATOM      6  C   UNL     1      47.982   6.437  12.946  0.00  0.00    +0.000 A 
ATOM      7  C   UNL     1      47.392   5.562  13.853  0.00  0.00    +0.000 A 
ATOM      8  C   UNL     1      46.078   5.131  13.638  0.00  0.00    +0.000 A 
BRANCH   7   9
ATOM      9  O   UNL     1      47.959   5.099  15.016  0.00  0.00    +0.000 OA
BRANCH   9  10
ATOM     10  C   UNL     1      47.260   4.133  15.831  0.00  0.00    +0.000 C 
ATOM     11  C   UNL     1      47.168   4.415  17.350  0.00  0.00    +0.000 C 
ATOM     12  C   UNL     1      47.537   2.947  17.617  0.00  0.00    +0.000 C 
ATOM     13  C   UNL     1      48.096   2.872  16.189  0.00  0.00    +0.000 C 
ENDBRANCH   9  10
ENDBRANCH   7   9
ENDBRANCH   1   3
BRANCH   1  14
ATOM     14  C   UNL     1      43.666   3.801  11.681  0.00  0.00    +0.000 C 
BRANCH  14  15
ATOM     15  N   UNL     1      43.641   3.946  10.216  0.00  0.00    +0.000 N 
ATOM     16  H   UNL     1      43.340   4.879   9.933  0.00  0.00    +0.000 HD
BRANCH  15  20
ATOM     17  C   UNL     1      46.617   2.525   7.571  0.00  0.00    +0.000 A 
ATOM     18  C   UNL     1      45.962   1.631   8.416  0.00  0.00    +0.000 A 
ATOM     19  C   UNL     1      45.011   2.093   9.338  0.00  0.00    +0.000 A 
ATOM     20  C   UNL     1      44.695   3.454   9.442  0.00  0.00    +0.000 A 
ATOM     21  C   UNL     1      45.373   4.338   8.588  0.00  0.00    +0.000 A 
ATOM     22  C   UNL     1      46.332   3.887   7.669  0.00  0.00    +0.000 A 
BRANCH  17  24
ATOM     23  N   UNL     1      48.301   1.660   5.795  0.00  0.00    +0.000 NA
ATOM     24  C   UNL     1      47.549   2.047   6.586  0.00  0.00    +0.000 C 
ENDBRANCH  17  24
ENDBRANCH  15  20
ENDBRANCH  14  15
ENDBRANCH   1  14
TORSDOF 7
ENDMDL
MODEL 2
REMARK VINA RESULT:    -7.425      1.679      3.519
REMARK INTER + INTRA:         -11.556
REMARK INTER:                 -10.579
REMARK INTRA:                  -0.977
REMARK UNBOUND:                -1.093
REMARK  Name = 
REMARK  7 active torsions:
REMARK  status: ('A' for Active; 'I' for Inactive)
REMARK    1  A    between atoms: C_2  and  C_3
REMARK    2  A    between atoms: C_6  and  N_7
REMARK    3  A    between atoms: N_7  and  C_8
REMARK    4  A    between atoms: C_8  and  C_9
REMARK    5  A    between atoms: C_9  and  C_11
REMARK    6  A    between atoms: C_15  and  O_16
REMARK    7  A    between atoms: O_16  and  C_17
REMARK                            x       y       z     vdW  Elec       q    Type
REMARK                         _______ _______ _______ _____ _____    ______ ____
ROOT
ATOM      1  C   UNL     1      43.407   5.102  12.302  0.00  0.00    +0.000 C 
ATOM      2  F   UNL     1      42.846   6.171  11.648  0.00  0.00    +0.000 F 
ENDROOT
BRANCH   1   3
ATOM      3  C   UNL     1      44.846   5.361  12.702  0.00  0.00    +0.000 A 
ATOM      4  C   UNL     1      45.463   4.595  13.698  0.00  0.00    +0.000 A 
ATOM      5  C   UNL     1      46.828   4.748  13.961  0.00  0.00    +0.000 A 
ATOM      6  C   UNL     1      47.592   5.684  13.251  0.00  0.00    +0.000 A 
ATOM      7  C   UNL     1      46.978   6.492  12.297  0.00  0.00    +0.000 A 
ATOM      8  C   UNL     1      45.617   6.318  12.022  0.00  0.00    +0.000 A 
BRANCH   7   9
ATOM      9  O   UNL     1      47.599   7.440  11.521  0.00  0.00    +0.000 OA
BRANCH   9  10
ATOM     10  C   UNL     1      48.632   8.277  12.084  0.00  0.00    +0.000 C 
ATOM     11  C   UNL     1      48.673   9.758  11.635  0.00  0.00    +0.000 C 
ATOM     12  C   UNL     1      50.196   9.636  11.470  0.00  0.00    +0.000 C 
ATOM     13  C   UNL     1      50.026   8.112  11.418  0.00  0.00    +0.000 C 
ENDBRANCH   9  10
ENDBRANCH   7   9
ENDBRANCH   1   3
BRANCH   1  14
ATOM     14  C   UNL     1      43.233   3.860  11.401  0.00  0.00    +0.000 C 
BRANCH  14  15
ATOM     15  N   UNL     1      43.493   4.196   9.991  0.00  0.00    +0.000 N 
ATOM     16  H   UNL     1      43.401   5.197   9.818  0.00  0.00    +0.000 HD
BRANCH  15  20
ATOM     17  C   UNL     1      46.581   2.528   7.634  0.00  0.00    +0.000 A 
ATOM     18  C   UNL     1      45.815   1.700   8.454  0.00  0.00    +0.000 A 
ATOM     19  C   UNL     1      44.824   2.245   9.283  0.00  0.00    +0.000 A 
ATOM     20  C   UNL     1      44.574   3.622   9.318  0.00  0.00    +0.000 A 
ATOM     21  C   UNL     1      45.363   4.439   8.492  0.00  0.00    +0.000 A 
ATOM     22  C   UNL     1      46.364   3.905   7.665  0.00  0.00    +0.000 A 
BRANCH  17  24
ATOM     23  N   UNL     1      48.348   1.516   6.024  0.00  0.00    +0.000 NA
ATOM     24  C   UNL     1      47.559   1.967   6.741  0.00  0.00    +0.000 C 
ENDBRANCH  17  24
ENDBRANCH  15  20
ENDBRANCH  14  15
ENDBRANCH   1  14
TORSDOF 7
ENDMDL
MODEL 3
REMARK VINA RESULT:    -7.095      1.880      2.404
REMARK INTER + INTRA:         -11.092
REMARK INTER:                 -10.208
REMARK INTRA:                  -0.884
REMARK UNBOUND:                -1.093
REMARK  Name = 
REMARK  7 active torsions:
REMARK  status: ('A' for Active; 'I' for Inactive)
REMARK    1  A    between atoms: C_2  and  C_3
REMARK    2  A    between atoms: C_6  and  N_7
REMARK    3  A    between atoms: N_7  and  C_8
REMARK    4  A    between atoms: C_8  and  C_9
REMARK    5  A    between atoms: C_9  and  C_11
REMARK    6  A    between atoms: C_15  and  O_16
REMARK    7  A    between atoms: O_16  and  C_17
REMARK                            x       y       z     vdW  Elec       q    Type
REMARK                         _______ _______ _______ _____ _____    ______ ____
ROOT
ATOM      1  C   UNL     1      45.175   4.586  12.211  0.00  0.00    +0.000 C 
ATOM      2  F   UNL     1      44.488   4.270  13.357  0.00  0.00    +0.000 F 
ENDROOT
BRANCH   1   3
ATOM      3  C   UNL     1      46.341   5.519  12.475  0.00  0.00    +0.000 A 
ATOM      4  C   UNL     1      46.627   6.575  11.601  0.00  0.00    +0.000 A 
ATOM      5  C   UNL     1      47.615   7.509  11.926  0.00  0.00    +0.000 A 
ATOM      6  C   UNL     1      48.347   7.392  13.115  0.00  0.00    +0.000 A 
ATOM      7  C   UNL     1      48.110   6.316  13.966  0.00  0.00    +0.000 A 
ATOM      8  C   UNL     1      47.105   5.396  13.647  0.00  0.00    +0.000 A 
BRANCH   7   9
ATOM      9  O   UNL     1      48.740   6.078  15.164  0.00  0.00    +0.000 OA
BRANCH   9  10
ATOM     10  C   UNL     1      49.465   7.137  15.826  0.00  0.00    +0.000 C 
ATOM     11  C   UNL     1      51.009   7.035  15.851  0.00  0.00    +0.000 C 
ATOM     12  C   UNL     1      50.982   7.426  17.337  0.00  0.00    +0.000 C 
ATOM     13  C   UNL     1      49.504   7.017  17.375  0.00  0.00    +0.000 C 
ENDBRANCH   9  10
ENDBRANCH   7   9
ENDBRANCH   1   3
BRANCH   1  14
ATOM     14  C   UNL     1      44.155   5.149  11.196  0.00  0.00    +0.000 C 
BRANCH  14  15
ATOM     15  N   UNL     1      43.693   4.094  10.278  0.00  0.00    +0.000 N 
ATOM     16  H   UNL     1      42.748   4.275   9.939  0.00  0.00    +0.000 HD
BRANCH  15  20
ATOM     17  C   UNL     1      46.512   2.511   7.554  0.00  0.00    +0.000 A 
ATOM     18  C   UNL     1      46.266   3.883   7.573  0.00  0.00    +0.000 A 
ATOM     19  C   UNL     1      45.295   4.418   8.432  0.00  0.00    +0.000 A 
ATOM     20  C   UNL     1      44.545   3.601   9.287  0.00  0.00    +0.000 A 
ATOM     21  C   UNL     1      44.801   2.221   9.246  0.00  0.00    +0.000 A 
ATOM     22  C   UNL     1      45.764   1.675   8.384  0.00  0.00    +0.000 A 
BRANCH  17  24
ATOM     23  N   UNL     1      48.380   1.532   6.041  0.00  0.00    +0.000 NA
ATOM     24  C   UNL     1      47.546   1.967   6.716  0.00  0.00    +0.000 C 
ENDBRANCH  17  24
ENDBRANCH  15  20
ENDBRANCH  14  15
ENDBRANCH   1  14
TORSDOF 7
ENDMDL
MODEL 4
REMARK VINA RESULT:    -7.055      2.930      5.096
REMARK INTER + INTRA:         -11.034
REMARK INTER:                 -10.279
REMARK INTRA:                  -0.755
REMARK UNBOUND:                -1.093
REMARK  Name = 
REMARK  7 active torsions:
REMARK  status: ('A' for Active; 'I' for Inactive)
REMARK    1  A    between atoms: C_2  and  C_3
REMARK    2  A    between atoms: C_6  and  N_7
REMARK    3  A    between atoms: N_7  and  C_8
REMARK    4  A    between atoms: C_8  and  C_9
REMARK    5  A    between atoms: C_9  and  C_11
REMARK    6  A    between atoms: C_15  and  O_16
REMARK    7  A    between atoms: O_16  and  C_17
REMARK                            x       y       z     vdW  Elec       q    Type
REMARK                         _______ _______ _______ _____ _____    ______ ____
ROOT
ATOM      1  C   UNL     1      45.418   5.300  11.745  0.00  0.00    +0.000 C 
ATOM      2  F   UNL     1      45.317   4.561  12.898  0.00  0.00    +0.000 F 
ENDROOT
BRANCH   1   3
ATOM      3  C   UNL     1      45.944   6.699  12.001  0.00  0.00    +0.000 A 
ATOM      4  C   UNL     1      47.287   6.912  12.332  0.00  0.00    +0.000 A 
ATOM      5  C   UNL     1      47.791   8.213  12.428  0.00  0.00    +0.000 A 
ATOM      6  C   UNL     1      46.957   9.320  12.218  0.00  0.00    +0.000 A 
ATOM      7  C   UNL     1      45.607   9.123  11.943  0.00  0.00    +0.000 A 
ATOM      8  C   UNL     1      45.113   7.819  11.826  0.00  0.00    +0.000 A 
BRANCH   7   9
ATOM      9  O   UNL     1      44.678  10.107  11.706  0.00  0.00    +0.000 OA
BRANCH   9  10
ATOM     10  C   UNL     1      43.615   9.888  10.754  0.00  0.00    +0.000 C 
ATOM     11  C   UNL     1      43.691  10.655   9.412  0.00  0.00    +0.000 C 
ATOM     12  C   UNL     1      42.199  10.994   9.553  0.00  0.00    +0.000 C 
ATOM     13  C   UNL     1      42.314  10.684  11.051  0.00  0.00    +0.000 C 
ENDBRANCH   9  10
ENDBRANCH   7   9
ENDBRANCH   1   3
BRANCH   1  14
ATOM     14  C   UNL     1      44.037   5.279  11.054  0.00  0.00    +0.000 C 
BRANCH  14  15
ATOM     15  N   UNL     1      43.784   3.970  10.430  0.00  0.00    +0.000 N 
ATOM     16  H   UNL     1      42.792   3.829  10.236  0.00  0.00    +0.000 HD
BRANCH  15  20
ATOM     17  C   UNL     1      46.545   2.482   7.595  0.00  0.00    +0.000 A 
ATOM     18  C   UNL     1      46.263   3.847   7.633  0.00  0.00    +0.000 A 
ATOM     19  C   UNL     1      45.309   4.349   8.530  0.00  0.00    +0.000 A 
ATOM     20  C   UNL     1      44.613   3.507   9.406  0.00  0.00    +0.000 A 
ATOM     21  C   UNL     1      44.904   2.134   9.345  0.00  0.00    +0.000 A 
ATOM     22  C   UNL     1      45.850   1.621   8.444  0.00  0.00    +0.000 A 
BRANCH  17  24
ATOM     23  N   UNL     1      48.380   1.560   6.008  0.00  0.00    +0.000 NA
ATOM     24  C   UNL     1      47.563   1.972   6.717  0.00  0.00    +0.000 C 
ENDBRANCH  17  24
ENDBRANCH  15  20
ENDBRANCH  14  15
ENDBRANCH   1  14
TORSDOF 7
ENDMDL
MODEL 5
REMARK VINA RESULT:    -6.981      2.201      3.170
REMARK INTER + INTRA:         -10.930
REMARK INTER:                 -10.179
REMARK INTRA:                  -0.752
REMARK UNBOUND:                -1.093
REMARK  Name = 
REMARK  7 active torsions:
REMARK  status: ('A' for Active; 'I' for Inactive)
REMARK    1  A    between atoms: C_2  and  C_3
REMARK    2  A    between atoms: C_6  and  N_7
REMARK    3  A    between atoms: N_7  and  C_8
REMARK    4  A    between atoms: C_8  and  C_9
REMARK    5  A    between atoms: C_9  and  C_11
REMARK    6  A    between atoms: C_15  and  O_16
REMARK    7  A    between atoms: O_16  and  C_17
REMARK                            x       y       z     vdW  Elec       q    Type
REMARK                         _______ _______ _______ _____ _____    ______ ____
ROOT
ATOM      1  C   UNL     1      43.951   4.588  12.688  0.00  0.00    +0.000 C 
ATOM      2  F   UNL     1      42.624   4.772  12.388  0.00  0.00    +0.000 F 
ENDROOT
BRANCH   1   3
ATOM      3  C   UNL     1      44.773   5.842  12.466  0.00  0.00    +0.000 A 
ATOM      4  C   UNL     1      44.291   6.884  11.666  0.00  0.00    +0.000 A 
ATOM      5  C   UNL     1      44.994   8.090  11.581  0.00  0.00    +0.000 A 
ATOM      6  C   UNL     1      46.199   8.266  12.275  0.00  0.00    +0.000 A 
ATOM      7  C   UNL     1      46.717   7.217  13.030  0.00  0.00    +0.000 A 
ATOM      8  C   UNL     1      45.999   6.021  13.130  0.00  0.00    +0.000 A 
BRANCH   7   9
ATOM      9  O   UNL     1      47.876   7.248  13.768  0.00  0.00    +0.000 OA
BRANCH   9  10
ATOM     10  C   UNL     1      49.158   7.141  13.112  0.00  0.00    +0.000 C 
ATOM     11  C   UNL     1      50.069   8.392  13.119  0.00  0.00    +0.000 C 
ATOM     12  C   UNL     1      50.361   8.153  11.629  0.00  0.00    +0.000 C 
ATOM     13  C   UNL     1      49.100   7.281  11.565  0.00  0.00    +0.000 C 
ENDBRANCH   9  10
ENDBRANCH   7   9
ENDBRANCH   1   3
BRANCH   1  14
ATOM     14  C   UNL     1      44.449   3.374  11.871  0.00  0.00    +0.000 C 
BRANCH  14  15
ATOM     15  N   UNL     1      43.888   3.394  10.510  0.00  0.00    +0.000 N 
ATOM     16  H   UNL     1      43.281   4.201  10.362  0.00  0.00    +0.000 HD
BRANCH  15  20
ATOM     17  C   UNL     1      46.615   2.441   7.423  0.00  0.00    +0.000 A 
ATOM     18  C   UNL     1      46.270   3.772   7.651  0.00  0.00    +0.000 A 
ATOM     19  C   UNL     1      45.326   4.101   8.635  0.00  0.00    +0.000 A 
ATOM     20  C   UNL     1      44.701   3.115   9.409  0.00  0.00    +0.000 A 
ATOM     21  C   UNL     1      45.055   1.780   9.156  0.00  0.00    +0.000 A 
ATOM     22  C   UNL     1      45.992   1.440   8.168  0.00  0.00    +0.000 A 
BRANCH  17  24
ATOM     23  N   UNL     1      48.437   1.838   5.675  0.00  0.00    +0.000 NA
ATOM     24  C   UNL     1      47.625   2.105   6.455  0.00  0.00    +0.000 C 
ENDBRANCH  17  24
ENDBRANCH  15  20
ENDBRANCH  14  15
ENDBRANCH   1  14
TORSDOF 7
ENDMDL
MODEL 6
REMARK VINA RESULT:    -6.786      3.069      7.543
REMARK INTER + INTRA:         -10.656
REMARK INTER:                  -9.788
REMARK INTRA:                  -0.868
REMARK UNBOUND:                -1.093
REMARK  Name = 
REMARK  7 active torsions:
REMARK  status: ('A' for Active; 'I' for Inactive)
REMARK    1  A    between atoms: C_2  and  C_3
REMARK    2  A    between atoms: C_6  and  N_7
REMARK    3  A    between atoms: N_7  and  C_8
REMARK    4  A    between atoms: C_8  and  C_9
REMARK    5  A    between atoms: C_9  and  C_11
REMARK    6  A    between atoms: C_15  and  O_16
REMARK    7  A    between atoms: O_16  and  C_17
REMARK                            x       y       z     vdW  Elec       q    Type
REMARK                         _______ _______ _______ _____ _____    ______ ____
ROOT
ATOM      1  C   UNL     1      44.829   6.473  11.863  0.00  0.00    +0.000 C 
ATOM      2  F   UNL     1      44.272   6.387  13.114  0.00  0.00    +0.000 F 
ENDROOT
BRANCH   1   3
ATOM      3  C   UNL     1      44.742   5.165  11.101  0.00  0.00    +0.000 A 
ATOM      4  C   UNL     1      44.183   4.026  11.692  0.00  0.00    +0.000 A 
ATOM      5  C   UNL     1      43.981   2.867  10.935  0.00  0.00    +0.000 A 
ATOM      6  C   UNL     1      44.354   2.820   9.585  0.00  0.00    +0.000 A 
ATOM      7  C   UNL     1      44.962   3.928   9.000  0.00  0.00    +0.000 A 
ATOM      8  C   UNL     1      45.141   5.092   9.755  0.00  0.00    +0.000 A 
BRANCH   7   9
ATOM      9  O   UNL     1      45.369   4.030   7.692  0.00  0.00    +0.000 OA
BRANCH   9  10
ATOM     10  C   UNL     1      46.657   3.516   7.290  0.00  0.00    +0.000 C 
ATOM     11  C   UNL     1      46.862   3.200   5.789  0.00  0.00    +0.000 C 
ATOM     12  C   UNL     1      47.527   1.873   6.188  0.00  0.00    +0.000 C 
ATOM     13  C   UNL     1      46.856   1.999   7.563  0.00  0.00    +0.000 C 
ENDBRANCH   9  10
ENDBRANCH   7   9
ENDBRANCH   1   3
BRANCH   1  14
ATOM     14  C   UNL     1      46.275   6.991  12.030  0.00  0.00    +0.000 C 
BRANCH  14  15
ATOM     15  N   UNL     1      47.172   5.907  12.468  0.00  0.00    +0.000 N 
ATOM     16  H   UNL     1      48.037   5.892  11.928  0.00  0.00    +0.000 HD
BRANCH  15  20
ATOM     17  C   UNL     1      48.132   5.084  16.501  0.00  0.00    +0.000 A 
ATOM     18  C   UNL     1      47.244   4.252  15.820  0.00  0.00    +0.000 A 
ATOM     19  C   UNL     1      46.873   4.542  14.499  0.00  0.00    +0.000 A 
ATOM     20  C   UNL     1      47.372   5.666  13.829  0.00  0.00    +0.000 A 
ATOM     21  C   UNL     1      48.256   6.496  14.537  0.00  0.00    +0.000 A 
ATOM     22  C   UNL     1      48.627   6.220  15.861  0.00  0.00    +0.000 A 
BRANCH  17  24
ATOM     23  N   UNL     1      48.902   4.492  18.909  0.00  0.00    +0.000 NA
ATOM     24  C   UNL     1      48.558   4.757  17.836  0.00  0.00    +0.000 C 
ENDBRANCH  17  24
ENDBRANCH  15  20
ENDBRANCH  14  15
ENDBRANCH   1  14
TORSDOF 7
ENDMDL
MODEL 7
REMARK VINA RESULT:    -6.301      3.555      7.044
REMARK INTER + INTRA:          -9.972
REMARK INTER:                  -9.334
REMARK INTRA:                  -0.638
REMARK UNBOUND:                -1.093
REMARK  Name = 
REMARK  7 active torsions:
REMARK  status: ('A' for Active; 'I' for Inactive)
REMARK    1  A    between atoms: C_2  and  C_3
REMARK    2  A    between atoms: C_6  and  N_7
REMARK    3  A    between atoms: N_7  and  C_8
REMARK    4  A    between atoms: C_8  and  C_9
REMARK    5  A    between atoms: C_9  and  C_11
REMARK    6  A    between atoms: C_15  and  O_16
REMARK    7  A    between atoms: O_16  and  C_17
REMARK                            x       y       z     vdW  Elec       q    Type
REMARK                         _______ _______ _______ _____ _____    ______ ____
ROOT
ATOM      1  C   UNL     1      43.017   5.782  11.399  0.00  0.00    +0.000 C 
ATOM      2  F   UNL     1      42.603   5.608  12.697  0.00  0.00    +0.000 F 
ENDROOT
BRANCH   1   3
ATOM      3  C   UNL     1      43.605   4.517  10.806  0.00  0.00    +0.000 A 
ATOM      4  C   UNL     1      43.545   3.303  11.500  0.00  0.00    +0.000 A 
ATOM      5  C   UNL     1      43.964   2.119  10.885  0.00  0.00    +0.000 A 
ATOM      6  C   UNL     1      44.471   2.132   9.579  0.00  0.00    +0.000 A 
ATOM      7  C   UNL     1      44.588   3.341   8.898  0.00  0.00    +0.000 A 
ATOM      8  C   UNL     1      44.146   4.520   9.509  0.00  0.00    +0.000 A 
BRANCH   7   9
ATOM      9  O   UNL     1      45.055   3.504   7.616  0.00  0.00    +0.000 OA
BRANCH   9  10
ATOM     10  C   UNL     1      46.457   3.319   7.324  0.00  0.00    +0.000 C 
ATOM     11  C   UNL     1      46.871   3.246   5.835  0.00  0.00    +0.000 C 
ATOM     12  C   UNL     1      47.765   2.042   6.172  0.00  0.00    +0.000 C 
ATOM     13  C   UNL     1      46.951   1.851   7.459  0.00  0.00    +0.000 C 
ENDBRANCH   9  10
ENDBRANCH   7   9
ENDBRANCH   1   3
BRANCH   1  14
ATOM     14  C   UNL     1      43.991   6.982  11.377  0.00  0.00    +0.000 C 
BRANCH  14  15
ATOM     15  N   UNL     1      44.826   7.000  12.590  0.00  0.00    +0.000 N 
ATOM     16  H   UNL     1      44.641   6.194  13.189  0.00  0.00    +0.000 HD
BRANCH  15  20
ATOM     17  C   UNL     1      48.959   7.883  12.700  0.00  0.00    +0.000 A 
ATOM     18  C   UNL     1      48.039   8.911  12.496  0.00  0.00    +0.000 A 
ATOM     19  C   UNL     1      46.669   8.627  12.403  0.00  0.00    +0.000 A 
ATOM     20  C   UNL     1      46.184   7.318  12.505  0.00  0.00    +0.000 A 
ATOM     21  C   UNL     1      47.127   6.296  12.700  0.00  0.00    +0.000 A 
ATOM     22  C   UNL     1      48.501   6.568  12.787  0.00  0.00    +0.000 A 
BRANCH  17  24
ATOM     23  N   UNL     1      51.485   8.415  12.976  0.00  0.00    +0.000 NA
ATOM     24  C   UNL     1      50.358   8.177  12.854  0.00  0.00    +0.000 C 
ENDBRANCH  17  24
ENDBRANCH  15  20
ENDBRANCH  14  15
ENDBRANCH   1  14
TORSDOF 7
ENDMDL
MODEL 8
REMARK VINA RESULT:    -6.077      3.896      7.772
REMARK INTER + INTRA:          -9.657
REMARK INTER:                  -9.088
REMARK INTRA:                  -0.570
REMARK UNBOUND:                -1.093
REMARK  Name = 
REMARK  7 active torsions:
REMARK  status: ('A' for Active; 'I' for Inactive)
REMARK    1  A    between atoms: C_2  and  C_3
REMARK    2  A    between atoms: C_6  and  N_7
REMARK    3  A    between atoms: N_7  and  C_8
REMARK    4  A    between atoms: C_8  and  C_9
REMARK    5  A    between atoms: C_9  and  C_11
REMARK    6  A    between atoms: C_15  and  O_16
REMARK    7  A    between atoms: O_16  and  C_17
REMARK                            x       y       z     vdW  Elec       q    Type
REMARK                         _______ _______ _______ _____ _____    ______ ____
ROOT
ATOM      1  C   UNL     1      46.513   4.370  14.190  0.00  0.00    +0.000 C 
ATOM      2  F   UNL     1      47.217   3.314  13.668  0.00  0.00    +0.000 F 
ENDROOT
BRANCH   1   3
ATOM      3  C   UNL     1      45.764   5.149  13.126  0.00  0.00    +0.000 A 
ATOM      4  C   UNL     1      45.891   6.539  13.031  0.00  0.00    +0.000 A 
ATOM      5  C   UNL     1      45.308   7.229  11.963  0.00  0.00    +0.000 A 
ATOM      6  C   UNL     1      44.571   6.544  10.987  0.00  0.00    +0.000 A 
ATOM      7  C   UNL     1      44.391   5.168  11.100  0.00  0.00    +0.000 A 
ATOM      8  C   UNL     1      44.995   4.480  12.158  0.00  0.00    +0.000 A 
BRANCH   7   9
ATOM      9  O   UNL     1      43.705   4.368  10.219  0.00  0.00    +0.000 OA
BRANCH   9  10
ATOM     10  C   UNL     1      44.241   4.112   8.903  0.00  0.00    +0.000 C 
ATOM     11  C   UNL     1      44.751   2.681   8.607  0.00  0.00    +0.000 C 
ATOM     12  C   UNL     1      45.998   3.292   7.948  0.00  0.00    +0.000 C 
ATOM     13  C   UNL     1      45.703   4.597   8.699  0.00  0.00    +0.000 C 
ENDBRANCH   9  10
ENDBRANCH   7   9
ENDBRANCH   1   3
BRANCH   1  14
ATOM     14  C   UNL     1      47.502   5.235  15.002  0.00  0.00    +0.000 C 
BRANCH  14  15
ATOM     15  N   UNL     1      47.540   4.805  16.410  0.00  0.00    +0.000 N 
ATOM     16  H   UNL     1      46.620   4.512  16.740  0.00  0.00    +0.000 HD
BRANCH  15  20
ATOM     17  C   UNL     1      50.880   2.466  17.524  0.00  0.00    +0.000 A 
ATOM     18  C   UNL     1      49.763   1.849  16.962  0.00  0.00    +0.000 A 
ATOM     19  C   UNL     1      48.626   2.603  16.637  0.00  0.00    +0.000 A 
ATOM     20  C   UNL     1      48.572   3.984  16.868  0.00  0.00    +0.000 A 
ATOM     21  C   UNL     1      49.704   4.583  17.444  0.00  0.00    +0.000 A 
ATOM     22  C   UNL     1      50.843   3.836  17.781  0.00  0.00    +0.000 A 
BRANCH  17  24
ATOM     23  N   UNL     1      53.024   1.093  18.034  0.00  0.00    +0.000 NA
ATOM     24  C   UNL     1      52.068   1.705  17.805  0.00  0.00    +0.000 C 
ENDBRANCH  17  24
ENDBRANCH  15  20
ENDBRANCH  14  15
ENDBRANCH   1  14
TORSDOF 7
ENDMDL
MODEL 9
REMARK VINA RESULT:    -5.846      2.560      4.125
REMARK INTER + INTRA:          -9.332
REMARK INTER:                  -8.280
REMARK INTRA:                  -1.052
REMARK UNBOUND:                -1.093
REMARK  Name = 
REMARK  7 active torsions:
REMARK  status: ('A' for Active; 'I' for Inactive)
REMARK    1  A    between atoms: C_2  and  C_3
REMARK    2  A    between atoms: C_6  and  N_7
REMARK    3  A    between atoms: N_7  and  C_8
REMARK    4  A    between atoms: C_8  and  C_9
REMARK    5  A    between atoms: C_9  and  C_11
REMARK    6  A    between atoms: C_15  and  O_16
REMARK    7  A    between atoms: O_16  and  C_17
REMARK                            x       y       z     vdW  Elec       q    Type
REMARK                         _______ _______ _______ _____ _____    ______ ____
ROOT
ATOM      1  C   UNL     1      47.978   8.258  12.969  0.00  0.00    +0.000 C 
ATOM      2  F   UNL     1      48.495   7.291  12.143  0.00  0.00    +0.000 F 
ENDROOT
BRANCH   1   3
ATOM      3  C   UNL     1      48.382   8.057  14.417  0.00  0.00    +0.000 A 
ATOM      4  C   UNL     1      48.197   9.073  15.361  0.00  0.00    +0.000 A 
ATOM      5  C   UNL     1      48.443   8.829  16.716  0.00  0.00    +0.000 A 
ATOM      6  C   UNL     1      48.899   7.575  17.145  0.00  0.00    +0.000 A 
ATOM      7  C   UNL     1      49.140   6.573  16.209  0.00  0.00    +0.000 A 
ATOM      8  C   UNL     1      48.871   6.815  14.858  0.00  0.00    +0.000 A 
BRANCH   7   9
ATOM      9  O   UNL     1      49.576   5.299  16.483  0.00  0.00    +0.000 OA
BRANCH   9  10
ATOM     10  C   UNL     1      48.858   4.472  17.423  0.00  0.00    +0.000 C 
ATOM     11  C   UNL     1      48.947   2.938  17.237  0.00  0.00    +0.000 C 
ATOM     12  C   UNL     1      47.430   2.850  17.466  0.00  0.00    +0.000 C 
ATOM     13  C   UNL     1      47.336   4.346  17.135  0.00  0.00    +0.000 C 
ENDBRANCH   9  10
ENDBRANCH   7   9
ENDBRANCH   1   3
BRANCH   1  14
ATOM     14  C   UNL     1      46.448   8.284  12.756  0.00  0.00    +0.000 C 
BRANCH  14  15
ATOM     15  N   UNL     1      45.829   7.045  13.256  0.00  0.00    +0.000 N 
ATOM     16  H   UNL     1      45.127   7.235  13.972  0.00  0.00    +0.000 HD
BRANCH  15  20
ATOM     17  C   UNL     1      44.979   3.834  10.641  0.00  0.00    +0.000 A 
ATOM     18  C   UNL     1      45.257   5.095  10.116  0.00  0.00    +0.000 A 
ATOM     19  C   UNL     1      45.488   6.183  10.971  0.00  0.00    +0.000 A 
ATOM     20  C   UNL     1      45.442   6.042  12.363  0.00  0.00    +0.000 A 
ATOM     21  C   UNL     1      45.150   4.766  12.871  0.00  0.00    +0.000 A 
ATOM     22  C   UNL     1      44.910   3.673  12.025  0.00  0.00    +0.000 A 
BRANCH  17  24
ATOM     23  N   UNL     1      44.655   1.798   9.063  0.00  0.00    +0.000 NA
ATOM     24  C   UNL     1      44.800   2.705   9.768  0.00  0.00    +0.000 C 
ENDBRANCH  17  24
ENDBRANCH  15  20
ENDBRANCH  14  15
ENDBRANCH   1  14
TORSDOF 7
ENDMDL
