MODEL 1
REMARK VINA RESULT:    -7.395      0.000      0.000
REMARK INTER + INTRA:          -9.895
REMARK INTER:                  -9.340
REMARK INTRA:                  -0.555
REMARK UNBOUND:                -0.555
REMARK  Name = 
REMARK  5 active torsions:
REMARK  status: ('A' for Active; 'I' for Inactive)
REMARK    1  A    between atoms: N_1  and  C_2
REMARK    2  A    between atoms: C_2  and  C_3
REMARK    3  A    between atoms: C_3  and  C_4
REMARK    4  A    between atoms: C_7  and  C_8
REMARK    5  A    between atoms: C_8  and  N_9
REMARK                            x       y       z     vdW  Elec       q    Type
REMARK                         _______ _______ _______ _____ _____    ______ ____
ROOT
ATOM      1  C   UNL     1      45.773   2.625   8.199  0.00  0.00    +0.000 A 
ATOM      2  C   UNL     1      44.994   1.948   9.142  0.00  0.00    +0.000 A 
ATOM      3  C   UNL     1      44.245   2.669  10.086  0.00  0.00    +0.000 A 
ATOM      4  C   UNL     1      44.278   4.075  10.102  0.00  0.00    +0.000 A 
ATOM      5  C   UNL     1      45.072   4.734   9.150  0.00  0.00    +0.000 A 
ATOM      6  C   UNL     1      45.796   4.020   8.204  0.00  0.00    +0.000 A 
ENDROOT
BRANCH   1   7
ATOM      7  C   UNL     1      46.575   1.844   7.185  0.00  0.00    +0.000 C 
BRANCH   7   8
ATOM      8  C   UNL     1      47.879   2.529   6.788  0.00  0.00    +0.000 C 
BRANCH   8   9
ATOM      9  N   UNL     1      48.542   1.791   5.700  0.00  0.00    +0.000 NA
ATOM     10  H   UNL     1      49.427   2.258   5.480  0.00  0.00    +0.000 HD
ATOM     11  H   UNL     1      47.946   1.851   4.863  0.00  0.00    +0.000 HD
ENDBRANCH   8   9
ENDBRANCH   7   8
ENDBRANCH   1   7
BRANCH   4  12
ATOM     12  C   UNL     1      43.456   4.847  11.110  0.00  0.00    +0.000 C 
BRANCH  12  13
ATOM     13  N   UNL     1      44.102   6.062  11.578  0.00  0.00    +0.000 N 
ATOM     14  C   UNL     1      43.875   7.305  11.035  0.00  0.00    +0.000 A 
ATOM     15  C   UNL     1      44.712   8.204  11.655  0.00  0.00    +0.000 A 
ATOM     16  C   UNL     1      45.697   7.433  12.322  0.00  0.00    +0.000 A 
ATOM     17  C   UNL     1      46.971   7.736  12.832  0.00  0.00    +0.000 A 
ATOM     18  C   UNL     1      47.718   6.711  13.422  0.00  0.00    +0.000 A 
ATOM     19 CL   UNL     1      49.363   7.002  13.838  0.00  0.00    +0.000 Cl
ATOM     20  C   UNL     1      47.168   5.450  13.629  0.00  0.00    +0.000 A 
ATOM     21  C   UNL     1      45.892   5.136  13.141  0.00  0.00    +0.000 A 
ATOM     22  C   UNL     1      45.218   6.119  12.396  0.00  0.00    +0.000 A 
ENDBRANCH  12  13
ENDBRANCH   4  12
TORSDOF 5
ENDMDL
MODEL 2
REMARK VINA RESULT:    -7.093      1.417      2.169
REMARK INTER + INTRA:          -9.514
REMARK INTER:                  -8.951
REMARK INTRA:                  -0.563
REMARK UNBOUND:                -0.555
REMARK  Name = 
REMARK  5 active torsions:
REMARK  status: ('A' for Active; 'I' for Inactive)
REMARK    1  A    between atoms: N_1  and  C_2
REMARK    2  A    between atoms: C_2  and  C_3
REMARK    3  A    between atoms: C_3  and  C_4
REMARK    4  A    between atoms: C_7  and  C_8
REMARK    5  A    between atoms: C_8  and  N_9
REMARK                            x       y       z     vdW  Elec       q    Type
REMARK                         _______ _______ _______ _____ _____    ______ ____
ROOT
ATOM      1  C   UNL     1      45.886   3.015   7.819  0.00  0.00    +0.000 A 
ATOM      2  C   UNL     1      45.319   2.315   8.887  0.00  0.00    +0.000 A 
ATOM      3  C   UNL     1      44.960   2.994  10.063  0.00  0.00    +0.000 A 
ATOM      4  C   UNL     1      45.175   4.379  10.184  0.00  0.00    +0.000 A 
ATOM      5  C   UNL     1      45.751   5.060   9.100  0.00  0.00    +0.000 A 
ATOM      6  C   UNL     1      46.087   4.392   7.931  0.00  0.00    +0.000 A 
ENDROOT
BRANCH   1   7
ATOM      7  C   UNL     1      46.268   2.280   6.556  0.00  0.00    +0.000 C 
BRANCH   7   8
ATOM      8  C   UNL     1      47.519   1.420   6.711  0.00  0.00    +0.000 C 
BRANCH   8   9
ATOM      9  N   UNL     1      48.543   1.810   5.728  0.00  0.00    +0.000 NA
ATOM     10  H   UNL     1      49.088   2.587   6.115  0.00  0.00    +0.000 HD
ATOM     11  H   UNL     1      48.063   2.159   4.887  0.00  0.00    +0.000 HD
ENDBRANCH   8   9
ENDBRANCH   7   8
ENDBRANCH   1   7
BRANCH   4  12
ATOM     12  C   UNL     1      44.771   5.107  11.446  0.00  0.00    +0.000 C 
BRANCH  12  13
ATOM     13  N   UNL     1      45.812   5.133  12.461  0.00  0.00    +0.000 N 
ATOM     14  C   UNL     1      45.743   4.435  13.644  0.00  0.00    +0.000 A 
ATOM     15  C   UNL     1      46.847   4.757  14.398  0.00  0.00    +0.000 A 
ATOM     16  C   UNL     1      47.398   5.926  13.815  0.00  0.00    +0.000 A 
ATOM     17  C   UNL     1      48.289   6.906  14.285  0.00  0.00    +0.000 A 
ATOM     18  C   UNL     1      48.614   7.975  13.443  0.00  0.00    +0.000 A 
ATOM     19 CL   UNL     1      49.511   9.301  14.078  0.00  0.00    +0.000 Cl
ATOM     20  C   UNL     1      48.181   8.006  12.122  0.00  0.00    +0.000 A 
ATOM     21  C   UNL     1      47.305   7.028  11.632  0.00  0.00    +0.000 A 
ATOM     22  C   UNL     1      46.844   6.053  12.534  0.00  0.00    +0.000 A 
ENDBRANCH  12  13
ENDBRANCH   4  12
TORSDOF 5
ENDMDL
MODEL 3
REMARK VINA RESULT:    -6.804      2.746      6.417
REMARK INTER + INTRA:          -9.149
REMARK INTER:                  -8.489
REMARK INTRA:                  -0.659
REMARK UNBOUND:                -0.555
REMARK  Name = 
REMARK  5 active torsions:
REMARK  status: ('A' for Active; 'I' for Inactive)
REMARK    1  A    between atoms: N_1  and  C_2
REMARK    2  A    between atoms: C_2  and  C_3
REMARK    3  A    between atoms: C_3  and  C_4
REMARK    4  A    between atoms: C_7  and  C_8
REMARK    5  A    between atoms: C_8  and  N_9
REMARK                            x       y       z     vdW  Elec       q    Type
REMARK                         _______ _______ _______ _____ _____    ______ ____
ROOT
ATOM      1  C   UNL     1      47.473   6.645  13.279  0.00  0.00    +0.000 A 
ATOM      2  C   UNL     1      46.656   5.611  13.743  0.00  0.00    +0.000 A 
ATOM      3  C   UNL     1      45.502   5.251  13.030  0.00  0.00    +0.000 A 
ATOM      4  C   UNL     1      45.149   5.930  11.850  0.00  0.00    +0.000 A 
ATOM      5  C   UNL     1      45.981   6.969  11.406  0.00  0.00    +0.000 A 
ATOM      6  C   UNL     1      47.133   7.312  12.101  0.00  0.00    +0.000 A 
ENDROOT
BRANCH   1   7
ATOM      7  C   UNL     1      48.715   7.028  14.050  0.00  0.00    +0.000 C 
BRANCH   7   8
ATOM      8  C   UNL     1      48.777   8.511  14.401  0.00  0.00    +0.000 C 
BRANCH   8   9
ATOM      9  N   UNL     1      47.671   8.879  15.301  0.00  0.00    +0.000 NA
ATOM     10  H   UNL     1      47.403   9.848  15.110  0.00  0.00    +0.000 HD
ATOM     11  H   UNL     1      48.021   8.840  16.268  0.00  0.00    +0.000 HD
ENDBRANCH   8   9
ENDBRANCH   7   8
ENDBRANCH   1   7
BRANCH   4  12
ATOM     12  C   UNL     1      43.913   5.526  11.077  0.00  0.00    +0.000 C 
BRANCH  12  13
ATOM     13  N   UNL     1      43.979   4.179  10.538  0.00  0.00    +0.000 N 
ATOM     14  C   UNL     1      43.559   3.061  11.221  0.00  0.00    +0.000 A 
ATOM     15  C   UNL     1      43.848   1.956  10.456  0.00  0.00    +0.000 A 
ATOM     16  C   UNL     1      44.769   2.387   9.468  0.00  0.00    +0.000 A 
ATOM     17  C   UNL     1      45.669   1.705   8.630  0.00  0.00    +0.000 A 
ATOM     18  C   UNL     1      46.476   2.452   7.766  0.00  0.00    +0.000 A 
ATOM     19 CL   UNL     1      47.743   1.663   6.908  0.00  0.00    +0.000 Cl
ATOM     20  C   UNL     1      46.305   3.826   7.631  0.00  0.00    +0.000 A 
ATOM     21  C   UNL     1      45.401   4.519   8.447  0.00  0.00    +0.000 A 
ATOM     22  C   UNL     1      44.718   3.786   9.434  0.00  0.00    +0.000 A 
ENDBRANCH  12  13
ENDBRANCH   4  12
TORSDOF 5
ENDMDL
MODEL 4
REMARK VINA RESULT:    -6.067      1.807      2.371
REMARK INTER + INTRA:          -8.218
REMARK INTER:                  -7.819
REMARK INTRA:                  -0.399
REMARK UNBOUND:                -0.555
REMARK  Name = 
REMARK  5 active torsions:
REMARK  status: ('A' for Active; 'I' for Inactive)
REMARK    1  A    between atoms: N_1  and  C_2
REMARK    2  A    between atoms: C_2  and  C_3
REMARK    3  A    between atoms: C_3  and  C_4
REMARK    4  A    between atoms: C_7  and  C_8
REMARK    5  A    between atoms: C_8  and  N_9
REMARK                            x       y       z     vdW  Elec       q    Type
REMARK                         _______ _______ _______ _____ _____    ______ ____
ROOT
ATOM      1  C   UNL     1      45.238   3.787   9.086  0.00  0.00    +0.000 A 
ATOM      2  C   UNL     1      44.803   3.153  10.253  0.00  0.00    +0.000 A 
ATOM      3  C   UNL     1      44.807   3.846  11.474  0.00  0.00    +0.000 A 
ATOM      4  C   UNL     1      45.256   5.177  11.541  0.00  0.00    +0.000 A 
ATOM      5  C   UNL     1      45.693   5.792  10.357  0.00  0.00    +0.000 A 
ATOM      6  C   UNL     1      45.670   5.113   9.147  0.00  0.00    +0.000 A 
ENDROOT
BRANCH   1   7
ATOM      7  C   UNL     1      45.230   3.038   7.774  0.00  0.00    +0.000 C 
BRANCH   7   8
ATOM      8  C   UNL     1      46.615   2.896   7.150  0.00  0.00    +0.000 C 
BRANCH   8   9
ATOM      9  N   UNL     1      46.814   3.902   6.094  0.00  0.00    +0.000 NA
ATOM     10  H   UNL     1      45.944   3.995   5.563  0.00  0.00    +0.000 HD
ATOM     11  H   UNL     1      47.535   3.550   5.449  0.00  0.00    +0.000 HD
ENDBRANCH   8   9
ENDBRANCH   7   8
ENDBRANCH   1   7
BRANCH   4  12
ATOM     12  C   UNL     1      45.242   5.923  12.856  0.00  0.00    +0.000 C 
BRANCH  12  13
ATOM     13  N   UNL     1      45.820   7.253  12.776  0.00  0.00    +0.000 N 
ATOM     14  C   UNL     1      45.097   8.386  12.483  0.00  0.00    +0.000 A 
ATOM     15  C   UNL     1      45.970   9.445  12.402  0.00  0.00    +0.000 A 
ATOM     16  C   UNL     1      47.266   8.883  12.293  0.00  0.00    +0.000 A 
ATOM     17  C   UNL     1      48.502   9.393  11.858  0.00  0.00    +0.000 A 
ATOM     18  C   UNL     1      49.612   8.543  11.849  0.00  0.00    +0.000 A 
ATOM     19 CL   UNL     1      51.070   9.074  11.103  0.00  0.00    +0.000 Cl
ATOM     20  C   UNL     1      49.540   7.261  12.385  0.00  0.00    +0.000 A 
ATOM     21  C   UNL     1      48.319   6.742  12.838  0.00  0.00    +0.000 A 
ATOM     22  C   UNL     1      47.172   7.541  12.683  0.00  0.00    +0.000 A 
ENDBRANCH  12  13
ENDBRANCH   4  12
TORSDOF 5
ENDMDL
MODEL 5
REMARK VINA RESULT:    -5.904      3.007      6.908
REMARK INTER + INTRA:          -8.012
REMARK INTER:                  -8.212
REMARK INTRA:                   0.201
REMARK UNBOUND:                -0.555
REMARK  Name = 
REMARK  5 active torsions:
REMARK  status: ('A' for Active; 'I' for Inactive)
REMARK    1  A    between atoms: N_1  and  C_2
REMARK    2  A    between atoms: C_2  and  C_3
REMARK    3  A    between atoms: C_3  and  C_4
REMARK    4  A    between atoms: C_7  and  C_8
REMARK    5  A    between atoms: C_8  and  N_9
REMARK                            x       y       z     vdW  Elec       q    Type
REMARK                         _______ _______ _______ _____ _____    ______ ____
ROOT
ATOM      1  C   UNL     1      47.708   5.350  15.091  0.00  0.00    +0.000 A 
ATOM      2  C   UNL     1      47.857   6.541  14.377  0.00  0.00    +0.000 A 
ATOM      3  C   UNL     1      47.088   6.773  13.225  0.00  0.00    +0.000 A 
ATOM      4  C   UNL     1      46.169   5.809  12.772  0.00  0.00    +0.000 A 
ATOM      5  C   UNL     1      46.041   4.617  13.503  0.00  0.00    +0.000 A 
ATOM      6  C   UNL     1      46.787   4.397  14.652  0.00  0.00    +0.000 A 
ENDROOT
BRANCH   1   7
ATOM      7  C   UNL     1      48.537   5.107  16.330  0.00  0.00    +0.000 C 
BRANCH   7   8
ATOM      8  C   UNL     1      47.939   5.724  17.590  0.00  0.00    +0.000 C 
BRANCH   8   9
ATOM      9  N   UNL     1      46.838   4.892  18.104  0.00  0.00    +0.000 NA
ATOM     10  H   UNL     1      46.718   5.088  19.102  0.00  0.00    +0.000 HD
ATOM     11  H   UNL     1      47.115   3.905  18.014  0.00  0.00    +0.000 HD
ENDBRANCH   8   9
ENDBRANCH   7   8
ENDBRANCH   1   7
BRANCH   4  12
ATOM     12  C   UNL     1      45.331   6.071  11.541  0.00  0.00    +0.000 C 
BRANCH  12  13
ATOM     13  N   UNL     1      44.836   4.861  10.907  0.00  0.00    +0.000 N 
ATOM     14  C   UNL     1      44.122   3.888  11.568  0.00  0.00    +0.000 A 
ATOM     15  C   UNL     1      43.894   2.853  10.693  0.00  0.00    +0.000 A 
ATOM     16  C   UNL     1      44.782   3.048   9.606  0.00  0.00    +0.000 A 
ATOM     17  C   UNL     1      45.263   2.201   8.593  0.00  0.00    +0.000 A 
ATOM     18  C   UNL     1      46.176   2.715   7.667  0.00  0.00    +0.000 A 
ATOM     19 CL   UNL     1      46.954   1.640   6.570  0.00  0.00    +0.000 Cl
ATOM     20  C   UNL     1      46.503   4.067   7.655  0.00  0.00    +0.000 A 
ATOM     21  C   UNL     1      46.019   4.930   8.648  0.00  0.00    +0.000 A 
ATOM     22  C   UNL     1      45.241   4.370   9.676  0.00  0.00    +0.000 A 
ENDBRANCH  12  13
ENDBRANCH   4  12
TORSDOF 5
ENDMDL
MODEL 6
REMARK VINA RESULT:    -5.731      2.117      3.075
REMARK INTER + INTRA:          -7.794
REMARK INTER:                  -7.336
REMARK INTRA:                  -0.458
REMARK UNBOUND:                -0.555
REMARK  Name = 
REMARK  5 active torsions:
REMARK  status: ('A' for Active; 'I' for Inactive)
REMARK    1  A    between atoms: N_1  and  C_2
REMARK    2  A    between atoms: C_2  and  C_3
REMARK    3  A    between atoms: C_3  and  C_4
REMARK    4  A    between atoms: C_7  and  C_8
REMARK    5  A    between atoms: C_8  and  N_9
REMARK                            x       y       z     vdW  Elec       q    Type
REMARK                         _______ _______ _______ _____ _____    ______ ____
ROOT
ATOM      1  C   UNL     1      45.750   3.184   7.894  0.00  0.00    +0.000 A 
ATOM      2  C   UNL     1      45.041   2.428   8.832  0.00  0.00    +0.000 A 
ATOM      3  C   UNL     1      44.704   2.985  10.076  0.00  0.00    +0.000 A 
ATOM      4  C   UNL     1      45.082   4.301  10.397  0.00  0.00    +0.000 A 
ATOM      5  C   UNL     1      45.798   5.040   9.442  0.00  0.00    +0.000 A 
ATOM      6  C   UNL     1      46.114   4.495   8.205  0.00  0.00    +0.000 A 
ENDROOT
BRANCH   1   7
ATOM      7  C   UNL     1      46.109   2.580   6.557  0.00  0.00    +0.000 C 
BRANCH   7   8
ATOM      8  C   UNL     1      47.330   1.668   6.613  0.00  0.00    +0.000 C 
BRANCH   8   9
ATOM      9  N   UNL     1      48.464   2.274   5.895  0.00  0.00    +0.000 NA
ATOM     10  H   UNL     1      48.162   3.170   5.503  0.00  0.00    +0.000 HD
ATOM     11  H   UNL     1      48.708   1.658   5.106  0.00  0.00    +0.000 HD
ENDBRANCH   8   9
ENDBRANCH   7   8
ENDBRANCH   1   7
BRANCH   4  12
ATOM     12  C   UNL     1      44.702   4.902  11.732  0.00  0.00    +0.000 C 
BRANCH  12  13
ATOM     13  N   UNL     1      45.263   6.223  11.956  0.00  0.00    +0.000 N 
ATOM     14  C   UNL     1      46.266   6.484  12.861  0.00  0.00    +0.000 A 
ATOM     15  C   UNL     1      46.488   7.841  12.877  0.00  0.00    +0.000 A 
ATOM     16  C   UNL     1      45.367   8.434  12.243  0.00  0.00    +0.000 A 
ATOM     17  C   UNL     1      44.844   9.738  12.237  0.00  0.00    +0.000 A 
ATOM     18  C   UNL     1      43.675   9.988  11.511  0.00  0.00    +0.000 A 
ATOM     19 CL   UNL     1      42.890  11.512  11.681  0.00  0.00    +0.000 Cl
ATOM     20  C   UNL     1      43.113   9.011  10.696  0.00  0.00    +0.000 A 
ATOM     21  C   UNL     1      43.631   7.709  10.677  0.00  0.00    +0.000 A 
ATOM     22  C   UNL     1      44.700   7.419  11.543  0.00  0.00    +0.000 A 
ENDBRANCH  12  13
ENDBRANCH   4  12
TORSDOF 5
ENDMDL
MODEL 7
REMARK VINA RESULT:    -5.231      3.400      5.384
REMARK INTER + INTRA:          -7.162
REMARK INTER:                  -6.582
REMARK INTRA:                  -0.580
REMARK UNBOUND:                -0.555
REMARK  Name = 
REMARK  5 active torsions:
REMARK  status: ('A' for Active; 'I' for Inactive)
REMARK    1  A    between atoms: N_1  and  C_2
REMARK    2  A    between atoms: C_2  and  C_3
REMARK    3  A    between atoms: C_3  and  C_4
REMARK    4  A    between atoms: C_7  and  C_8
REMARK    5  A    between atoms: C_8  and  N_9
REMARK                            x       y       z     vdW  Elec       q    Type
REMARK                         _______ _______ _______ _____ _____    ______ ____
ROOT
ATOM      1  C   UNL     1      45.001   5.065  11.833  0.00  0.00    +0.000 A 
ATOM      2  C   UNL     1      45.564   4.516  12.988  0.00  0.00    +0.000 A 
ATOM      3  C   UNL     1      46.761   5.038  13.505  0.00  0.00    +0.000 A 
ATOM      4  C   UNL     1      47.411   6.108  12.864  0.00  0.00    +0.000 A 
ATOM      5  C   UNL     1      46.830   6.640  11.702  0.00  0.00    +0.000 A 
ATOM      6  C   UNL     1      45.636   6.136  11.203  0.00  0.00    +0.000 A 
ENDROOT
BRANCH   1   7
ATOM      7  C   UNL     1      43.712   4.501  11.282  0.00  0.00    +0.000 C 
BRANCH   7   8
ATOM      8  C   UNL     1      43.840   3.059  10.801  0.00  0.00    +0.000 C 
BRANCH   8   9
ATOM      9  N   UNL     1      43.034   2.158  11.641  0.00  0.00    +0.000 NA
ATOM     10  H   UNL     1      43.216   2.377  12.624  0.00  0.00    +0.000 HD
ATOM     11  H   UNL     1      43.355   1.194  11.475  0.00  0.00    +0.000 HD
ENDBRANCH   8   9
ENDBRANCH   7   8
ENDBRANCH   1   7
BRANCH   4  12
ATOM     12  C   UNL     1      48.691   6.677  13.435  0.00  0.00    +0.000 C 
BRANCH  12  13
ATOM     13  N   UNL     1      48.492   7.450  14.648  0.00  0.00    +0.000 N 
ATOM     14  C   UNL     1      48.321   8.815  14.666  0.00  0.00    +0.000 A 
ATOM     15  C   UNL     1      48.252   9.223  15.977  0.00  0.00    +0.000 A 
ATOM     16  C   UNL     1      48.742   8.144  16.755  0.00  0.00    +0.000 A 
ATOM     17  C   UNL     1      49.226   8.050  18.071  0.00  0.00    +0.000 A 
ATOM     18  C   UNL     1      49.671   6.807  18.534  0.00  0.00    +0.000 A 
ATOM     19 CL   UNL     1      50.481   6.717  20.050  0.00  0.00    +0.000 Cl
ATOM     20  C   UNL     1      49.515   5.657  17.767  0.00  0.00    +0.000 A 
ATOM     21  C   UNL     1      49.020   5.731  16.458  0.00  0.00    +0.000 A 
ATOM     22  C   UNL     1      48.737   7.006  15.938  0.00  0.00    +0.000 A 
ENDBRANCH  12  13
ENDBRANCH   4  12
TORSDOF 5
ENDMDL
MODEL 8
REMARK VINA RESULT:    -5.123      2.657      4.402
REMARK INTER + INTRA:          -7.026
REMARK INTER:                  -6.432
REMARK INTRA:                  -0.595
REMARK UNBOUND:                -0.555
REMARK  Name = 
REMARK  5 active torsions:
REMARK  status: ('A' for Active; 'I' for Inactive)
REMARK    1  A    between atoms: N_1  and  C_2
REMARK    2  A    between atoms: C_2  and  C_3
REMARK    3  A    between atoms: C_3  and  C_4
REMARK    4  A    between atoms: C_7  and  C_8
REMARK    5  A    between atoms: C_8  and  N_9
REMARK                            x       y       z     vdW  Elec       q    Type
REMARK                         _______ _______ _______ _____ _____    ______ ____
ROOT
ATOM      1  C   UNL     1      44.907   3.988  11.023  0.00  0.00    +0.000 A 
ATOM      2  C   UNL     1      45.264   5.142  10.320  0.00  0.00    +0.000 A 
ATOM      3  C   UNL     1      45.755   6.263  11.009  0.00  0.00    +0.000 A 
ATOM      4  C   UNL     1      45.884   6.242  12.409  0.00  0.00    +0.000 A 
ATOM      5  C   UNL     1      45.515   5.074  13.095  0.00  0.00    +0.000 A 
ATOM      6  C   UNL     1      45.047   3.960  12.411  0.00  0.00    +0.000 A 
ENDROOT
BRANCH   1   7
ATOM      7  C   UNL     1      44.380   2.785  10.277  0.00  0.00    +0.000 C 
BRANCH   7   8
ATOM      8  C   UNL     1      44.749   2.781   8.797  0.00  0.00    +0.000 C 
BRANCH   8   9
ATOM      9  N   UNL     1      45.838   1.825   8.535  0.00  0.00    +0.000 NA
ATOM     10  H   UNL     1      45.429   0.900   8.376  0.00  0.00    +0.000 HD
ATOM     11  H   UNL     1      46.420   1.763   9.382  0.00  0.00    +0.000 HD
ENDBRANCH   8   9
ENDBRANCH   7   8
ENDBRANCH   1   7
BRANCH   4  12
ATOM     12  C   UNL     1      46.430   7.446  13.144  0.00  0.00    +0.000 C 
BRANCH  12  13
ATOM     13  N   UNL     1      47.818   7.301  13.548  0.00  0.00    +0.000 N 
ATOM     14  C   UNL     1      48.211   6.911  14.808  0.00  0.00    +0.000 A 
ATOM     15  C   UNL     1      49.583   6.966  14.867  0.00  0.00    +0.000 A 
ATOM     16  C   UNL     1      49.998   7.734  13.750  0.00  0.00    +0.000 A 
ATOM     17  C   UNL     1      51.190   8.411  13.438  0.00  0.00    +0.000 A 
ATOM     18  C   UNL     1      51.263   9.117  12.233  0.00  0.00    +0.000 A 
ATOM     19 CL   UNL     1      52.616  10.141  11.941  0.00  0.00    +0.000 Cl
ATOM     20  C   UNL     1      50.240   9.043  11.294  0.00  0.00    +0.000 A 
ATOM     21  C   UNL     1      49.051   8.359  11.582  0.00  0.00    +0.000 A 
ATOM     22  C   UNL     1      48.915   7.798  12.864  0.00  0.00    +0.000 A 
ENDBRANCH  12  13
ENDBRANCH   4  12
TORSDOF 5
ENDMDL
MODEL 9
REMARK VINA RESULT:    -4.933      3.209      4.963
REMARK INTER + INTRA:          -6.786
REMARK INTER:                  -6.133
REMARK INTRA:                  -0.653
REMARK UNBOUND:                -0.555
REMARK  Name = 
REMARK  5 active torsions:
REMARK  status: ('A' for Active; 'I' for Inactive)
REMARK    1  A    between atoms: N_1  and  C_2
REMARK    2  A    between atoms: C_2  and  C_3
REMARK    3  A    between atoms: C_3  and  C_4
REMARK    4  A    between atoms: C_7  and  C_8
REMARK    5  A    between atoms: C_8  and  N_9
REMARK                            x       y       z     vdW  Elec       q    Type
REMARK                         _______ _______ _______ _____ _____    ______ ____
ROOT
ATOM      1  C   UNL     1      44.640   5.390  10.683  0.00  0.00    +0.000 A 
ATOM      2  C   UNL     1      46.016   5.632  10.645  0.00  0.00    +0.000 A 
ATOM      3  C   UNL     1      46.578   6.632  11.455  0.00  0.00    +0.000 A 
ATOM      4  C   UNL     1      45.766   7.406  12.303  0.00  0.00    +0.000 A 
ATOM      5  C   UNL     1      44.386   7.149  12.321  0.00  0.00    +0.000 A 
ATOM      6  C   UNL     1      43.834   6.147  11.534  0.00  0.00    +0.000 A 
ENDROOT
BRANCH   1   7
ATOM      7  C   UNL     1      44.041   4.312   9.810  0.00  0.00    +0.000 C 
BRANCH   7   8
ATOM      8  C   UNL     1      44.355   2.899  10.292  0.00  0.00    +0.000 C 
BRANCH   8   9
ATOM      9  N   UNL     1      43.419   2.493  11.354  0.00  0.00    +0.000 NA
ATOM     10  H   UNL     1      43.199   3.312  11.927  0.00  0.00    +0.000 HD
ATOM     11  H   UNL     1      43.898   1.812  11.959  0.00  0.00    +0.000 HD
ENDBRANCH   8   9
ENDBRANCH   7   8
ENDBRANCH   1   7
BRANCH   4  12
ATOM     12  C   UNL     1      46.380   8.470  13.186  0.00  0.00    +0.000 C 
BRANCH  12  13
ATOM     13  N   UNL     1      46.726   9.688  12.473  0.00  0.00    +0.000 N 
ATOM     14  C   UNL     1      45.810  10.473  11.811  0.00  0.00    +0.000 A 
ATOM     15  C   UNL     1      46.491  11.486  11.178  0.00  0.00    +0.000 A 
ATOM     16  C   UNL     1      47.855  11.101  11.166  0.00  0.00    +0.000 A 
ATOM     17  C   UNL     1      48.965  11.516  10.409  0.00  0.00    +0.000 A 
ATOM     18  C   UNL     1      50.198  10.895  10.633  0.00  0.00    +0.000 A 
ATOM     19 CL   UNL     1      51.506  11.218   9.561  0.00  0.00    +0.000 Cl
ATOM     20  C   UNL     1      50.366   9.986  11.672  0.00  0.00    +0.000 A 
ATOM     21  C   UNL     1      49.274   9.573  12.447  0.00  0.00    +0.000 A 
ATOM     22  C   UNL     1      48.005  10.071  12.104  0.00  0.00    +0.000 A 
ENDBRANCH  12  13
ENDBRANCH   4  12
TORSDOF 5
ENDMDL
