MODEL 1
REMARK VINA RESULT:    -8.459      0.000      0.000
REMARK INTER + INTRA:         -10.565
REMARK INTER:                  -9.943
REMARK INTRA:                  -0.622
REMARK UNBOUND:                -0.622
REMARK  Name = 
REMARK  3 active torsions:
REMARK  status: ('A' for Active; 'I' for Inactive)
REMARK    1  A    between atoms: C_2  and  C_4
REMARK    2  A    between atoms: N_8  and  C_9
REMARK    3  A    between atoms: C_9  and  C_10
REMARK                            x       y       z     vdW  Elec       q    Type
REMARK                         _______ _______ _______ _____ _____    ______ ____
ROOT
ATOM      1  C   UNL     1      46.378   2.716   7.519  0.00  0.00    +0.000 A 
ATOM      2  C   UNL     1      45.859   4.008   7.551  0.00  0.00    +0.000 A 
ATOM      3  C   UNL     1      45.025   4.383   8.607  0.00  0.00    +0.000 A 
ATOM      4  C   UNL     1      44.715   3.460   9.601  0.00  0.00    +0.000 A 
ATOM      5  N   UNL     1      43.821   3.734  10.642  0.00  0.00    +0.000 N 
ATOM      6  N   UNL     1      45.197   2.200   9.570  0.00  0.00    +0.000 NA
ATOM      7  C   UNL     1      46.009   1.853   8.539  0.00  0.00    +0.000 A 
ATOM      8  H   UNL     1      43.817   2.891  11.215  0.00  0.00    +0.000 HD
ENDROOT
BRANCH   1  10
ATOM      9  N   UNL     1      47.391   3.011   5.332  0.00  0.00    +0.000 N 
ATOM     10  C   UNL     1      47.264   2.226   6.445  0.00  0.00    +0.000 C 
ATOM     11  O   UNL     1      47.882   1.178   6.554  0.00  0.00    +0.000 OA
ATOM     12  H   UNL     1      48.074   2.713   4.646  0.00  0.00    +0.000 HD
ATOM     13  H   UNL     1      47.104   3.979   5.311  0.00  0.00    +0.000 HD
ENDBRANCH   1  10
BRANCH   5  14
ATOM     14  C   UNL     1      43.795   5.007  11.387  0.00  0.00    +0.000 C 
ATOM     15  C   UNL     1      42.532   5.229  12.211  0.00  0.00    +0.000 C 
ATOM     16  C   UNL     1      42.829   6.132  11.062  0.00  0.00    +0.000 C 
BRANCH  14  17
ATOM     17  C   UNL     1      45.138   5.385  12.010  0.00  0.00    +0.000 A 
ATOM     18  C   UNL     1      45.956   6.384  11.452  0.00  0.00    +0.000 A 
ATOM     19  C   UNL     1      47.172   6.749  12.041  0.00  0.00    +0.000 A 
ATOM     20  C   UNL     1      47.598   6.125  13.214  0.00  0.00    +0.000 A 
ATOM     21 CL   UNL     1      49.098   6.637  13.902  0.00  0.00    +0.000 Cl
ATOM     22  C   UNL     1      46.808   5.128  13.788  0.00  0.00    +0.000 A 
ATOM     23 CL   UNL     1      47.264   4.301  15.236  0.00  0.00    +0.000 Cl
ATOM     24  C   UNL     1      45.595   4.766  13.188  0.00  0.00    +0.000 A 
ENDBRANCH  14  17
ENDBRANCH   5  14
TORSDOF 3
ENDMDL
MODEL 2
REMARK VINA RESULT:    -7.104      4.230      6.587
REMARK INTER + INTRA:          -8.972
REMARK INTER:                  -8.718
REMARK INTRA:                  -0.254
REMARK UNBOUND:                -0.622
REMARK  Name = 
REMARK  3 active torsions:
REMARK  status: ('A' for Active; 'I' for Inactive)
REMARK    1  A    between atoms: C_2  and  C_4
REMARK    2  A    between atoms: N_8  and  C_9
REMARK    3  A    between atoms: C_9  and  C_10
REMARK                            x       y       z     vdW  Elec       q    Type
REMARK                         _______ _______ _______ _____ _____    ______ ____
ROOT
ATOM      1  C   UNL     1      47.945   6.442  13.918  0.00  0.00    +0.000 A 
ATOM      2  C   UNL     1      47.116   5.353  14.179  0.00  0.00    +0.000 A 
ATOM      3  C   UNL     1      46.172   4.970  13.223  0.00  0.00    +0.000 A 
ATOM      4  C   UNL     1      46.063   5.688  12.037  0.00  0.00    +0.000 A 
ATOM      5  N   UNL     1      45.086   5.418  11.072  0.00  0.00    +0.000 N 
ATOM      6  N   UNL     1      46.847   6.756  11.783  0.00  0.00    +0.000 NA
ATOM      7  C   UNL     1      47.763   7.113  12.719  0.00  0.00    +0.000 A 
ATOM      8  H   UNL     1      45.270   6.080  10.319  0.00  0.00    +0.000 HD
ENDROOT
BRANCH   1  10
ATOM      9  N   UNL     1      48.566   7.180  16.148  0.00  0.00    +0.000 N 
ATOM     10  C   UNL     1      48.969   6.924  14.866  0.00  0.00    +0.000 C 
ATOM     11  O   UNL     1      50.136   7.060  14.531  0.00  0.00    +0.000 OA
ATOM     12  H   UNL     1      49.294   7.415  16.810  0.00  0.00    +0.000 HD
ATOM     13  H   UNL     1      47.689   6.846  16.521  0.00  0.00    +0.000 HD
ENDBRANCH   1  10
BRANCH   5  14
ATOM     14  C   UNL     1      44.709   4.058  10.643  0.00  0.00    +0.000 C 
ATOM     15  C   UNL     1      43.228   3.735  10.804  0.00  0.00    +0.000 C 
ATOM     16  C   UNL     1      44.236   2.990  11.613  0.00  0.00    +0.000 C 
BRANCH  14  17
ATOM     17  C   UNL     1      45.413   3.596   9.368  0.00  0.00    +0.000 A 
ATOM     18  C   UNL     1      45.870   4.512   8.403  0.00  0.00    +0.000 A 
ATOM     19  C   UNL     1      46.539   4.089   7.250  0.00  0.00    +0.000 A 
ATOM     20  C   UNL     1      46.778   2.730   7.036  0.00  0.00    +0.000 A 
ATOM     21 CL   UNL     1      47.629   2.275   5.604  0.00  0.00    +0.000 Cl
ATOM     22  C   UNL     1      46.333   1.798   7.976  0.00  0.00    +0.000 A 
ATOM     23 CL   UNL     1      46.582   0.098   7.786  0.00  0.00    +0.000 Cl
ATOM     24  C   UNL     1      45.659   2.232   9.125  0.00  0.00    +0.000 A 
ENDBRANCH  14  17
ENDBRANCH   5  14
TORSDOF 3
ENDMDL
MODEL 3
REMARK VINA RESULT:    -6.001      2.084      2.745
REMARK INTER + INTRA:          -7.675
REMARK INTER:                  -7.885
REMARK INTRA:                   0.210
REMARK UNBOUND:                -0.622
REMARK  Name = 
REMARK  3 active torsions:
REMARK  status: ('A' for Active; 'I' for Inactive)
REMARK    1  A    between atoms: C_2  and  C_4
REMARK    2  A    between atoms: N_8  and  C_9
REMARK    3  A    between atoms: C_9  and  C_10
REMARK                            x       y       z     vdW  Elec       q    Type
REMARK                         _______ _______ _______ _____ _____    ______ ____
ROOT
ATOM      1  C   UNL     1      46.334   3.323   7.368  0.00  0.00    +0.000 A 
ATOM      2  C   UNL     1      46.478   4.525   8.056  0.00  0.00    +0.000 A 
ATOM      3  C   UNL     1      45.622   4.807   9.124  0.00  0.00    +0.000 A 
ATOM      4  C   UNL     1      44.634   3.893   9.474  0.00  0.00    +0.000 A 
ATOM      5  N   UNL     1      43.687   4.142  10.474  0.00  0.00    +0.000 N 
ATOM      6  N   UNL     1      44.473   2.734   8.802  0.00  0.00    +0.000 NA
ATOM      7  C   UNL     1      45.315   2.473   7.770  0.00  0.00    +0.000 A 
ATOM      8  H   UNL     1      43.121   3.295  10.518  0.00  0.00    +0.000 HD
ENDROOT
BRANCH   1  10
ATOM      9  N   UNL     1      48.465   2.537   6.506  0.00  0.00    +0.000 N 
ATOM     10  C   UNL     1      47.187   2.938   6.226  0.00  0.00    +0.000 C 
ATOM     11  O   UNL     1      46.764   2.946   5.081  0.00  0.00    +0.000 OA
ATOM     12  H   UNL     1      49.006   2.183   5.727  0.00  0.00    +0.000 HD
ATOM     13  H   UNL     1      48.765   2.279   7.436  0.00  0.00    +0.000 HD
ENDBRANCH   1  10
BRANCH   5  14
ATOM     14  C   UNL     1      44.010   4.757  11.774  0.00  0.00    +0.000 C 
ATOM     15  C   UNL     1      44.905   3.907  12.669  0.00  0.00    +0.000 C 
ATOM     16  C   UNL     1      43.507   4.203  13.096  0.00  0.00    +0.000 C 
BRANCH  14  17
ATOM     17  C   UNL     1      44.288   6.258  11.696  0.00  0.00    +0.000 A 
ATOM     18  C   UNL     1      43.406   7.139  11.043  0.00  0.00    +0.000 A 
ATOM     19  C   UNL     1      43.648   8.517  10.997  0.00  0.00    +0.000 A 
ATOM     20  C   UNL     1      44.780   9.051  11.613  0.00  0.00    +0.000 A 
ATOM     21 CL   UNL     1      45.008  10.762  11.538  0.00  0.00    +0.000 Cl
ATOM     22  C   UNL     1      45.674   8.200  12.265  0.00  0.00    +0.000 A 
ATOM     23 CL   UNL     1      47.102   8.778  13.048  0.00  0.00    +0.000 Cl
ATOM     24  C   UNL     1      45.426   6.821  12.301  0.00  0.00    +0.000 A 
ENDBRANCH  14  17
ENDBRANCH   5  14
TORSDOF 3
ENDMDL
MODEL 4
REMARK VINA RESULT:    -5.712      3.178      5.133
REMARK INTER + INTRA:          -7.335
REMARK INTER:                  -7.317
REMARK INTRA:                  -0.019
REMARK UNBOUND:                -0.622
REMARK  Name = 
REMARK  3 active torsions:
REMARK  status: ('A' for Active; 'I' for Inactive)
REMARK    1  A    between atoms: C_2  and  C_4
REMARK    2  A    between atoms: N_8  and  C_9
REMARK    3  A    between atoms: C_9  and  C_10
REMARK                            x       y       z     vdW  Elec       q    Type
REMARK                         _______ _______ _______ _____ _____    ______ ____
ROOT
ATOM      1  C   UNL     1      44.770   5.066  11.007  0.00  0.00    +0.000 A 
ATOM      2  C   UNL     1      45.938   5.698  10.587  0.00  0.00    +0.000 A 
ATOM      3  C   UNL     1      46.621   6.531  11.477  0.00  0.00    +0.000 A 
ATOM      4  C   UNL     1      46.120   6.727  12.759  0.00  0.00    +0.000 A 
ATOM      5  N   UNL     1      46.699   7.612  13.675  0.00  0.00    +0.000 N 
ATOM      6  N   UNL     1      44.978   6.136  13.170  0.00  0.00    +0.000 NA
ATOM      7  C   UNL     1      44.329   5.326  12.295  0.00  0.00    +0.000 A 
ATOM      8  H   UNL     1      46.136   7.524  14.520  0.00  0.00    +0.000 HD
ENDROOT
BRANCH   1  10
ATOM      9  N   UNL     1      44.022   4.404   8.793  0.00  0.00    +0.000 N 
ATOM     10  C   UNL     1      43.977   4.172  10.140  0.00  0.00    +0.000 C 
ATOM     11  O   UNL     1      43.331   3.243  10.601  0.00  0.00    +0.000 OA
ATOM     12  H   UNL     1      43.554   3.727   8.204  0.00  0.00    +0.000 HD
ATOM     13  H   UNL     1      44.726   4.987   8.363  0.00  0.00    +0.000 HD
ENDBRANCH   1  10
BRANCH   5  14
ATOM     14  C   UNL     1      48.153   7.730  13.893  0.00  0.00    +0.000 C 
ATOM     15  C   UNL     1      48.690   9.155  13.800  0.00  0.00    +0.000 C 
ATOM     16  C   UNL     1      49.121   8.138  12.796  0.00  0.00    +0.000 C 
BRANCH  14  17
ATOM     17  C   UNL     1      48.686   6.831  15.008  0.00  0.00    +0.000 A 
ATOM     18  C   UNL     1      49.970   7.012  15.552  0.00  0.00    +0.000 A 
ATOM     19  C   UNL     1      50.445   6.206  16.593  0.00  0.00    +0.000 A 
ATOM     20  C   UNL     1      49.638   5.198  17.124  0.00  0.00    +0.000 A 
ATOM     21 CL   UNL     1      50.276   4.254  18.422  0.00  0.00    +0.000 Cl
ATOM     22  C   UNL     1      48.360   4.995  16.601  0.00  0.00    +0.000 A 
ATOM     23 CL   UNL     1      47.299   3.767  17.197  0.00  0.00    +0.000 Cl
ATOM     24  C   UNL     1      47.896   5.804  15.555  0.00  0.00    +0.000 A 
ENDBRANCH  14  17
ENDBRANCH   5  14
TORSDOF 3
ENDMDL
MODEL 5
REMARK VINA RESULT:    -5.547      3.159      4.927
REMARK INTER + INTRA:          -7.142
REMARK INTER:                  -7.014
REMARK INTRA:                  -0.129
REMARK UNBOUND:                -0.622
REMARK  Name = 
REMARK  3 active torsions:
REMARK  status: ('A' for Active; 'I' for Inactive)
REMARK    1  A    between atoms: C_2  and  C_4
REMARK    2  A    between atoms: N_8  and  C_9
REMARK    3  A    between atoms: C_9  and  C_10
REMARK                            x       y       z     vdW  Elec       q    Type
REMARK                         _______ _______ _______ _____ _____    ______ ____
ROOT
ATOM      1  C   UNL     1      44.690   4.130  11.470  0.00  0.00    +0.000 A 
ATOM      2  C   UNL     1      45.495   4.981  10.716  0.00  0.00    +0.000 A 
ATOM      3  C   UNL     1      46.100   6.077  11.338  0.00  0.00    +0.000 A 
ATOM      4  C   UNL     1      45.879   6.309  12.691  0.00  0.00    +0.000 A 
ATOM      5  N   UNL     1      46.379   7.430  13.363  0.00  0.00    +0.000 N 
ATOM      6  N   UNL     1      45.085   5.501  13.427  0.00  0.00    +0.000 NA
ATOM      7  C   UNL     1      44.509   4.439  12.809  0.00  0.00    +0.000 A 
ATOM      8  H   UNL     1      46.079   7.314  14.330  0.00  0.00    +0.000 HD
ENDROOT
BRANCH   1  10
ATOM      9  N   UNL     1      44.582   2.358   9.812  0.00  0.00    +0.000 N 
ATOM     10  C   UNL     1      44.007   2.950  10.903  0.00  0.00    +0.000 C 
ATOM     11  O   UNL     1      42.987   2.501  11.402  0.00  0.00    +0.000 OA
ATOM     12  H   UNL     1      44.159   1.495   9.493  0.00  0.00    +0.000 HD
ATOM     13  H   UNL     1      45.535   2.540   9.531  0.00  0.00    +0.000 HD
ENDBRANCH   1  10
BRANCH   5  14
ATOM     14  C   UNL     1      47.746   7.952  13.181  0.00  0.00    +0.000 C 
ATOM     15  C   UNL     1      47.810   9.408  12.733  0.00  0.00    +0.000 C 
ATOM     16  C   UNL     1      48.309   8.336  11.824  0.00  0.00    +0.000 C 
BRANCH  14  17
ATOM     17  C   UNL     1      48.733   7.483  14.250  0.00  0.00    +0.000 A 
ATOM     18  C   UNL     1      50.094   7.836  14.205  0.00  0.00    +0.000 A 
ATOM     19  C   UNL     1      50.990   7.430  15.199  0.00  0.00    +0.000 A 
ATOM     20  C   UNL     1      50.542   6.661  16.274  0.00  0.00    +0.000 A 
ATOM     21 CL   UNL     1      51.695   6.211  17.480  0.00  0.00    +0.000 Cl
ATOM     22  C   UNL     1      49.197   6.293  16.344  0.00  0.00    +0.000 A 
ATOM     23 CL   UNL     1      48.562   5.339  17.638  0.00  0.00    +0.000 Cl
ATOM     24  C   UNL     1      48.309   6.701  15.340  0.00  0.00    +0.000 A 
ENDBRANCH  14  17
ENDBRANCH   5  14
TORSDOF 3
ENDMDL
