MODEL 1
REMARK VINA RESULT:    -7.212      0.000      0.000
REMARK INTER + INTRA:         -12.049
REMARK INTER:                 -10.796
REMARK INTRA:                  -1.253
REMARK UNBOUND:                -1.253
REMARK  Name = 
REMARK  9 active torsions:
REMARK  status: ('A' for Active; 'I' for Inactive)
REMARK    1  A    between atoms: N_1  and  C_2
REMARK    2  A    between atoms: C_2  and  C_3
REMARK    3  A    between atoms: C_3  and  N_4
REMARK    4  A    between atoms: C_7  and  C_8
REMARK    5  A    between atoms: N_10  and  C_11
REMARK    6  A    between atoms: C_11  and  C_12
REMARK    7  A    between atoms: C_15  and  C_16
REMARK    8  A    between atoms: C_16  and  N_17
REMARK    9  A    between atoms: C_18  and  C_20
REMARK                            x       y       z     vdW  Elec       q    Type
REMARK                         _______ _______ _______ _____ _____    ______ ____
ROOT
ATOM      1  C   UNL     1      45.265   6.281  12.553  0.00  0.00    +0.000 A 
ATOM      2  C   UNL     1      45.666   7.622  12.536  0.00  0.00    +0.000 A 
ATOM      3  C   UNL     1      46.927   7.992  13.011  0.00  0.00    +0.000 A 
ATOM      4  C   UNL     1      47.819   7.025  13.494  0.00  0.00    +0.000 A 
ATOM      5  C   UNL     1      47.404   5.688  13.539  0.00  0.00    +0.000 A 
ATOM      6  C   UNL     1      46.143   5.318  13.064  0.00  0.00    +0.000 A 
ENDROOT
BRANCH   1   7
ATOM      7  C   UNL     1      43.932   5.875  11.987  0.00  0.00    +0.000 C 
BRANCH   7  10
ATOM      8  C   UNL     1      44.046   4.060  10.350  0.00  0.00    +0.000 C 
ATOM      9  O   UNL     1      43.865   3.219  11.226  0.00  0.00    +0.000 OA
ATOM     10  N   UNL     1      44.064   5.406  10.625  0.00  0.00    +0.000 N 
ATOM     11  H   UNL     1      44.217   6.087   9.892  0.00  0.00    +0.000 HD
BRANCH   8  15
ATOM     12  N   UNL     1      46.431   3.286   7.941  0.00  0.00    +0.000 NA
ATOM     13  C   UNL     1      45.960   2.102   8.683  0.00  0.00    +0.000 C 
ATOM     14  C   UNL     1      44.447   2.215   8.663  0.00  0.00    +0.000 C 
ATOM     15  C   UNL     1      44.223   3.706   8.878  0.00  0.00    +0.000 C 
ATOM     16  C   UNL     1      45.476   4.360   8.288  0.00  0.00    +0.000 C 
BRANCH  12  17
ATOM     17  C   UNL     1      46.508   3.008   6.494  0.00  0.00    +0.000 C 
BRANCH  17  18
ATOM     18  C   UNL     1      47.218   1.678   6.159  0.00  0.00    +0.000 C 
BRANCH  18  19
ATOM     19  N   UNL     1      48.610   1.897   5.757  0.00  0.00    +0.000 NA
ATOM     20  H   UNL     1      49.203   1.859   6.585  0.00  0.00    +0.000 HD
ATOM     21  H   UNL     1      48.711   2.838   5.377  0.00  0.00    +0.000 HD
ENDBRANCH  18  19
ENDBRANCH  17  18
ENDBRANCH  12  17
ENDBRANCH   8  15
ENDBRANCH   7  10
ENDBRANCH   1   7
BRANCH   4  22
ATOM     22  C   UNL     1      49.191   7.412  13.975  0.00  0.00    +0.000 C 
BRANCH  22  23
ATOM     23  N   UNL     1      49.380   7.077  15.362  0.00  0.00    +0.000 N 
ATOM     24  C   UNL     1      48.945   7.921  16.353  0.00  0.00    +0.000 C 
ATOM     25  O   UNL     1      48.336   8.958  16.100  0.00  0.00    +0.000 OA
ATOM     26  H   UNL     1      50.065   6.360  15.579  0.00  0.00    +0.000 HD
BRANCH  24  27
ATOM     27  C   UNL     1      49.184   7.493  17.736  0.00  0.00    +0.000 A 
ATOM     28  C   UNL     1      49.809   8.361  18.623  0.00  0.00    +0.000 A 
ATOM     29  S   UNL     1      49.961   7.733  20.201  0.00  0.00    +0.000 S 
ATOM     30  C   UNL     1      49.246   6.260  19.742  0.00  0.00    +0.000 A 
ATOM     31  N   UNL     1      49.091   5.249  20.640  0.00  0.00    +0.000 NA
ATOM     32  C   UNL     1      48.564   4.177  20.151  0.00  0.00    +0.000 A 
ATOM     33  N   UNL     1      48.173   4.026  18.846  0.00  0.00    +0.000 N 
ATOM     34  C   UNL     1      48.284   5.027  17.911  0.00  0.00    +0.000 A 
ATOM     35  O   UNL     1      47.890   4.871  16.760  0.00  0.00    +0.000 OA
ATOM     36  C   UNL     1      48.881   6.252  18.408  0.00  0.00    +0.000 A 
ATOM     37  H   UNL     1      47.760   3.161  18.528  0.00  0.00    +0.000 HD
ENDBRANCH  24  27
ENDBRANCH  22  23
ENDBRANCH   4  22
TORSDOF 9
ENDMDL
MODEL 2
REMARK VINA RESULT:    -6.853      1.934      2.263
REMARK INTER + INTRA:         -11.512
REMARK INTER:                 -10.552
REMARK INTRA:                  -0.960
REMARK UNBOUND:                -1.253
REMARK  Name = 
REMARK  9 active torsions:
REMARK  status: ('A' for Active; 'I' for Inactive)
REMARK    1  A    between atoms: N_1  and  C_2
REMARK    2  A    between atoms: C_2  and  C_3
REMARK    3  A    between atoms: C_3  and  N_4
REMARK    4  A    between atoms: C_7  and  C_8
REMARK    5  A    between atoms: N_10  and  C_11
REMARK    6  A    between atoms: C_11  and  C_12
REMARK    7  A    between atoms: C_15  and  C_16
REMARK    8  A    between atoms: C_16  and  N_17
REMARK    9  A    between atoms: C_18  and  C_20
REMARK                            x       y       z     vdW  Elec       q    Type
REMARK                         _______ _______ _______ _____ _____    ______ ____
ROOT
ATOM      1  C   UNL     1      46.033   4.731  12.884  0.00  0.00    +0.000 A 
ATOM      2  C   UNL     1      45.526   5.886  12.276  0.00  0.00    +0.000 A 
ATOM      3  C   UNL     1      46.035   7.145  12.607  0.00  0.00    +0.000 A 
ATOM      4  C   UNL     1      47.073   7.271  13.539  0.00  0.00    +0.000 A 
ATOM      5  C   UNL     1      47.558   6.118  14.170  0.00  0.00    +0.000 A 
ATOM      6  C   UNL     1      47.050   4.859  13.839  0.00  0.00    +0.000 A 
ENDROOT
BRANCH   1   7
ATOM      7  C   UNL     1      45.528   3.372  12.485  0.00  0.00    +0.000 C 
BRANCH   7  10
ATOM      8  C   UNL     1      44.206   3.169  10.436  0.00  0.00    +0.000 C 
ATOM      9  O   UNL     1      43.157   3.247  11.069  0.00  0.00    +0.000 OA
ATOM     10  N   UNL     1      45.434   3.252  11.047  0.00  0.00    +0.000 N 
ATOM     11  H   UNL     1      46.290   3.183  10.510  0.00  0.00    +0.000 HD
BRANCH   8  15
ATOM     12  N   UNL     1      46.378   2.971   7.728  0.00  0.00    +0.000 NA
ATOM     13  C   UNL     1      46.115   1.660   8.350  0.00  0.00    +0.000 C 
ATOM     14  C   UNL     1      44.606   1.599   8.490  0.00  0.00    +0.000 C 
ATOM     15  C   UNL     1      44.255   3.018   8.920  0.00  0.00    +0.000 C 
ATOM     16  C   UNL     1      45.363   3.878   8.303  0.00  0.00    +0.000 C 
BRANCH  12  17
ATOM     17  C   UNL     1      46.323   2.879   6.256  0.00  0.00    +0.000 C 
BRANCH  17  18
ATOM     18  C   UNL     1      47.625   2.341   5.624  0.00  0.00    +0.000 C 
BRANCH  18  19
ATOM     19  N   UNL     1      48.793   2.640   6.456  0.00  0.00    +0.000 NA
ATOM     20  H   UNL     1      49.459   3.183   5.908  0.00  0.00    +0.000 HD
ATOM     21  H   UNL     1      49.268   1.773   6.703  0.00  0.00    +0.000 HD
ENDBRANCH  18  19
ENDBRANCH  17  18
ENDBRANCH  12  17
ENDBRANCH   8  15
ENDBRANCH   7  10
ENDBRANCH   1   7
BRANCH   4  22
ATOM     22  C   UNL     1      47.649   8.620  13.875  0.00  0.00    +0.000 C 
BRANCH  22  23
ATOM     23  N   UNL     1      47.429   8.960  15.256  0.00  0.00    +0.000 N 
ATOM     24  C   UNL     1      48.436   9.505  16.013  0.00  0.00    +0.000 C 
ATOM     25  O   UNL     1      49.535   9.773  15.534  0.00  0.00    +0.000 OA
ATOM     26  H   UNL     1      46.625   8.544  15.716  0.00  0.00    +0.000 HD
BRANCH  24  27
ATOM     27  C   UNL     1      48.115   9.817  17.411  0.00  0.00    +0.000 A 
ATOM     28  C   UNL     1      47.958  11.142  17.798  0.00  0.00    +0.000 A 
ATOM     29  S   UNL     1      47.534  11.329  19.439  0.00  0.00    +0.000 S 
ATOM     30  C   UNL     1      47.598   9.650  19.703  0.00  0.00    +0.000 A 
ATOM     31  N   UNL     1      47.352   9.127  20.935  0.00  0.00    +0.000 NA
ATOM     32  C   UNL     1      47.467   7.843  21.002  0.00  0.00    +0.000 A 
ATOM     33  N   UNL     1      47.799   7.033  19.947  0.00  0.00    +0.000 N 
ATOM     34  C   UNL     1      48.028   7.513  18.679  0.00  0.00    +0.000 A 
ATOM     35  O   UNL     1      48.287   6.757  17.748  0.00  0.00    +0.000 OA
ATOM     36  C   UNL     1      47.922   8.954  18.552  0.00  0.00    +0.000 A 
ATOM     37  H   UNL     1      47.866   6.033  20.064  0.00  0.00    +0.000 HD
ENDBRANCH  24  27
ENDBRANCH  22  23
ENDBRANCH   4  22
TORSDOF 9
ENDMDL
MODEL 3
REMARK VINA RESULT:    -6.650      4.112      5.517
REMARK INTER + INTRA:         -11.208
REMARK INTER:                  -9.967
REMARK INTRA:                  -1.241
REMARK UNBOUND:                -1.253
REMARK  Name = 
REMARK  9 active torsions:
REMARK  status: ('A' for Active; 'I' for Inactive)
REMARK    1  A    between atoms: N_1  and  C_2
REMARK    2  A    between atoms: C_2  and  C_3
REMARK    3  A    between atoms: C_3  and  N_4
REMARK    4  A    between atoms: C_7  and  C_8
REMARK    5  A    between atoms: N_10  and  C_11
REMARK    6  A    between atoms: C_11  and  C_12
REMARK    7  A    between atoms: C_15  and  C_16
REMARK    8  A    between atoms: C_16  and  N_17
REMARK    9  A    between atoms: C_18  and  C_20
REMARK                            x       y       z     vdW  Elec       q    Type
REMARK                         _______ _______ _______ _____ _____    ______ ____
ROOT
ATOM      1  C   UNL     1      45.873   5.110  12.844  0.00  0.00    +0.000 A 
ATOM      2  C   UNL     1      45.061   6.222  12.588  0.00  0.00    +0.000 A 
ATOM      3  C   UNL     1      45.529   7.515  12.835  0.00  0.00    +0.000 A 
ATOM      4  C   UNL     1      46.826   7.722  13.324  0.00  0.00    +0.000 A 
ATOM      5  C   UNL     1      47.625   6.607  13.610  0.00  0.00    +0.000 A 
ATOM      6  C   UNL     1      47.157   5.314  13.363  0.00  0.00    +0.000 A 
ENDROOT
BRANCH   1   7
ATOM      7  C   UNL     1      45.391   3.722  12.522  0.00  0.00    +0.000 C 
BRANCH   7  10
ATOM      8  C   UNL     1      44.123   3.444  10.448  0.00  0.00    +0.000 C 
ATOM      9  O   UNL     1      43.061   3.619  11.039  0.00  0.00    +0.000 OA
ATOM     10  N   UNL     1      45.335   3.507  11.093  0.00  0.00    +0.000 N 
ATOM     11  H   UNL     1      46.201   3.358  10.592  0.00  0.00    +0.000 HD
BRANCH   8  15
ATOM     12  N   UNL     1      46.359   3.099   7.808  0.00  0.00    +0.000 NA
ATOM     13  C   UNL     1      46.108   1.830   8.517  0.00  0.00    +0.000 C 
ATOM     14  C   UNL     1      44.597   1.747   8.630  0.00  0.00    +0.000 C 
ATOM     15  C   UNL     1      44.210   3.186   8.949  0.00  0.00    +0.000 C 
ATOM     16  C   UNL     1      45.314   4.022   8.295  0.00  0.00    +0.000 C 
BRANCH  12  17
ATOM     17  C   UNL     1      46.340   2.900   6.346  0.00  0.00    +0.000 C 
BRANCH  17  18
ATOM     18  C   UNL     1      47.598   2.187   5.804  0.00  0.00    +0.000 C 
BRANCH  18  19
ATOM     19  N   UNL     1      48.816   2.677   6.454  0.00  0.00    +0.000 NA
ATOM     20  H   UNL     1      49.448   3.041   5.742  0.00  0.00    +0.000 HD
ATOM     21  H   UNL     1      49.304   1.898   6.896  0.00  0.00    +0.000 HD
ENDBRANCH  18  19
ENDBRANCH  17  18
ENDBRANCH  12  17
ENDBRANCH   8  15
ENDBRANCH   7  10
ENDBRANCH   1   7
BRANCH   4  22
ATOM     22  C   UNL     1      47.349   9.113  13.561  0.00  0.00    +0.000 C 
BRANCH  22  23
ATOM     23  N   UNL     1      48.650   9.296  12.975  0.00  0.00    +0.000 N 
ATOM     24  C   UNL     1      48.808  10.048  11.838  0.00  0.00    +0.000 C 
ATOM     25  O   UNL     1      47.865  10.633  11.312  0.00  0.00    +0.000 OA
ATOM     26  H   UNL     1      49.382   8.650  13.255  0.00  0.00    +0.000 HD
BRANCH  24  27
ATOM     27  C   UNL     1      50.174  10.175  11.316  0.00  0.00    +0.000 A 
ATOM     28  C   UNL     1      50.700  11.438  11.074  0.00  0.00    +0.000 A 
ATOM     29  S   UNL     1      52.313  11.414  10.523  0.00  0.00    +0.000 S 
ATOM     30  C   UNL     1      52.348   9.714  10.536  0.00  0.00    +0.000 A 
ATOM     31  N   UNL     1      53.461   9.035  10.144  0.00  0.00    +0.000 NA
ATOM     32  C   UNL     1      53.340   7.750  10.172  0.00  0.00    +0.000 A 
ATOM     33  N   UNL     1      52.209   7.082  10.563  0.00  0.00    +0.000 N 
ATOM     34  C   UNL     1      51.072   7.723  10.993  0.00  0.00    +0.000 A 
ATOM     35  O   UNL     1      50.089   7.094  11.371  0.00  0.00    +0.000 OA
ATOM     36  C   UNL     1      51.152   9.171  10.971  0.00  0.00    +0.000 A 
ATOM     37  H   UNL     1      52.181   6.072  10.568  0.00  0.00    +0.000 HD
ENDBRANCH  24  27
ENDBRANCH  22  23
ENDBRANCH   4  22
TORSDOF 9
ENDMDL
MODEL 4
REMARK VINA RESULT:    -6.646      3.772      5.602
REMARK INTER + INTRA:         -11.201
REMARK INTER:                  -9.902
REMARK INTRA:                  -1.299
REMARK UNBOUND:                -1.253
REMARK  Name = 
REMARK  9 active torsions:
REMARK  status: ('A' for Active; 'I' for Inactive)
REMARK    1  A    between atoms: N_1  and  C_2
REMARK    2  A    between atoms: C_2  and  C_3
REMARK    3  A    between atoms: C_3  and  N_4
REMARK    4  A    between atoms: C_7  and  C_8
REMARK    5  A    between atoms: N_10  and  C_11
REMARK    6  A    between atoms: C_11  and  C_12
REMARK    7  A    between atoms: C_15  and  C_16
REMARK    8  A    between atoms: C_16  and  N_17
REMARK    9  A    between atoms: C_18  and  C_20
REMARK                            x       y       z     vdW  Elec       q    Type
REMARK                         _______ _______ _______ _____ _____    ______ ____
ROOT
ATOM      1  C   UNL     1      46.405   5.187  13.072  0.00  0.00    +0.000 A 
ATOM      2  C   UNL     1      47.028   5.034  14.317  0.00  0.00    +0.000 A 
ATOM      3  C   UNL     1      48.044   5.908  14.714  0.00  0.00    +0.000 A 
ATOM      4  C   UNL     1      48.444   6.962  13.882  0.00  0.00    +0.000 A 
ATOM      5  C   UNL     1      47.841   7.094  12.624  0.00  0.00    +0.000 A 
ATOM      6  C   UNL     1      46.825   6.222  12.226  0.00  0.00    +0.000 A 
ENDROOT
BRANCH   1   7
ATOM      7  C   UNL     1      45.272   4.285  12.669  0.00  0.00    +0.000 C 
BRANCH   7  10
ATOM      8  C   UNL     1      44.087   3.626  10.632  0.00  0.00    +0.000 C 
ATOM      9  O   UNL     1      43.074   3.359  11.271  0.00  0.00    +0.000 OA
ATOM     10  N   UNL     1      45.219   4.122  11.233  0.00  0.00    +0.000 N 
ATOM     11  H   UNL     1      46.047   4.334  10.691  0.00  0.00    +0.000 HD
BRANCH   8  15
ATOM     12  N   UNL     1      46.337   3.334   7.996  0.00  0.00    +0.000 NA
ATOM     13  C   UNL     1      45.989   2.034   8.600  0.00  0.00    +0.000 C 
ATOM     14  C   UNL     1      44.474   2.047   8.690  0.00  0.00    +0.000 C 
ATOM     15  C   UNL     1      44.180   3.480   9.117  0.00  0.00    +0.000 C 
ATOM     16  C   UNL     1      45.348   4.287   8.543  0.00  0.00    +0.000 C 
BRANCH  12  17
ATOM     17  C   UNL     1      46.327   3.251   6.523  0.00  0.00    +0.000 C 
BRANCH  17  18
ATOM     18  C   UNL     1      47.352   2.246   5.955  0.00  0.00    +0.000 C 
BRANCH  18  19
ATOM     19  N   UNL     1      48.720   2.588   6.354  0.00  0.00    +0.000 NA
ATOM     20  H   UNL     1      48.942   2.103   7.223  0.00  0.00    +0.000 HD
ATOM     21  H   UNL     1      48.776   3.584   6.562  0.00  0.00    +0.000 HD
ENDBRANCH  18  19
ENDBRANCH  17  18
ENDBRANCH  12  17
ENDBRANCH   8  15
ENDBRANCH   7  10
ENDBRANCH   1   7
BRANCH   4  22
ATOM     22  C   UNL     1      49.514   7.926  14.318  0.00  0.00    +0.000 C 
BRANCH  22  23
ATOM     23  N   UNL     1      50.727   7.746  13.565  0.00  0.00    +0.000 N 
ATOM     24  C   UNL     1      51.593   8.792  13.370  0.00  0.00    +0.000 C 
ATOM     25  O   UNL     1      51.398   9.897  13.869  0.00  0.00    +0.000 OA
ATOM     26  H   UNL     1      50.787   6.926  12.969  0.00  0.00    +0.000 HD
BRANCH  24  27
ATOM     27  C   UNL     1      52.803   8.509  12.589  0.00  0.00    +0.000 A 
ATOM     28  C   UNL     1      54.046   8.859  13.101  0.00  0.00    +0.000 A 
ATOM     29  S   UNL     1      55.350   8.413  12.097  0.00  0.00    +0.000 S 
ATOM     30  C   UNL     1      54.298   7.785  10.918  0.00  0.00    +0.000 A 
ATOM     31  N   UNL     1      54.781   7.253   9.762  0.00  0.00    +0.000 NA
ATOM     32  C   UNL     1      53.872   6.843   8.943  0.00  0.00    +0.000 A 
ATOM     33  N   UNL     1      52.523   6.911   9.176  0.00  0.00    +0.000 N 
ATOM     34  C   UNL     1      51.990   7.413  10.339  0.00  0.00    +0.000 A 
ATOM     35  O   UNL     1      50.778   7.425  10.532  0.00  0.00    +0.000 OA
ATOM     36  C   UNL     1      52.970   7.898  11.291  0.00  0.00    +0.000 A 
ATOM     37  H   UNL     1      51.863   6.565   8.495  0.00  0.00    +0.000 HD
ENDBRANCH  24  27
ENDBRANCH  22  23
ENDBRANCH   4  22
TORSDOF 9
ENDMDL
MODEL 5
REMARK VINA RESULT:    -6.150      1.902      2.133
REMARK INTER + INTRA:         -10.458
REMARK INTER:                  -9.350
REMARK INTRA:                  -1.108
REMARK UNBOUND:                -1.253
REMARK  Name = 
REMARK  9 active torsions:
REMARK  status: ('A' for Active; 'I' for Inactive)
REMARK    1  A    between atoms: N_1  and  C_2
REMARK    2  A    between atoms: C_2  and  C_3
REMARK    3  A    between atoms: C_3  and  N_4
REMARK    4  A    between atoms: C_7  and  C_8
REMARK    5  A    between atoms: N_10  and  C_11
REMARK    6  A    between atoms: C_11  and  C_12
REMARK    7  A    between atoms: C_15  and  C_16
REMARK    8  A    between atoms: C_16  and  N_17
REMARK    9  A    between atoms: C_18  and  C_20
REMARK                            x       y       z     vdW  Elec       q    Type
REMARK                         _______ _______ _______ _____ _____    ______ ____
ROOT
ATOM      1  C   UNL     1      46.511   5.730  12.827  0.00  0.00    +0.000 A 
ATOM      2  C   UNL     1      47.171   5.608  14.056  0.00  0.00    +0.000 A 
ATOM      3  C   UNL     1      48.238   6.453  14.376  0.00  0.00    +0.000 A 
ATOM      4  C   UNL     1      48.652   7.449  13.482  0.00  0.00    +0.000 A 
ATOM      5  C   UNL     1      48.011   7.549  12.240  0.00  0.00    +0.000 A 
ATOM      6  C   UNL     1      46.945   6.705  11.919  0.00  0.00    +0.000 A 
ENDROOT
BRANCH   1   7
ATOM      7  C   UNL     1      45.326   4.862  12.507  0.00  0.00    +0.000 C 
BRANCH   7  10
ATOM      8  C   UNL     1      44.133   3.999  10.552  0.00  0.00    +0.000 C 
ATOM      9  O   UNL     1      43.132   3.774  11.226  0.00  0.00    +0.000 OA
ATOM     10  N   UNL     1      45.263   4.567  11.092  0.00  0.00    +0.000 N 
ATOM     11  H   UNL     1      46.081   4.743  10.524  0.00  0.00    +0.000 HD
BRANCH   8  15
ATOM     12  N   UNL     1      46.341   3.215   7.982  0.00  0.00    +0.000 NA
ATOM     13  C   UNL     1      45.833   2.022   8.686  0.00  0.00    +0.000 C 
ATOM     14  C   UNL     1      44.331   2.228   8.753  0.00  0.00    +0.000 C 
ATOM     15  C   UNL     1      44.214   3.716   9.057  0.00  0.00    +0.000 C 
ATOM     16  C   UNL     1      45.475   4.324   8.434  0.00  0.00    +0.000 C 
BRANCH  12  17
ATOM     17  C   UNL     1      46.327   3.011   6.521  0.00  0.00    +0.000 C 
BRANCH  17  18
ATOM     18  C   UNL     1      47.736   2.888   5.902  0.00  0.00    +0.000 C 
BRANCH  18  19
ATOM     19  N   UNL     1      48.394   1.643   6.304  0.00  0.00    +0.000 NA
ATOM     20  H   UNL     1      48.186   0.921   5.615  0.00  0.00    +0.000 HD
ATOM     21  H   UNL     1      47.999   1.317   7.186  0.00  0.00    +0.000 HD
ENDBRANCH  18  19
ENDBRANCH  17  18
ENDBRANCH  12  17
ENDBRANCH   8  15
ENDBRANCH   7  10
ENDBRANCH   1   7
BRANCH   4  22
ATOM     22  C   UNL     1      49.777   8.384  13.834  0.00  0.00    +0.000 C 
BRANCH  22  23
ATOM     23  N   UNL     1      50.219   8.193  15.191  0.00  0.00    +0.000 N 
ATOM     24  C   UNL     1      51.538   7.937  15.469  0.00  0.00    +0.000 C 
ATOM     25  O   UNL     1      52.394   7.915  14.588  0.00  0.00    +0.000 OA
ATOM     26  H   UNL     1      49.510   7.983  15.886  0.00  0.00    +0.000 HD
BRANCH  24  27
ATOM     27  C   UNL     1      51.891   7.756  16.882  0.00  0.00    +0.000 A 
ATOM     28  C   UNL     1      52.727   8.676  17.502  0.00  0.00    +0.000 A 
ATOM     29  S   UNL     1      52.994   8.352  19.154  0.00  0.00    +0.000 S 
ATOM     30  C   UNL     1      52.046   6.942  19.087  0.00  0.00    +0.000 A 
ATOM     31  N   UNL     1      51.876   6.161  20.189  0.00  0.00    +0.000 NA
ATOM     32  C   UNL     1      51.160   5.106  19.989  0.00  0.00    +0.000 A 
ATOM     33  N   UNL     1      50.594   4.763  18.789  0.00  0.00    +0.000 N 
ATOM     34  C   UNL     1      50.714   5.534  17.658  0.00  0.00    +0.000 A 
ATOM     35  O   UNL     1      50.163   5.218  16.608  0.00  0.00    +0.000 OA
ATOM     36  C   UNL     1      51.519   6.729  17.826  0.00  0.00    +0.000 A 
ATOM     37  H   UNL     1      50.038   3.924  18.701  0.00  0.00    +0.000 HD
ENDBRANCH  24  27
ENDBRANCH  22  23
ENDBRANCH   4  22
TORSDOF 9
ENDMDL
MODEL 6
REMARK VINA RESULT:    -5.131      3.686      5.323
REMARK INTER + INTRA:          -8.933
REMARK INTER:                  -7.908
REMARK INTRA:                  -1.025
REMARK UNBOUND:                -1.253
REMARK  Name = 
REMARK  9 active torsions:
REMARK  status: ('A' for Active; 'I' for Inactive)
REMARK    1  A    between atoms: N_1  and  C_2
REMARK    2  A    between atoms: C_2  and  C_3
REMARK    3  A    between atoms: C_3  and  N_4
REMARK    4  A    between atoms: C_7  and  C_8
REMARK    5  A    between atoms: N_10  and  C_11
REMARK    6  A    between atoms: C_11  and  C_12
REMARK    7  A    between atoms: C_15  and  C_16
REMARK    8  A    between atoms: C_16  and  N_17
REMARK    9  A    between atoms: C_18  and  C_20
REMARK                            x       y       z     vdW  Elec       q    Type
REMARK                         _______ _______ _______ _____ _____    ______ ____
ROOT
ATOM      1  C   UNL     1      45.525   6.133  11.986  0.00  0.00    +0.000 A 
ATOM      2  C   UNL     1      45.727   5.563  13.249  0.00  0.00    +0.000 A 
ATOM      3  C   UNL     1      46.893   5.834  13.972  0.00  0.00    +0.000 A 
ATOM      4  C   UNL     1      47.869   6.695  13.453  0.00  0.00    +0.000 A 
ATOM      5  C   UNL     1      47.679   7.239  12.176  0.00  0.00    +0.000 A 
ATOM      6  C   UNL     1      46.514   6.969  11.454  0.00  0.00    +0.000 A 
ENDROOT
BRANCH   1   7
ATOM      7  C   UNL     1      44.245   5.889  11.235  0.00  0.00    +0.000 C 
BRANCH   7  10
ATOM      8  C   UNL     1      44.158   3.892   9.824  0.00  0.00    +0.000 C 
ATOM      9  O   UNL     1      43.589   3.257  10.707  0.00  0.00    +0.000 OA
ATOM     10  N   UNL     1      44.497   5.214   9.980  0.00  0.00    +0.000 N 
ATOM     11  H   UNL     1      44.969   5.723   9.244  0.00  0.00    +0.000 HD
BRANCH   8  15
ATOM     12  N   UNL     1      46.608   2.126   8.100  0.00  0.00    +0.000 NA
ATOM     13  C   UNL     1      45.648   1.247   8.793  0.00  0.00    +0.000 C 
ATOM     14  C   UNL     1      44.285   1.793   8.412  0.00  0.00    +0.000 C 
ATOM     15  C   UNL     1      44.506   3.300   8.463  0.00  0.00    +0.000 C 
ATOM     16  C   UNL     1      45.993   3.469   8.137  0.00  0.00    +0.000 C 
BRANCH  12  17
ATOM     17  C   UNL     1      46.881   1.638   6.734  0.00  0.00    +0.000 C 
BRANCH  17  18
ATOM     18  C   UNL     1      47.895   2.507   5.960  0.00  0.00    +0.000 C 
BRANCH  18  19
ATOM     19  N   UNL     1      47.266   3.189   4.826  0.00  0.00    +0.000 NA
ATOM     20  H   UNL     1      47.803   2.993   3.982  0.00  0.00    +0.000 HD
ATOM     21  H   UNL     1      47.313   4.198   4.966  0.00  0.00    +0.000 HD
ENDBRANCH  18  19
ENDBRANCH  17  18
ENDBRANCH  12  17
ENDBRANCH   8  15
ENDBRANCH   7  10
ENDBRANCH   1   7
BRANCH   4  22
ATOM     22  C   UNL     1      49.110   7.018  14.240  0.00  0.00    +0.000 C 
BRANCH  22  23
ATOM     23  N   UNL     1      50.201   7.390  13.379  0.00  0.00    +0.000 N 
ATOM     24  C   UNL     1      50.514   8.710  13.173  0.00  0.00    +0.000 C 
ATOM     25  O   UNL     1      49.917   9.615  13.751  0.00  0.00    +0.000 OA
ATOM     26  H   UNL     1      50.545   6.686  12.732  0.00  0.00    +0.000 HD
BRANCH  24  27
ATOM     27  C   UNL     1      51.642   8.990  12.277  0.00  0.00    +0.000 A 
ATOM     28  C   UNL     1      51.402   9.553  11.030  0.00  0.00    +0.000 A 
ATOM     29  S   UNL     1      52.821   9.864  10.136  0.00  0.00    +0.000 S 
ATOM     30  C   UNL     1      53.801   9.208  11.361  0.00  0.00    +0.000 A 
ATOM     31  N   UNL     1      55.153   9.148  11.216  0.00  0.00    +0.000 NA
ATOM     32  C   UNL     1      55.771   8.598  12.207  0.00  0.00    +0.000 A 
ATOM     33  N   UNL     1      55.161   8.108  13.332  0.00  0.00    +0.000 N 
ATOM     34  C   UNL     1      53.804   8.172  13.535  0.00  0.00    +0.000 A 
ATOM     35  O   UNL     1      53.293   7.756  14.570  0.00  0.00    +0.000 OA
ATOM     36  C   UNL     1      53.059   8.773  12.445  0.00  0.00    +0.000 A 
ATOM     37  H   UNL     1      55.705   7.694  14.076  0.00  0.00    +0.000 HD
ENDBRANCH  24  27
ENDBRANCH  22  23
ENDBRANCH   4  22
TORSDOF 9
ENDMDL
MODEL 7
REMARK VINA RESULT:    -5.116      5.249      9.319
REMARK INTER + INTRA:          -8.911
REMARK INTER:                  -8.072
REMARK INTRA:                  -0.839
REMARK UNBOUND:                -1.253
REMARK  Name = 
REMARK  9 active torsions:
REMARK  status: ('A' for Active; 'I' for Inactive)
REMARK    1  A    between atoms: N_1  and  C_2
REMARK    2  A    between atoms: C_2  and  C_3
REMARK    3  A    between atoms: C_3  and  N_4
REMARK    4  A    between atoms: C_7  and  C_8
REMARK    5  A    between atoms: N_10  and  C_11
REMARK    6  A    between atoms: C_11  and  C_12
REMARK    7  A    between atoms: C_15  and  C_16
REMARK    8  A    between atoms: C_16  and  N_17
REMARK    9  A    between atoms: C_18  and  C_20
REMARK                            x       y       z     vdW  Elec       q    Type
REMARK                         _______ _______ _______ _____ _____    ______ ____
ROOT
ATOM      1  C   UNL     1      47.487   6.961  12.684  0.00  0.00    +0.000 A 
ATOM      2  C   UNL     1      48.871   6.776  12.790  0.00  0.00    +0.000 A 
ATOM      3  C   UNL     1      49.751   7.825  12.512  0.00  0.00    +0.000 A 
ATOM      4  C   UNL     1      49.263   9.085  12.141  0.00  0.00    +0.000 A 
ATOM      5  C   UNL     1      47.879   9.260  12.005  0.00  0.00    +0.000 A 
ATOM      6  C   UNL     1      47.000   8.211  12.283  0.00  0.00    +0.000 A 
ENDROOT
BRANCH   1   7
ATOM      7  C   UNL     1      46.539   5.850  13.041  0.00  0.00    +0.000 C 
BRANCH   7  10
ATOM      8  C   UNL     1      47.041   4.112  14.688  0.00  0.00    +0.000 C 
ATOM      9  O   UNL     1      47.222   3.282  13.802  0.00  0.00    +0.000 OA
ATOM     10  N   UNL     1      46.728   5.421  14.409  0.00  0.00    +0.000 N 
ATOM     11  H   UNL     1      46.579   6.092  15.151  0.00  0.00    +0.000 HD
BRANCH   8  15
ATOM     12  N   UNL     1      49.377   3.568  17.206  0.00  0.00    +0.000 NA
ATOM     13  C   UNL     1      49.038   4.994  17.036  0.00  0.00    +0.000 C 
ATOM     14  C   UNL     1      47.521   5.025  17.001  0.00  0.00    +0.000 C 
ATOM     15  C   UNL     1      47.184   3.792  16.172  0.00  0.00    +0.000 C 
ATOM     16  C   UNL     1      48.352   2.837  16.433  0.00  0.00    +0.000 C 
BRANCH  12  17
ATOM     17  C   UNL     1      49.415   3.202  18.635  0.00  0.00    +0.000 C 
BRANCH  17  18
ATOM     18  C   UNL     1      49.201   4.400  19.585  0.00  0.00    +0.000 C 
BRANCH  18  19
ATOM     19  N   UNL     1      48.429   4.016  20.770  0.00  0.00    +0.000 NA
ATOM     20  H   UNL     1      48.983   4.212  21.603  0.00  0.00    +0.000 HD
ATOM     21  H   UNL     1      48.272   3.009  20.764  0.00  0.00    +0.000 HD
ENDBRANCH  18  19
ENDBRANCH  17  18
ENDBRANCH  12  17
ENDBRANCH   8  15
ENDBRANCH   7  10
ENDBRANCH   1   7
BRANCH   4  22
ATOM     22  C   UNL     1      50.203  10.229  11.873  0.00  0.00    +0.000 C 
BRANCH  22  23
ATOM     23  N   UNL     1      50.849  10.096  10.594  0.00  0.00    +0.000 N 
ATOM     24  C   UNL     1      52.176   9.760  10.509  0.00  0.00    +0.000 C 
ATOM     25  O   UNL     1      52.846   9.509  11.508  0.00  0.00    +0.000 OA
ATOM     26  H   UNL     1      50.384  10.513   9.792  0.00  0.00    +0.000 HD
BRANCH  24  27
ATOM     27  C   UNL     1      52.744   9.649   9.160  0.00  0.00    +0.000 A 
ATOM     28  C   UNL     1      53.036  10.802   8.443  0.00  0.00    +0.000 A 
ATOM     29  S   UNL     1      53.739  10.501   6.920  0.00  0.00    +0.000 S 
ATOM     30  C   UNL     1      53.630   8.819   7.142  0.00  0.00    +0.000 A 
ATOM     31  N   UNL     1      54.051   7.958   6.175  0.00  0.00    +0.000 NA
ATOM     32  C   UNL     1      53.881   6.711   6.461  0.00  0.00    +0.000 A 
ATOM     33  N   UNL     1      53.332   6.245   7.628  0.00  0.00    +0.000 N 
ATOM     34  C   UNL     1      52.919   7.075   8.643  0.00  0.00    +0.000 A 
ATOM     35  O   UNL     1      52.467   6.625   9.690  0.00  0.00    +0.000 OA
ATOM     36  C   UNL     1      53.080   8.490   8.368  0.00  0.00    +0.000 A 
ATOM     37  H   UNL     1      53.233   5.254   7.792  0.00  0.00    +0.000 HD
ENDBRANCH  24  27
ENDBRANCH  22  23
ENDBRANCH   4  22
TORSDOF 9
ENDMDL
MODEL 8
REMARK VINA RESULT:    -5.093      4.545      8.934
REMARK INTER + INTRA:          -8.876
REMARK INTER:                  -7.514
REMARK INTRA:                  -1.363
REMARK UNBOUND:                -1.253
REMARK  Name = 
REMARK  9 active torsions:
REMARK  status: ('A' for Active; 'I' for Inactive)
REMARK    1  A    between atoms: N_1  and  C_2
REMARK    2  A    between atoms: C_2  and  C_3
REMARK    3  A    between atoms: C_3  and  N_4
REMARK    4  A    between atoms: C_7  and  C_8
REMARK    5  A    between atoms: N_10  and  C_11
REMARK    6  A    between atoms: C_11  and  C_12
REMARK    7  A    between atoms: C_15  and  C_16
REMARK    8  A    between atoms: C_16  and  N_17
REMARK    9  A    between atoms: C_18  and  C_20
REMARK                            x       y       z     vdW  Elec       q    Type
REMARK                         _______ _______ _______ _____ _____    ______ ____
ROOT
ATOM      1  C   UNL     1      47.010   5.908  13.436  0.00  0.00    +0.000 A 
ATOM      2  C   UNL     1      48.171   6.555  13.879  0.00  0.00    +0.000 A 
ATOM      3  C   UNL     1      48.516   7.814  13.379  0.00  0.00    +0.000 A 
ATOM      4  C   UNL     1      47.698   8.459  12.443  0.00  0.00    +0.000 A 
ATOM      5  C   UNL     1      46.554   7.796  11.978  0.00  0.00    +0.000 A 
ATOM      6  C   UNL     1      46.208   6.538  12.477  0.00  0.00    +0.000 A 
ENDROOT
BRANCH   1   7
ATOM      7  C   UNL     1      46.607   4.581  14.017  0.00  0.00    +0.000 C 
BRANCH   7  10
ATOM      8  C   UNL     1      47.528   3.574  16.047  0.00  0.00    +0.000 C 
ATOM      9  O   UNL     1      48.107   2.712  15.393  0.00  0.00    +0.000 OA
ATOM     10  N   UNL     1      46.783   4.564  15.452  0.00  0.00    +0.000 N 
ATOM     11  H   UNL     1      46.309   5.266  16.006  0.00  0.00    +0.000 HD
BRANCH   8  15
ATOM     12  N   UNL     1      49.452   4.807  18.669  0.00  0.00    +0.000 NA
ATOM     13  C   UNL     1      48.472   5.788  18.165  0.00  0.00    +0.000 C 
ATOM     14  C   UNL     1      47.165   5.021  18.094  0.00  0.00    +0.000 C 
ATOM     15  C   UNL     1      47.607   3.662  17.567  0.00  0.00    +0.000 C 
ATOM     16  C   UNL     1      49.048   3.520  18.066  0.00  0.00    +0.000 C 
BRANCH  12  17
ATOM     17  C   UNL     1      49.473   4.790  20.144  0.00  0.00    +0.000 C 
BRANCH  17  18
ATOM     18  C   UNL     1      50.882   4.985  20.743  0.00  0.00    +0.000 C 
BRANCH  18  19
ATOM     19  N   UNL     1      51.864   5.330  19.710  0.00  0.00    +0.000 NA
ATOM     20  H   UNL     1      52.576   4.601  19.675  0.00  0.00    +0.000 HD
ATOM     21  H   UNL     1      52.348   6.188  19.972  0.00  0.00    +0.000 HD
ENDBRANCH  18  19
ENDBRANCH  17  18
ENDBRANCH  12  17
ENDBRANCH   8  15
ENDBRANCH   7  10
ENDBRANCH   1   7
BRANCH   4  22
ATOM     22  C   UNL     1      48.046   9.829  11.927  0.00  0.00    +0.000 C 
BRANCH  22  23
ATOM     23  N   UNL     1      49.229   9.801  11.108  0.00  0.00    +0.000 N 
ATOM     24  C   UNL     1      50.378  10.431  11.515  0.00  0.00    +0.000 C 
ATOM     25  O   UNL     1      50.459  10.991  12.606  0.00  0.00    +0.000 OA
ATOM     26  H   UNL     1      49.114   9.550  10.131  0.00  0.00    +0.000 HD
BRANCH  24  27
ATOM     27  C   UNL     1      51.532  10.348  10.612  0.00  0.00    +0.000 A 
ATOM     28  C   UNL     1      52.103  11.516  10.122  0.00  0.00    +0.000 A 
ATOM     29  S   UNL     1      53.465  11.248   9.132  0.00  0.00    +0.000 S 
ATOM     30  C   UNL     1      53.308   9.561   9.279  0.00  0.00    +0.000 A 
ATOM     31  N   UNL     1      54.168   8.721   8.642  0.00  0.00    +0.000 NA
ATOM     32  C   UNL     1      53.914   7.467   8.814  0.00  0.00    +0.000 A 
ATOM     33  N   UNL     1      52.881   6.976   9.570  0.00  0.00    +0.000 N 
ATOM     34  C   UNL     1      52.006   7.785  10.254  0.00  0.00    +0.000 A 
ATOM     35  O   UNL     1      51.114   7.313  10.952  0.00  0.00    +0.000 OA
ATOM     36  C   UNL     1      52.241   9.206  10.086  0.00  0.00    +0.000 A 
ATOM     37  H   UNL     1      52.741   5.981   9.669  0.00  0.00    +0.000 HD
ENDBRANCH  24  27
ENDBRANCH  22  23
ENDBRANCH   4  22
TORSDOF 9
ENDMDL
MODEL 9
REMARK VINA RESULT:    -4.898     10.606     14.081
REMARK INTER + INTRA:          -8.585
REMARK INTER:                  -7.067
REMARK INTRA:                  -1.518
REMARK UNBOUND:                -1.253
REMARK  Name = 
REMARK  9 active torsions:
REMARK  status: ('A' for Active; 'I' for Inactive)
REMARK    1  A    between atoms: N_1  and  C_2
REMARK    2  A    between atoms: C_2  and  C_3
REMARK    3  A    between atoms: C_3  and  N_4
REMARK    4  A    between atoms: C_7  and  C_8
REMARK    5  A    between atoms: N_10  and  C_11
REMARK    6  A    between atoms: C_11  and  C_12
REMARK    7  A    between atoms: C_15  and  C_16
REMARK    8  A    between atoms: C_16  and  N_17
REMARK    9  A    between atoms: C_18  and  C_20
REMARK                            x       y       z     vdW  Elec       q    Type
REMARK                         _______ _______ _______ _____ _____    ______ ____
ROOT
ATOM      1  C   UNL     1      40.771  -3.088  18.539  0.00  0.00    +0.000 A 
ATOM      2  C   UNL     1      41.220  -4.373  18.208  0.00  0.00    +0.000 A 
ATOM      3  C   UNL     1      41.486  -4.712  16.878  0.00  0.00    +0.000 A 
ATOM      4  C   UNL     1      41.327  -3.767  15.856  0.00  0.00    +0.000 A 
ATOM      5  C   UNL     1      40.847  -2.492  16.185  0.00  0.00    +0.000 A 
ATOM      6  C   UNL     1      40.582  -2.153  17.514  0.00  0.00    +0.000 A 
ENDROOT
BRANCH   1   7
ATOM      7  C   UNL     1      40.542  -2.706  19.974  0.00  0.00    +0.000 C 
BRANCH   7  10
ATOM      8  C   UNL     1      38.515  -1.383  20.329  0.00  0.00    +0.000 C 
ATOM      9  O   UNL     1      37.853  -2.397  20.535  0.00  0.00    +0.000 OA
ATOM     10  N   UNL     1      39.864  -1.432  20.073  0.00  0.00    +0.000 N 
ATOM     11  H   UNL     1      40.394  -0.587  19.903  0.00  0.00    +0.000 HD
BRANCH   8  15
ATOM     12  N   UNL     1      38.725   1.777  18.892  0.00  0.00    +0.000 NA
ATOM     13  C   UNL     1      37.807   0.877  18.168  0.00  0.00    +0.000 C 
ATOM     14  C   UNL     1      36.931   0.273  19.250  0.00  0.00    +0.000 C 
ATOM     15  C   UNL     1      37.924   0.022  20.378  0.00  0.00    +0.000 C 
ATOM     16  C   UNL     1      39.000   1.093  20.173  0.00  0.00    +0.000 C 
BRANCH  12  17
ATOM     17  C   UNL     1      38.133   3.119  19.053  0.00  0.00    +0.000 C 
BRANCH  17  18
ATOM     18  C   UNL     1      38.093   3.935  17.743  0.00  0.00    +0.000 C 
BRANCH  18  19
ATOM     19  N   UNL     1      39.414   4.007  17.112  0.00  0.00    +0.000 NA
ATOM     20  H   UNL     1      39.504   4.902  16.633  0.00  0.00    +0.000 HD
ATOM     21  H   UNL     1      39.487   3.290  16.391  0.00  0.00    +0.000 HD
ENDBRANCH  18  19
ENDBRANCH  17  18
ENDBRANCH  12  17
ENDBRANCH   8  15
ENDBRANCH   7  10
ENDBRANCH   1   7
BRANCH   4  22
ATOM     22  C   UNL     1      41.644  -4.114  14.427  0.00  0.00    +0.000 C 
BRANCH  22  23
ATOM     23  N   UNL     1      40.550  -3.792  13.548  0.00  0.00    +0.000 N 
ATOM     24  C   UNL     1      40.697  -2.850  12.562  0.00  0.00    +0.000 C 
ATOM     25  O   UNL     1      41.770  -2.290  12.355  0.00  0.00    +0.000 OA
ATOM     26  H   UNL     1      39.618  -4.067  13.845  0.00  0.00    +0.000 HD
BRANCH  24  27
ATOM     27  C   UNL     1      39.524  -2.590  11.718  0.00  0.00    +0.000 A 
ATOM     28  C   UNL     1      39.544  -2.970  10.382  0.00  0.00    +0.000 A 
ATOM     29  S   UNL     1      38.087  -2.648   9.557  0.00  0.00    +0.000 S 
ATOM     30  C   UNL     1      37.397  -1.941  10.941  0.00  0.00    +0.000 A 
ATOM     31  N   UNL     1      36.137  -1.427  10.909  0.00  0.00    +0.000 NA
ATOM     32  C   UNL     1      35.751  -0.893  12.019  0.00  0.00    +0.000 A 
ATOM     33  N   UNL     1      36.507  -0.831  13.160  0.00  0.00    +0.000 N 
ATOM     34  C   UNL     1      37.772  -1.361  13.248  0.00  0.00    +0.000 A 
ATOM     35  O   UNL     1      38.408  -1.321  14.296  0.00  0.00    +0.000 OA
ATOM     36  C   UNL     1      38.259  -1.965  12.023  0.00  0.00    +0.000 A 
ATOM     37  H   UNL     1      36.142  -0.404  13.999  0.00  0.00    +0.000 HD
ENDBRANCH  24  27
ENDBRANCH  22  23
ENDBRANCH   4  22
TORSDOF 9
ENDMDL
