MODEL 1
REMARK VINA RESULT:    -7.926      0.000      0.000
REMARK INTER + INTRA:         -11.743
REMARK INTER:                 -10.706
REMARK INTRA:                  -1.038
REMARK UNBOUND:                -1.038
REMARK  Name = 
REMARK  7 active torsions:
REMARK  status: ('A' for Active; 'I' for Inactive)
REMARK    1  A    between atoms: C_1  and  N_2
REMARK    2  A    between atoms: N_2  and  C_3
REMARK    3  A    between atoms: C_3  and  C_4
REMARK    4  A    between atoms: C_7  and  C_8
REMARK    5  A    between atoms: C_8  and  O_9
REMARK    6  A    between atoms: O_9  and  C_10
REMARK    7  A    between atoms: C_18  and  C_20
REMARK                            x       y       z     vdW  Elec       q    Type
REMARK                         _______ _______ _______ _____ _____    ______ ____
ROOT
ATOM      1  C   UNL     1      46.129   8.531  12.227  0.00  0.00    +0.000 C 
ATOM      2  N   UNL     1      45.927   7.090  12.102  0.00  0.00    +0.000 N 
ATOM      3  C   UNL     1      44.665   6.678  11.642  0.00  0.00    +0.000 C 
ATOM      4  O   UNL     1      43.785   7.497  11.377  0.00  0.00    +0.000 OA
ENDROOT
BRANCH   3   5
ATOM      5  C   UNL     1      44.376   5.245  11.509  0.00  0.00    +0.000 A 
ATOM      6  C   UNL     1      43.625   4.507  12.409  0.00  0.00    +0.000 A 
ATOM      7  S   UNL     1      43.402   2.881  11.941  0.00  0.00    +0.000 S 
ATOM      8  C   UNL     1      44.179   3.150  10.454  0.00  0.00    +0.000 A 
ATOM      9  N   UNL     1      44.240   2.173   9.507  0.00  0.00    +0.000 NA
ATOM     10  C   UNL     1      44.796   2.546   8.400  0.00  0.00    +0.000 A 
ATOM     11  N   UNL     1      45.327   3.789   8.169  0.00  0.00    +0.000 N 
ATOM     12  C   UNL     1      45.413   4.760   9.140  0.00  0.00    +0.000 A 
ATOM     13  O   UNL     1      46.106   5.757   8.982  0.00  0.00    +0.000 OA
ATOM     14  C   UNL     1      44.687   4.432  10.358  0.00  0.00    +0.000 A 
ATOM     15  H   UNL     1      45.808   3.991   7.305  0.00  0.00    +0.000 HD
ENDBRANCH   3   5
BRANCH   2  16
ATOM     16  C   UNL     1      47.072   6.182  12.238  0.00  0.00    +0.000 C 
BRANCH  16  17
ATOM     17  C   UNL     1      47.399   5.701  13.619  0.00  0.00    +0.000 A 
ATOM     18  C   UNL     1      46.798   4.565  14.157  0.00  0.00    +0.000 A 
ATOM     19  C   UNL     1      47.137   4.151  15.440  0.00  0.00    +0.000 A 
ATOM     20  C   UNL     1      48.094   4.873  16.150  0.00  0.00    +0.000 A 
ATOM     21  N   UNL     1      48.690   5.983  15.647  0.00  0.00    +0.000 NA
ATOM     22  C   UNL     1      48.326   6.375  14.408  0.00  0.00    +0.000 A 
BRANCH  20  23
ATOM     23  C   UNL     1      48.503   4.435  17.534  0.00  0.00    +0.000 C 
BRANCH  23  24
ATOM     24  O   UNL     1      49.897   4.689  17.707  0.00  0.00    +0.000 OA
BRANCH  24  25
ATOM     25  C   UNL     1      50.714   3.597  17.712  0.00  0.00    +0.000 A 
ATOM     26  C   UNL     1      52.049   3.565  18.103  0.00  0.00    +0.000 A 
ATOM     27  C   UNL     1      52.758   2.366  18.034  0.00  0.00    +0.000 A 
ATOM     28  C   UNL     1      52.105   1.236  17.574  0.00  0.00    +0.000 A 
ATOM     29  N   UNL     1      50.814   1.227  17.185  0.00  0.00    +0.000 NA
ATOM     30  C   UNL     1      50.151   2.407  17.266  0.00  0.00    +0.000 A 
ENDBRANCH  24  25
ENDBRANCH  23  24
ENDBRANCH  20  23
ENDBRANCH  16  17
ENDBRANCH   2  16
TORSDOF 6
ENDMDL
MODEL 2
REMARK VINA RESULT:    -7.494      3.253      8.313
REMARK INTER + INTRA:         -11.161
REMARK INTER:                 -10.061
REMARK INTRA:                  -1.100
REMARK UNBOUND:                -1.038
REMARK  Name = 
REMARK  7 active torsions:
REMARK  status: ('A' for Active; 'I' for Inactive)
REMARK    1  A    between atoms: C_1  and  N_2
REMARK    2  A    between atoms: N_2  and  C_3
REMARK    3  A    between atoms: C_3  and  C_4
REMARK    4  A    between atoms: C_7  and  C_8
REMARK    5  A    between atoms: C_8  and  O_9
REMARK    6  A    between atoms: O_9  and  C_10
REMARK    7  A    between atoms: C_18  and  C_20
REMARK                            x       y       z     vdW  Elec       q    Type
REMARK                         _______ _______ _______ _____ _____    ______ ____
ROOT
ATOM      1  C   UNL     1      49.444   7.023  12.314  0.00  0.00    +0.000 C 
ATOM      2  N   UNL     1      48.800   7.412  13.565  0.00  0.00    +0.000 N 
ATOM      3  C   UNL     1      49.656   7.819  14.603  0.00  0.00    +0.000 C 
ATOM      4  O   UNL     1      50.877   7.829  14.454  0.00  0.00    +0.000 OA
ENDROOT
BRANCH   3   5
ATOM      5  C   UNL     1      49.087   8.206  15.899  0.00  0.00    +0.000 A 
ATOM      6  C   UNL     1      48.757   9.503  16.258  0.00  0.00    +0.000 A 
ATOM      7  S   UNL     1      48.043   9.623  17.804  0.00  0.00    +0.000 S 
ATOM      8  C   UNL     1      48.022   7.934  17.982  0.00  0.00    +0.000 A 
ATOM      9  N   UNL     1      47.432   7.348  19.061  0.00  0.00    +0.000 NA
ATOM     10  C   UNL     1      47.429   6.055  19.022  0.00  0.00    +0.000 A 
ATOM     11  N   UNL     1      47.992   5.298  18.027  0.00  0.00    +0.000 N 
ATOM     12  C   UNL     1      48.718   5.841  16.991  0.00  0.00    +0.000 A 
ATOM     13  O   UNL     1      49.410   5.140  16.264  0.00  0.00    +0.000 OA
ATOM     14  C   UNL     1      48.639   7.292  16.923  0.00  0.00    +0.000 A 
ATOM     15  H   UNL     1      48.013   4.292  18.094  0.00  0.00    +0.000 HD
ENDBRANCH   3   5
BRANCH   2  16
ATOM     16  C   UNL     1      47.343   7.572  13.612  0.00  0.00    +0.000 C 
BRANCH  16  17
ATOM     17  C   UNL     1      46.522   6.556  12.877  0.00  0.00    +0.000 A 
ATOM     18  C   UNL     1      46.429   5.237  13.318  0.00  0.00    +0.000 A 
ATOM     19  C   UNL     1      45.651   4.329  12.610  0.00  0.00    +0.000 A 
ATOM     20  C   UNL     1      44.959   4.771  11.484  0.00  0.00    +0.000 A 
ATOM     21  N   UNL     1      45.036   6.049  11.036  0.00  0.00    +0.000 NA
ATOM     22  C   UNL     1      45.816   6.903  11.729  0.00  0.00    +0.000 A 
BRANCH  20  23
ATOM     23  C   UNL     1      44.084   3.817  10.709  0.00  0.00    +0.000 C 
BRANCH  23  24
ATOM     24  O   UNL     1      44.219   4.094   9.315  0.00  0.00    +0.000 OA
BRANCH  24  25
ATOM     25  C   UNL     1      45.164   3.374   8.646  0.00  0.00    +0.000 A 
ATOM     26  C   UNL     1      46.042   3.858   7.681  0.00  0.00    +0.000 A 
ATOM     27  C   UNL     1      46.946   2.986   7.073  0.00  0.00    +0.000 A 
ATOM     28  C   UNL     1      46.940   1.656   7.452  0.00  0.00    +0.000 A 
ATOM     29  N   UNL     1      46.106   1.149   8.382  0.00  0.00    +0.000 NA
ATOM     30  C   UNL     1      45.242   2.021   8.957  0.00  0.00    +0.000 A 
ENDBRANCH  24  25
ENDBRANCH  23  24
ENDBRANCH  20  23
ENDBRANCH  16  17
ENDBRANCH   2  16
TORSDOF 6
ENDMDL
MODEL 3
REMARK VINA RESULT:    -7.389      1.439      2.200
REMARK INTER + INTRA:         -11.018
REMARK INTER:                  -9.824
REMARK INTRA:                  -1.194
REMARK UNBOUND:                -1.038
REMARK  Name = 
REMARK  7 active torsions:
REMARK  status: ('A' for Active; 'I' for Inactive)
REMARK    1  A    between atoms: C_1  and  N_2
REMARK    2  A    between atoms: N_2  and  C_3
REMARK    3  A    between atoms: C_3  and  C_4
REMARK    4  A    between atoms: C_7  and  C_8
REMARK    5  A    between atoms: C_8  and  O_9
REMARK    6  A    between atoms: O_9  and  C_10
REMARK    7  A    between atoms: C_18  and  C_20
REMARK                            x       y       z     vdW  Elec       q    Type
REMARK                         _______ _______ _______ _____ _____    ______ ____
ROOT
ATOM      1  C   UNL     1      46.350   8.725  12.967  0.00  0.00    +0.000 C 
ATOM      2  N   UNL     1      46.237   7.425  12.312  0.00  0.00    +0.000 N 
ATOM      3  C   UNL     1      45.166   7.274  11.413  0.00  0.00    +0.000 C 
ATOM      4  O   UNL     1      44.370   8.190  11.212  0.00  0.00    +0.000 OA
ENDROOT
BRANCH   3   5
ATOM      5  C   UNL     1      44.972   5.989  10.730  0.00  0.00    +0.000 A 
ATOM      6  C   UNL     1      45.532   5.656   9.508  0.00  0.00    +0.000 A 
ATOM      7  S   UNL     1      45.184   4.061   9.009  0.00  0.00    +0.000 S 
ATOM      8  C   UNL     1      44.396   3.721  10.475  0.00  0.00    +0.000 A 
ATOM      9  N   UNL     1      43.940   2.468  10.752  0.00  0.00    +0.000 NA
ATOM     10  C   UNL     1      43.429   2.343  11.935  0.00  0.00    +0.000 A 
ATOM     11  N   UNL     1      43.299   3.360  12.845  0.00  0.00    +0.000 N 
ATOM     12  C   UNL     1      43.617   4.668  12.558  0.00  0.00    +0.000 A 
ATOM     13  O   UNL     1      43.263   5.584  13.291  0.00  0.00    +0.000 OA
ATOM     14  C   UNL     1      44.313   4.834  11.291  0.00  0.00    +0.000 A 
ATOM     15  H   UNL     1      42.828   3.208  13.724  0.00  0.00    +0.000 HD
ENDBRANCH   3   5
BRANCH   2  16
ATOM     16  C   UNL     1      47.326   6.451  12.439  0.00  0.00    +0.000 C 
BRANCH  16  17
ATOM     17  C   UNL     1      47.559   5.864  13.799  0.00  0.00    +0.000 A 
ATOM     18  C   UNL     1      46.882   4.723  14.226  0.00  0.00    +0.000 A 
ATOM     19  C   UNL     1      47.134   4.209  15.492  0.00  0.00    +0.000 A 
ATOM     20  C   UNL     1      48.082   4.837  16.297  0.00  0.00    +0.000 A 
ATOM     21  N   UNL     1      48.752   5.949  15.903  0.00  0.00    +0.000 NA
ATOM     22  C   UNL     1      48.471   6.439  14.678  0.00  0.00    +0.000 A 
BRANCH  20  23
ATOM     23  C   UNL     1      48.399   4.287  17.666  0.00  0.00    +0.000 C 
BRANCH  23  24
ATOM     24  O   UNL     1      49.759   4.585  17.981  0.00  0.00    +0.000 OA
BRANCH  24  25
ATOM     25  C   UNL     1      50.645   3.555  17.861  0.00  0.00    +0.000 A 
ATOM     26  C   UNL     1      50.372   2.284  17.364  0.00  0.00    +0.000 A 
ATOM     27  C   UNL     1      51.389   1.329  17.321  0.00  0.00    +0.000 A 
ATOM     28  C   UNL     1      52.647   1.680  17.779  0.00  0.00    +0.000 A 
ATOM     29  N   UNL     1      52.950   2.900  18.267  0.00  0.00    +0.000 NA
ATOM     30  C   UNL     1      51.942   3.806  18.294  0.00  0.00    +0.000 A 
ENDBRANCH  24  25
ENDBRANCH  23  24
ENDBRANCH  20  23
ENDBRANCH  16  17
ENDBRANCH   2  16
TORSDOF 6
ENDMDL
MODEL 4
REMARK VINA RESULT:    -7.207      3.338      8.531
REMARK INTER + INTRA:         -10.773
REMARK INTER:                  -9.938
REMARK INTRA:                  -0.835
REMARK UNBOUND:                -1.038
REMARK  Name = 
REMARK  7 active torsions:
REMARK  status: ('A' for Active; 'I' for Inactive)
REMARK    1  A    between atoms: C_1  and  N_2
REMARK    2  A    between atoms: N_2  and  C_3
REMARK    3  A    between atoms: C_3  and  C_4
REMARK    4  A    between atoms: C_7  and  C_8
REMARK    5  A    between atoms: C_8  and  O_9
REMARK    6  A    between atoms: O_9  and  C_10
REMARK    7  A    between atoms: C_18  and  C_20
REMARK                            x       y       z     vdW  Elec       q    Type
REMARK                         _______ _______ _______ _____ _____    ______ ____
ROOT
ATOM      1  C   UNL     1      48.902   7.385  12.336  0.00  0.00    +0.000 C 
ATOM      2  N   UNL     1      48.339   7.007  13.629  0.00  0.00    +0.000 N 
ATOM      3  C   UNL     1      49.228   7.011  14.718  0.00  0.00    +0.000 C 
ATOM      4  O   UNL     1      50.413   7.305  14.571  0.00  0.00    +0.000 OA
ENDROOT
BRANCH   3   5
ATOM      5  C   UNL     1      48.742   6.623  16.048  0.00  0.00    +0.000 A 
ATOM      6  C   UNL     1      48.591   5.316  16.479  0.00  0.00    +0.000 A 
ATOM      7  S   UNL     1      48.079   5.187  18.102  0.00  0.00    +0.000 S 
ATOM      8  C   UNL     1      48.182   6.868  18.321  0.00  0.00    +0.000 A 
ATOM      9  N   UNL     1      47.974   7.431  19.544  0.00  0.00    +0.000 NA
ATOM     10  C   UNL     1      48.159   8.711  19.572  0.00  0.00    +0.000 A 
ATOM     11  N   UNL     1      48.494   9.481  18.488  0.00  0.00    +0.000 N 
ATOM     12  C   UNL     1      48.578   8.978  17.210  0.00  0.00    +0.000 A 
ATOM     13  O   UNL     1      48.634   9.720  16.237  0.00  0.00    +0.000 OA
ATOM     14  C   UNL     1      48.505   7.526  17.149  0.00  0.00    +0.000 A 
ATOM     15  H   UNL     1      48.556  10.484  18.567  0.00  0.00    +0.000 HD
ENDBRANCH   3   5
BRANCH   2  16
ATOM     16  C   UNL     1      46.886   6.867  13.774  0.00  0.00    +0.000 C 
BRANCH  16  17
ATOM     17  C   UNL     1      46.186   5.974  12.794  0.00  0.00    +0.000 A 
ATOM     18  C   UNL     1      45.775   6.440  11.547  0.00  0.00    +0.000 A 
ATOM     19  C   UNL     1      45.136   5.575  10.667  0.00  0.00    +0.000 A 
ATOM     20  C   UNL     1      44.945   4.249  11.047  0.00  0.00    +0.000 A 
ATOM     21  N   UNL     1      45.336   3.773  12.256  0.00  0.00    +0.000 NA
ATOM     22  C   UNL     1      45.933   4.640  13.099  0.00  0.00    +0.000 A 
BRANCH  20  23
ATOM     23  C   UNL     1      44.280   3.278  10.103  0.00  0.00    +0.000 C 
BRANCH  23  24
ATOM     24  O   UNL     1      44.582   3.657   8.760  0.00  0.00    +0.000 OA
BRANCH  24  25
ATOM     25  C   UNL     1      45.564   2.943   8.139  0.00  0.00    +0.000 A 
ATOM     26  C   UNL     1      46.435   3.414   7.161  0.00  0.00    +0.000 A 
ATOM     27  C   UNL     1      47.380   2.550   6.607  0.00  0.00    +0.000 A 
ATOM     28  C   UNL     1      47.421   1.241   7.052  0.00  0.00    +0.000 A 
ATOM     29  N   UNL     1      46.594   0.747   7.995  0.00  0.00    +0.000 NA
ATOM     30  C   UNL     1      45.689   1.611   8.516  0.00  0.00    +0.000 A 
ENDBRANCH  24  25
ENDBRANCH  23  24
ENDBRANCH  20  23
ENDBRANCH  16  17
ENDBRANCH   2  16
TORSDOF 6
ENDMDL
MODEL 5
REMARK VINA RESULT:    -6.922      3.362      8.693
REMARK INTER + INTRA:         -10.388
REMARK INTER:                  -9.887
REMARK INTRA:                  -0.501
REMARK UNBOUND:                -1.038
REMARK  Name = 
REMARK  7 active torsions:
REMARK  status: ('A' for Active; 'I' for Inactive)
REMARK    1  A    between atoms: C_1  and  N_2
REMARK    2  A    between atoms: N_2  and  C_3
REMARK    3  A    between atoms: C_3  and  C_4
REMARK    4  A    between atoms: C_7  and  C_8
REMARK    5  A    between atoms: C_8  and  O_9
REMARK    6  A    between atoms: O_9  and  C_10
REMARK    7  A    between atoms: C_18  and  C_20
REMARK                            x       y       z     vdW  Elec       q    Type
REMARK                         _______ _______ _______ _____ _____    ______ ____
ROOT
ATOM      1  C   UNL     1      47.246   4.241  16.535  0.00  0.00    +0.000 C 
ATOM      2  N   UNL     1      47.955   5.385  15.970  0.00  0.00    +0.000 N 
ATOM      3  C   UNL     1      48.918   5.988  16.798  0.00  0.00    +0.000 C 
ATOM      4  O   UNL     1      49.130   5.571  17.936  0.00  0.00    +0.000 OA
ENDROOT
BRANCH   3   5
ATOM      5  C   UNL     1      49.660   7.157  16.311  0.00  0.00    +0.000 A 
ATOM      6  C   UNL     1      50.754   7.098  15.462  0.00  0.00    +0.000 A 
ATOM      7  S   UNL     1      51.354   8.631  15.013  0.00  0.00    +0.000 S 
ATOM      8  C   UNL     1      50.086   9.420  15.821  0.00  0.00    +0.000 A 
ATOM      9  N   UNL     1      49.938  10.772  15.745  0.00  0.00    +0.000 NA
ATOM     10  C   UNL     1      48.886  11.222  16.349  0.00  0.00    +0.000 A 
ATOM     11  N   UNL     1      47.995  10.453  17.051  0.00  0.00    +0.000 N 
ATOM     12  C   UNL     1      48.178   9.106  17.272  0.00  0.00    +0.000 A 
ATOM     13  O   UNL     1      47.506   8.501  18.098  0.00  0.00    +0.000 OA
ATOM     14  C   UNL     1      49.274   8.534  16.505  0.00  0.00    +0.000 A 
ATOM     15  H   UNL     1      47.232  10.878  17.556  0.00  0.00    +0.000 HD
ENDBRANCH   3   5
BRANCH   2  16
ATOM     16  C   UNL     1      47.803   5.703  14.546  0.00  0.00    +0.000 C 
BRANCH  16  17
ATOM     17  C   UNL     1      46.688   5.021  13.812  0.00  0.00    +0.000 A 
ATOM     18  C   UNL     1      45.554   5.717  13.398  0.00  0.00    +0.000 A 
ATOM     19  C   UNL     1      44.548   5.045  12.714  0.00  0.00    +0.000 A 
ATOM     20  C   UNL     1      44.713   3.691  12.434  0.00  0.00    +0.000 A 
ATOM     21  N   UNL     1      45.807   2.993  12.828  0.00  0.00    +0.000 NA
ATOM     22  C   UNL     1      46.758   3.665  13.511  0.00  0.00    +0.000 A 
BRANCH  20  23
ATOM     23  C   UNL     1      43.652   2.939  11.669  0.00  0.00    +0.000 C 
BRANCH  23  24
ATOM     24  O   UNL     1      43.488   3.546  10.387  0.00  0.00    +0.000 OA
BRANCH  24  25
ATOM     25  C   UNL     1      44.444   3.259   9.458  0.00  0.00    +0.000 A 
ATOM     26  C   UNL     1      44.999   2.009   9.202  0.00  0.00    +0.000 A 
ATOM     27  C   UNL     1      45.986   1.880   8.224  0.00  0.00    +0.000 A 
ATOM     28  C   UNL     1      46.386   3.011   7.535  0.00  0.00    +0.000 A 
ATOM     29  N   UNL     1      45.873   4.239   7.754  0.00  0.00    +0.000 NA
ATOM     30  C   UNL     1      44.915   4.331   8.708  0.00  0.00    +0.000 A 
ENDBRANCH  24  25
ENDBRANCH  23  24
ENDBRANCH  20  23
ENDBRANCH  16  17
ENDBRANCH   2  16
TORSDOF 6
ENDMDL
MODEL 6
REMARK VINA RESULT:    -6.898      3.826      8.273
REMARK INTER + INTRA:         -10.355
REMARK INTER:                  -9.439
REMARK INTRA:                  -0.917
REMARK UNBOUND:                -1.038
REMARK  Name = 
REMARK  7 active torsions:
REMARK  status: ('A' for Active; 'I' for Inactive)
REMARK    1  A    between atoms: C_1  and  N_2
REMARK    2  A    between atoms: N_2  and  C_3
REMARK    3  A    between atoms: C_3  and  C_4
REMARK    4  A    between atoms: C_7  and  C_8
REMARK    5  A    between atoms: C_8  and  O_9
REMARK    6  A    between atoms: O_9  and  C_10
REMARK    7  A    between atoms: C_18  and  C_20
REMARK                            x       y       z     vdW  Elec       q    Type
REMARK                         _______ _______ _______ _____ _____    ______ ____
ROOT
ATOM      1  C   UNL     1      47.685   5.402  14.781  0.00  0.00    +0.000 C 
ATOM      2  N   UNL     1      47.853   6.802  14.402  0.00  0.00    +0.000 N 
ATOM      3  C   UNL     1      49.115   7.366  14.657  0.00  0.00    +0.000 C 
ATOM      4  O   UNL     1      50.012   6.709  15.183  0.00  0.00    +0.000 OA
ENDROOT
BRANCH   3   5
ATOM      5  C   UNL     1      49.358   8.775  14.323  0.00  0.00    +0.000 A 
ATOM      6  C   UNL     1      49.176   9.833  15.198  0.00  0.00    +0.000 A 
ATOM      7  S   UNL     1      49.614  11.347  14.542  0.00  0.00    +0.000 S 
ATOM      8  C   UNL     1      50.195  10.618  13.121  0.00  0.00    +0.000 A 
ATOM      9  N   UNL     1      50.817  11.354  12.159  0.00  0.00    +0.000 NA
ATOM     10  C   UNL     1      51.270  10.653  11.170  0.00  0.00    +0.000 A 
ATOM     11  N   UNL     1      51.125   9.296  11.039  0.00  0.00    +0.000 N 
ATOM     12  C   UNL     1      50.386   8.533  11.914  0.00  0.00    +0.000 A 
ATOM     13  O   UNL     1      50.070   7.381  11.641  0.00  0.00    +0.000 OA
ATOM     14  C   UNL     1      49.967   9.254  13.106  0.00  0.00    +0.000 A 
ATOM     15  H   UNL     1      51.444   8.821  10.208  0.00  0.00    +0.000 HD
ENDBRANCH   3   5
BRANCH   2  16
ATOM     16  C   UNL     1      46.820   7.467  13.599  0.00  0.00    +0.000 C 
BRANCH  16  17
ATOM     17  C   UNL     1      46.159   6.650  12.531  0.00  0.00    +0.000 A 
ATOM     18  C   UNL     1      46.644   6.628  11.224  0.00  0.00    +0.000 A 
ATOM     19  C   UNL     1      46.002   5.851  10.267  0.00  0.00    +0.000 A 
ATOM     20  C   UNL     1      44.900   5.089  10.647  0.00  0.00    +0.000 A 
ATOM     21  N   UNL     1      44.409   5.097  11.911  0.00  0.00    +0.000 NA
ATOM     22  C   UNL     1      45.037   5.877  12.815  0.00  0.00    +0.000 A 
BRANCH  20  23
ATOM     23  C   UNL     1      44.199   4.214   9.638  0.00  0.00    +0.000 C 
BRANCH  23  24
ATOM     24  O   UNL     1      44.812   4.396   8.361  0.00  0.00    +0.000 OA
BRANCH  24  25
ATOM     25  C   UNL     1      45.653   3.405   7.949  0.00  0.00    +0.000 A 
ATOM     26  C   UNL     1      46.652   3.516   6.986  0.00  0.00    +0.000 A 
ATOM     27  C   UNL     1      47.422   2.399   6.662  0.00  0.00    +0.000 A 
ATOM     28  C   UNL     1      47.166   1.206   7.314  0.00  0.00    +0.000 A 
ATOM     29  N   UNL     1      46.207   1.059   8.252  0.00  0.00    +0.000 NA
ATOM     30  C   UNL     1      45.478   2.162   8.546  0.00  0.00    +0.000 A 
ENDBRANCH  24  25
ENDBRANCH  23  24
ENDBRANCH  20  23
ENDBRANCH  16  17
ENDBRANCH   2  16
TORSDOF 6
ENDMDL
MODEL 7
REMARK VINA RESULT:    -6.721      2.032      8.127
REMARK INTER + INTRA:         -10.116
REMARK INTER:                  -9.135
REMARK INTRA:                  -0.981
REMARK UNBOUND:                -1.038
REMARK  Name = 
REMARK  7 active torsions:
REMARK  status: ('A' for Active; 'I' for Inactive)
REMARK    1  A    between atoms: C_1  and  N_2
REMARK    2  A    between atoms: N_2  and  C_3
REMARK    3  A    between atoms: C_3  and  C_4
REMARK    4  A    between atoms: C_7  and  C_8
REMARK    5  A    between atoms: C_8  and  O_9
REMARK    6  A    between atoms: O_9  and  C_10
REMARK    7  A    between atoms: C_18  and  C_20
REMARK                            x       y       z     vdW  Elec       q    Type
REMARK                         _______ _______ _______ _____ _____    ______ ____
ROOT
ATOM      1  C   UNL     1      49.107   8.862  16.253  0.00  0.00    +0.000 C 
ATOM      2  N   UNL     1      49.048   7.404  16.238  0.00  0.00    +0.000 N 
ATOM      3  C   UNL     1      48.576   6.790  17.412  0.00  0.00    +0.000 C 
ATOM      4  O   UNL     1      48.248   7.458  18.391  0.00  0.00    +0.000 OA
ENDROOT
BRANCH   3   5
ATOM      5  C   UNL     1      48.506   5.326  17.483  0.00  0.00    +0.000 A 
ATOM      6  C   UNL     1      47.342   4.586  17.347  0.00  0.00    +0.000 A 
ATOM      7  S   UNL     1      47.594   2.899  17.403  0.00  0.00    +0.000 S 
ATOM      8  C   UNL     1      49.280   3.102  17.467  0.00  0.00    +0.000 A 
ATOM      9  N   UNL     1      50.119   2.030  17.425  0.00  0.00    +0.000 NA
ATOM     10  C   UNL     1      51.374   2.344  17.408  0.00  0.00    +0.000 A 
ATOM     11  N   UNL     1      51.864   3.623  17.466  0.00  0.00    +0.000 N 
ATOM     12  C   UNL     1      51.062   4.726  17.649  0.00  0.00    +0.000 A 
ATOM     13  O   UNL     1      51.537   5.816  17.943  0.00  0.00    +0.000 OA
ATOM     14  C   UNL     1      49.640   4.435  17.545  0.00  0.00    +0.000 A 
ATOM     15  H   UNL     1      52.857   3.792  17.517  0.00  0.00    +0.000 HD
ENDBRANCH   3   5
BRANCH   2  16
ATOM     16  C   UNL     1      49.258   6.681  14.979  0.00  0.00    +0.000 C 
BRANCH  16  17
ATOM     17  C   UNL     1      48.103   6.627  14.025  0.00  0.00    +0.000 A 
ATOM     18  C   UNL     1      47.870   7.647  13.104  0.00  0.00    +0.000 A 
ATOM     19  C   UNL     1      46.791   7.552  12.233  0.00  0.00    +0.000 A 
ATOM     20  C   UNL     1      45.981   6.420  12.286  0.00  0.00    +0.000 A 
ATOM     21  N   UNL     1      46.188   5.417  13.175  0.00  0.00    +0.000 NA
ATOM     22  C   UNL     1      47.229   5.545  14.024  0.00  0.00    +0.000 A 
BRANCH  20  23
ATOM     23  C   UNL     1      44.818   6.275  11.336  0.00  0.00    +0.000 C 
BRANCH  23  24
ATOM     24  O   UNL     1      44.443   4.899  11.272  0.00  0.00    +0.000 OA
BRANCH  24  25
ATOM     25  C   UNL     1      44.876   4.206  10.180  0.00  0.00    +0.000 A 
ATOM     26  C   UNL     1      45.550   4.732   9.082  0.00  0.00    +0.000 A 
ATOM     27  C   UNL     1      45.915   3.891   8.030  0.00  0.00    +0.000 A 
ATOM     28  C   UNL     1      45.591   2.548   8.114  0.00  0.00    +0.000 A 
ATOM     29  N   UNL     1      44.939   2.001   9.159  0.00  0.00    +0.000 NA
ATOM     30  C   UNL     1      44.601   2.844  10.166  0.00  0.00    +0.000 A 
ENDBRANCH  24  25
ENDBRANCH  23  24
ENDBRANCH  20  23
ENDBRANCH  16  17
ENDBRANCH   2  16
TORSDOF 6
ENDMDL
MODEL 8
REMARK VINA RESULT:    -6.445      2.889      7.983
REMARK INTER + INTRA:          -9.743
REMARK INTER:                  -8.339
REMARK INTRA:                  -1.404
REMARK UNBOUND:                -1.038
REMARK  Name = 
REMARK  7 active torsions:
REMARK  status: ('A' for Active; 'I' for Inactive)
REMARK    1  A    between atoms: C_1  and  N_2
REMARK    2  A    between atoms: N_2  and  C_3
REMARK    3  A    between atoms: C_3  and  C_4
REMARK    4  A    between atoms: C_7  and  C_8
REMARK    5  A    between atoms: C_8  and  O_9
REMARK    6  A    between atoms: O_9  and  C_10
REMARK    7  A    between atoms: C_18  and  C_20
REMARK                            x       y       z     vdW  Elec       q    Type
REMARK                         _______ _______ _______ _____ _____    ______ ____
ROOT
ATOM      1  C   UNL     1      47.879   9.297  17.966  0.00  0.00    +0.000 C 
ATOM      2  N   UNL     1      48.823   8.267  17.543  0.00  0.00    +0.000 N 
ATOM      3  C   UNL     1      48.893   7.119  18.351  0.00  0.00    +0.000 C 
ATOM      4  O   UNL     1      48.202   7.010  19.363  0.00  0.00    +0.000 OA
ENDROOT
BRANCH   3   5
ATOM      5  C   UNL     1      49.834   6.046  18.004  0.00  0.00    +0.000 A 
ATOM      6  C   UNL     1      51.200   6.097  18.224  0.00  0.00    +0.000 A 
ATOM      7  S   UNL     1      52.017   4.665  17.782  0.00  0.00    +0.000 S 
ATOM      8  C   UNL     1      50.553   3.883  17.418  0.00  0.00    +0.000 A 
ATOM      9  N   UNL     1      50.528   2.565  17.073  0.00  0.00    +0.000 NA
ATOM     10  C   UNL     1      49.337   2.090  16.897  0.00  0.00    +0.000 A 
ATOM     11  N   UNL     1      48.179   2.817  16.997  0.00  0.00    +0.000 N 
ATOM     12  C   UNL     1      48.163   4.177  17.205  0.00  0.00    +0.000 A 
ATOM     13  O   UNL     1      47.141   4.833  17.045  0.00  0.00    +0.000 OA
ATOM     14  C   UNL     1      49.468   4.731  17.537  0.00  0.00    +0.000 A 
ATOM     15  H   UNL     1      47.287   2.398  16.779  0.00  0.00    +0.000 HD
ENDBRANCH   3   5
BRANCH   2  16
ATOM     16  C   UNL     1      49.464   8.366  16.227  0.00  0.00    +0.000 C 
BRANCH  16  17
ATOM     17  C   UNL     1      48.647   7.955  15.039  0.00  0.00    +0.000 A 
ATOM     18  C   UNL     1      48.708   6.662  14.524  0.00  0.00    +0.000 A 
ATOM     19  C   UNL     1      47.928   6.323  13.425  0.00  0.00    +0.000 A 
ATOM     20  C   UNL     1      47.080   7.284  12.879  0.00  0.00    +0.000 A 
ATOM     21  N   UNL     1      47.006   8.549  13.363  0.00  0.00    +0.000 NA
ATOM     22  C   UNL     1      47.791   8.858  14.416  0.00  0.00    +0.000 A 
BRANCH  20  23
ATOM     23  C   UNL     1      46.200   6.940  11.704  0.00  0.00    +0.000 C 
BRANCH  23  24
ATOM     24  O   UNL     1      44.888   6.638  12.180  0.00  0.00    +0.000 OA
BRANCH  24  25
ATOM     25  C   UNL     1      44.442   5.369  11.954  0.00  0.00    +0.000 A 
ATOM     26  C   UNL     1      44.317   4.746  10.716  0.00  0.00    +0.000 A 
ATOM     27  C   UNL     1      43.826   3.441  10.648  0.00  0.00    +0.000 A 
ATOM     28  C   UNL     1      43.477   2.804  11.826  0.00  0.00    +0.000 A 
ATOM     29  N   UNL     1      43.583   3.374  13.043  0.00  0.00    +0.000 NA
ATOM     30  C   UNL     1      44.065   4.640  13.076  0.00  0.00    +0.000 A 
ENDBRANCH  24  25
ENDBRANCH  23  24
ENDBRANCH  20  23
ENDBRANCH  16  17
ENDBRANCH   2  16
TORSDOF 6
ENDMDL
MODEL 9
REMARK VINA RESULT:    -6.216      3.381      4.692
REMARK INTER + INTRA:          -9.434
REMARK INTER:                  -7.675
REMARK INTRA:                  -1.759
REMARK UNBOUND:                -1.038
REMARK  Name = 
REMARK  7 active torsions:
REMARK  status: ('A' for Active; 'I' for Inactive)
REMARK    1  A    between atoms: C_1  and  N_2
REMARK    2  A    between atoms: N_2  and  C_3
REMARK    3  A    between atoms: C_3  and  C_4
REMARK    4  A    between atoms: C_7  and  C_8
REMARK    5  A    between atoms: C_8  and  O_9
REMARK    6  A    between atoms: O_9  and  C_10
REMARK    7  A    between atoms: C_18  and  C_20
REMARK                            x       y       z     vdW  Elec       q    Type
REMARK                         _______ _______ _______ _____ _____    ______ ____
ROOT
ATOM      1  C   UNL     1      51.203   9.668  13.564  0.00  0.00    +0.000 C 
ATOM      2  N   UNL     1      49.752   9.522  13.628  0.00  0.00    +0.000 N 
ATOM      3  C   UNL     1      49.169   8.688  12.659  0.00  0.00    +0.000 C 
ATOM      4  O   UNL     1      49.854   8.130  11.803  0.00  0.00    +0.000 OA
ENDROOT
BRANCH   3   5
ATOM      5  C   UNL     1      47.712   8.506  12.644  0.00  0.00    +0.000 A 
ATOM      6  C   UNL     1      46.812   9.413  12.110  0.00  0.00    +0.000 A 
ATOM      7  S   UNL     1      45.190   8.885  12.174  0.00  0.00    +0.000 S 
ATOM      8  C   UNL     1      45.655   7.370  12.785  0.00  0.00    +0.000 A 
ATOM      9  N   UNL     1      44.741   6.377  12.971  0.00  0.00    +0.000 NA
ATOM     10  C   UNL     1      45.253   5.258  13.371  0.00  0.00    +0.000 A 
ATOM     11  N   UNL     1      46.582   5.054  13.637  0.00  0.00    +0.000 N 
ATOM     12  C   UNL     1      47.518   6.062  13.598  0.00  0.00    +0.000 A 
ATOM     13  O   UNL     1      48.637   5.910  14.074  0.00  0.00    +0.000 OA
ATOM     14  C   UNL     1      47.014   7.303  13.030  0.00  0.00    +0.000 A 
ATOM     15  H   UNL     1      46.904   4.174  14.012  0.00  0.00    +0.000 HD
ENDBRANCH   3   5
BRANCH   2  16
ATOM     16  C   UNL     1      49.020  10.046  14.787  0.00  0.00    +0.000 C 
BRANCH  16  17
ATOM     17  C   UNL     1      48.977   9.182  16.012  0.00  0.00    +0.000 A 
ATOM     18  C   UNL     1      47.992   9.344  16.984  0.00  0.00    +0.000 A 
ATOM     19  C   UNL     1      47.986   8.516  18.100  0.00  0.00    +0.000 A 
ATOM     20  C   UNL     1      48.956   7.522  18.206  0.00  0.00    +0.000 A 
ATOM     21  N   UNL     1      49.925   7.347  17.273  0.00  0.00    +0.000 NA
ATOM     22  C   UNL     1      49.921   8.180  16.211  0.00  0.00    +0.000 A 
BRANCH  20  23
ATOM     23  C   UNL     1      48.960   6.590  19.392  0.00  0.00    +0.000 C 
BRANCH  23  24
ATOM     24  O   UNL     1      47.896   5.650  19.245  0.00  0.00    +0.000 OA
BRANCH  24  25
ATOM     25  C   UNL     1      48.105   4.636  18.358  0.00  0.00    +0.000 A 
ATOM     26  C   UNL     1      49.190   3.765  18.339  0.00  0.00    +0.000 A 
ATOM     27  C   UNL     1      49.268   2.784  17.350  0.00  0.00    +0.000 A 
ATOM     28  C   UNL     1      48.255   2.708  16.411  0.00  0.00    +0.000 A 
ATOM     29  N   UNL     1      47.189   3.533  16.395  0.00  0.00    +0.000 NA
ATOM     30  C   UNL     1      47.140   4.474  17.370  0.00  0.00    +0.000 A 
ENDBRANCH  24  25
ENDBRANCH  23  24
ENDBRANCH  20  23
ENDBRANCH  16  17
ENDBRANCH   2  16
TORSDOF 6
ENDMDL
