MODEL 1
REMARK VINA RESULT:    -8.977      0.000      0.000
REMARK INTER + INTRA:         -13.679
REMARK INTER:                 -12.651
REMARK INTRA:                  -1.028
REMARK UNBOUND:                -1.028
REMARK  Name = 
REMARK  7 active torsions:
REMARK  status: ('A' for Active; 'I' for Inactive)
REMARK    1  A    between atoms: C_2  and  C_20
REMARK    2  A    between atoms: N_3  and  C_4
REMARK    3  A    between atoms: C_4  and  C_5
REMARK    4  A    between atoms: C_9  and  C_10
REMARK    5  A    between atoms: C_10  and  N_11
REMARK    6  A    between atoms: N_11  and  C_12
REMARK    7  A    between atoms: C_12  and  C_13
REMARK                            x       y       z     vdW  Elec       q    Type
REMARK                         _______ _______ _______ _____ _____    ______ ____
ROOT
ATOM      1  C   UNL     1      46.391   4.053  14.649  0.00  0.00    +0.000 C 
ENDROOT
BRANCH   1   2
ATOM      2  C   UNL     1      46.144   4.997  13.503  0.00  0.00    +0.000 A 
ATOM      3  C   UNL     1      47.178   5.803  13.008  0.00  0.00    +0.000 A 
ATOM      4  C   UNL     1      46.979   6.585  11.869  0.00  0.00    +0.000 A 
ATOM      5  C   UNL     1      45.755   6.555  11.200  0.00  0.00    +0.000 A 
ATOM      6  C   UNL     1      44.711   5.747  11.670  0.00  0.00    +0.000 A 
ATOM      7  C   UNL     1      44.901   5.014  12.854  0.00  0.00    +0.000 A 
BRANCH   6   8
ATOM      8  C   UNL     1      43.433   5.583  10.874  0.00  0.00    +0.000 C 
BRANCH   8   9
ATOM      9  N   UNL     1      43.679   4.861   9.634  0.00  0.00    +0.000 NA
ATOM     10  H   UNL     1      44.418   5.342   9.121  0.00  0.00    +0.000 HD
BRANCH   9  11
ATOM     11  C   UNL     1      44.082   3.474   9.862  0.00  0.00    +0.000 C 
BRANCH  11  12
ATOM     12  C   UNL     1      45.119   3.072   8.845  0.00  0.00    +0.000 A 
ATOM     13  C   UNL     1      45.744   4.010   8.016  0.00  0.00    +0.000 A 
ATOM     14  C   UNL     1      46.769   3.606   7.164  0.00  0.00    +0.000 A 
ATOM     15  C   UNL     1      47.123   2.269   7.154  0.00  0.00    +0.000 A 
ATOM     16  N   UNL     1      46.518   1.325   7.907  0.00  0.00    +0.000 NA
ATOM     17  C   UNL     1      45.531   1.748   8.730  0.00  0.00    +0.000 A 
ENDBRANCH  11  12
ENDBRANCH   9  11
ENDBRANCH   8   9
ENDBRANCH   6   8
ENDBRANCH   1   2
BRANCH   1  20
ATOM     18  O   UNL     1      46.698   3.254  17.259  0.00  0.00    +0.000 OA
ATOM     19  C   UNL     1      47.598   3.917  16.749  0.00  0.00    +0.000 C 
ATOM     20  N   UNL     1      47.515   4.410  15.467  0.00  0.00    +0.000 N 
ATOM     21  H   UNL     1      48.350   4.751  15.003  0.00  0.00    +0.000 HD
BRANCH  19  22
ATOM     22  C   UNL     1      48.805   4.260  17.501  0.00  0.00    +0.000 A 
ATOM     23  C   UNL     1      48.850   5.410  18.276  0.00  0.00    +0.000 A 
ATOM     24  S   UNL     1      50.339   5.621  19.084  0.00  0.00    +0.000 S 
ATOM     25  C   UNL     1      50.952   4.167  18.453  0.00  0.00    +0.000 A 
ATOM     26  N   UNL     1      52.197   3.722  18.776  0.00  0.00    +0.000 NA
ATOM     27  C   UNL     1      52.514   2.586  18.249  0.00  0.00    +0.000 A 
ATOM     28  N   UNL     1      51.703   1.856  17.423  0.00  0.00    +0.000 N 
ATOM     29  C   UNL     1      50.453   2.288  17.026  0.00  0.00    +0.000 A 
ATOM     30  O   UNL     1      49.795   1.647  16.216  0.00  0.00    +0.000 OA
ATOM     31  C   UNL     1      50.048   3.545  17.615  0.00  0.00    +0.000 A 
ATOM     32  H   UNL     1      52.012   0.983  17.022  0.00  0.00    +0.000 HD
ENDBRANCH  19  22
ENDBRANCH   1  20
TORSDOF 7
ENDMDL
MODEL 2
REMARK VINA RESULT:    -8.796      2.114      3.092
REMARK INTER + INTRA:         -13.424
REMARK INTER:                 -11.962
REMARK INTRA:                  -1.461
REMARK UNBOUND:                -1.028
REMARK  Name = 
REMARK  7 active torsions:
REMARK  status: ('A' for Active; 'I' for Inactive)
REMARK    1  A    between atoms: C_2  and  C_20
REMARK    2  A    between atoms: N_3  and  C_4
REMARK    3  A    between atoms: C_4  and  C_5
REMARK    4  A    between atoms: C_9  and  C_10
REMARK    5  A    between atoms: C_10  and  N_11
REMARK    6  A    between atoms: N_11  and  C_12
REMARK    7  A    between atoms: C_12  and  C_13
REMARK                            x       y       z     vdW  Elec       q    Type
REMARK                         _______ _______ _______ _____ _____    ______ ____
ROOT
ATOM      1  C   UNL     1      47.294   6.651  11.709  0.00  0.00    +0.000 C 
ENDROOT
BRANCH   1   2
ATOM      2  C   UNL     1      45.833   6.304  11.611  0.00  0.00    +0.000 A 
ATOM      3  C   UNL     1      44.866   7.312  11.503  0.00  0.00    +0.000 A 
ATOM      4  C   UNL     1      43.526   6.985  11.289  0.00  0.00    +0.000 A 
ATOM      5  C   UNL     1      43.140   5.650  11.159  0.00  0.00    +0.000 A 
ATOM      6  C   UNL     1      44.092   4.626  11.250  0.00  0.00    +0.000 A 
ATOM      7  C   UNL     1      45.427   4.964  11.530  0.00  0.00    +0.000 A 
BRANCH   6   8
ATOM      8  C   UNL     1      43.720   3.187  10.959  0.00  0.00    +0.000 C 
BRANCH   8   9
ATOM      9  N   UNL     1      44.870   2.438  10.473  0.00  0.00    +0.000 NA
ATOM     10  H   UNL     1      45.095   1.714  11.155  0.00  0.00    +0.000 HD
BRANCH   9  11
ATOM     11  C   UNL     1      44.624   1.811   9.176  0.00  0.00    +0.000 C 
BRANCH  11  12
ATOM     12  C   UNL     1      45.744   2.151   8.227  0.00  0.00    +0.000 A 
ATOM     13  C   UNL     1      45.957   3.457   7.771  0.00  0.00    +0.000 A 
ATOM     14  C   UNL     1      47.065   3.741   6.978  0.00  0.00    +0.000 A 
ATOM     15  C   UNL     1      47.918   2.703   6.648  0.00  0.00    +0.000 A 
ATOM     16  N   UNL     1      47.727   1.422   7.032  0.00  0.00    +0.000 NA
ATOM     17  C   UNL     1      46.647   1.178   7.808  0.00  0.00    +0.000 A 
ENDBRANCH  11  12
ENDBRANCH   9  11
ENDBRANCH   8   9
ENDBRANCH   6   8
ENDBRANCH   1   2
BRANCH   1  20
ATOM     18  O   UNL     1      47.541   8.146  13.999  0.00  0.00    +0.000 OA
ATOM     19  C   UNL     1      47.956   6.990  14.018  0.00  0.00    +0.000 C 
ATOM     20  N   UNL     1      47.927   6.179  12.908  0.00  0.00    +0.000 N 
ATOM     21  H   UNL     1      48.060   5.178  13.010  0.00  0.00    +0.000 HD
BRANCH  19  22
ATOM     22  C   UNL     1      48.549   6.417  15.227  0.00  0.00    +0.000 A 
ATOM     23  C   UNL     1      49.604   7.055  15.864  0.00  0.00    +0.000 A 
ATOM     24  S   UNL     1      50.141   6.236  17.262  0.00  0.00    +0.000 S 
ATOM     25  C   UNL     1      48.960   5.029  17.078  0.00  0.00    +0.000 A 
ATOM     26  N   UNL     1      48.841   4.010  17.972  0.00  0.00    +0.000 NA
ATOM     27  C   UNL     1      47.876   3.187  17.722  0.00  0.00    +0.000 A 
ATOM     28  N   UNL     1      47.024   3.285  16.656  0.00  0.00    +0.000 N 
ATOM     29  C   UNL     1      47.135   4.270  15.695  0.00  0.00    +0.000 A 
ATOM     30  O   UNL     1      46.407   4.272  14.710  0.00  0.00    +0.000 OA
ATOM     31  C   UNL     1      48.187   5.229  15.951  0.00  0.00    +0.000 A 
ATOM     32  H   UNL     1      46.300   2.599  16.499  0.00  0.00    +0.000 HD
ENDBRANCH  19  22
ENDBRANCH   1  20
TORSDOF 7
ENDMDL
MODEL 3
REMARK VINA RESULT:    -8.469      1.794      2.129
REMARK INTER + INTRA:         -12.962
REMARK INTER:                 -12.026
REMARK INTRA:                  -0.936
REMARK UNBOUND:                -1.028
REMARK  Name = 
REMARK  7 active torsions:
REMARK  status: ('A' for Active; 'I' for Inactive)
REMARK    1  A    between atoms: C_2  and  C_20
REMARK    2  A    between atoms: N_3  and  C_4
REMARK    3  A    between atoms: C_4  and  C_5
REMARK    4  A    between atoms: C_9  and  C_10
REMARK    5  A    between atoms: C_10  and  N_11
REMARK    6  A    between atoms: N_11  and  C_12
REMARK    7  A    between atoms: C_12  and  C_13
REMARK                            x       y       z     vdW  Elec       q    Type
REMARK                         _______ _______ _______ _____ _____    ______ ____
ROOT
ATOM      1  C   UNL     1      47.051   4.019  14.760  0.00  0.00    +0.000 C 
ENDROOT
BRANCH   1   2
ATOM      2  C   UNL     1      46.560   4.779  13.557  0.00  0.00    +0.000 A 
ATOM      3  C   UNL     1      47.120   6.018  13.220  0.00  0.00    +0.000 A 
ATOM      4  C   UNL     1      46.749   6.663  12.038  0.00  0.00    +0.000 A 
ATOM      5  C   UNL     1      45.833   6.067  11.170  0.00  0.00    +0.000 A 
ATOM      6  C   UNL     1      45.270   4.822  11.481  0.00  0.00    +0.000 A 
ATOM      7  C   UNL     1      45.602   4.214  12.704  0.00  0.00    +0.000 A 
BRANCH   6   8
ATOM      8  C   UNL     1      44.397   4.091  10.483  0.00  0.00    +0.000 C 
BRANCH   8   9
ATOM      9  N   UNL     1      44.770   2.686  10.392  0.00  0.00    +0.000 NA
ATOM     10  H   UNL     1      44.293   2.176  11.135  0.00  0.00    +0.000 HD
BRANCH   9  11
ATOM     11  C   UNL     1      44.416   2.093   9.104  0.00  0.00    +0.000 C 
BRANCH  11  12
ATOM     12  C   UNL     1      45.605   2.139   8.179  0.00  0.00    +0.000 A 
ATOM     13  C   UNL     1      46.003   3.321   7.545  0.00  0.00    +0.000 A 
ATOM     14  C   UNL     1      47.168   3.339   6.782  0.00  0.00    +0.000 A 
ATOM     15  C   UNL     1      47.889   2.164   6.660  0.00  0.00    +0.000 A 
ATOM     16  N   UNL     1      47.518   0.993   7.221  0.00  0.00    +0.000 NA
ATOM     17  C   UNL     1      46.387   1.008   7.963  0.00  0.00    +0.000 A 
ENDBRANCH  11  12
ENDBRANCH   9  11
ENDBRANCH   8   9
ENDBRANCH   6   8
ENDBRANCH   1   2
BRANCH   1  20
ATOM     18  O   UNL     1      46.712   3.317  17.393  0.00  0.00    +0.000 OA
ATOM     19  C   UNL     1      47.260   4.389  17.148  0.00  0.00    +0.000 C 
ATOM     20  N   UNL     1      47.427   4.854  15.865  0.00  0.00    +0.000 N 
ATOM     21  H   UNL     1      48.074   5.616  15.684  0.00  0.00    +0.000 HD
BRANCH  19  22
ATOM     22  C   UNL     1      47.734   5.261  18.223  0.00  0.00    +0.000 A 
ATOM     23  C   UNL     1      46.839   5.810  19.131  0.00  0.00    +0.000 A 
ATOM     24  S   UNL     1      47.592   6.783  20.315  0.00  0.00    +0.000 S 
ATOM     25  C   UNL     1      49.134   6.470  19.673  0.00  0.00    +0.000 A 
ATOM     26  N   UNL     1      50.258   6.986  20.241  0.00  0.00    +0.000 NA
ATOM     27  C   UNL     1      51.360   6.634  19.666  0.00  0.00    +0.000 A 
ATOM     28  N   UNL     1      51.442   5.820  18.569  0.00  0.00    +0.000 N 
ATOM     29  C   UNL     1      50.330   5.313  17.926  0.00  0.00    +0.000 A 
ATOM     30  O   UNL     1      50.442   4.660  16.896  0.00  0.00    +0.000 OA
ATOM     31  C   UNL     1      49.074   5.661  18.555  0.00  0.00    +0.000 A 
ATOM     32  H   UNL     1      52.331   5.596  18.147  0.00  0.00    +0.000 HD
ENDBRANCH  19  22
ENDBRANCH   1  20
TORSDOF 7
ENDMDL
MODEL 4
REMARK VINA RESULT:    -7.398      4.122      5.115
REMARK INTER + INTRA:         -11.453
REMARK INTER:                 -10.375
REMARK INTRA:                  -1.078
REMARK UNBOUND:                -1.028
REMARK  Name = 
REMARK  7 active torsions:
REMARK  status: ('A' for Active; 'I' for Inactive)
REMARK    1  A    between atoms: C_2  and  C_20
REMARK    2  A    between atoms: N_3  and  C_4
REMARK    3  A    between atoms: C_4  and  C_5
REMARK    4  A    between atoms: C_9  and  C_10
REMARK    5  A    between atoms: C_10  and  N_11
REMARK    6  A    between atoms: N_11  and  C_12
REMARK    7  A    between atoms: C_12  and  C_13
REMARK                            x       y       z     vdW  Elec       q    Type
REMARK                         _______ _______ _______ _____ _____    ______ ____
ROOT
ATOM      1  C   UNL     1      46.857   7.575  11.738  0.00  0.00    +0.000 C 
ENDROOT
BRANCH   1   2
ATOM      2  C   UNL     1      46.413   6.155  11.965  0.00  0.00    +0.000 A 
ATOM      3  C   UNL     1      46.919   5.413  13.040  0.00  0.00    +0.000 A 
ATOM      4  C   UNL     1      46.414   4.141  13.320  0.00  0.00    +0.000 A 
ATOM      5  C   UNL     1      45.384   3.608  12.545  0.00  0.00    +0.000 A 
ATOM      6  C   UNL     1      44.853   4.337  11.473  0.00  0.00    +0.000 A 
ATOM      7  C   UNL     1      45.414   5.588  11.161  0.00  0.00    +0.000 A 
BRANCH   6   8
ATOM      8  C   UNL     1      43.637   3.842  10.720  0.00  0.00    +0.000 C 
BRANCH   8   9
ATOM      9  N   UNL     1      44.008   3.326   9.410  0.00  0.00    +0.000 NA
ATOM     10  H   UNL     1      44.378   4.096   8.852  0.00  0.00    +0.000 HD
BRANCH   9  11
ATOM     11  C   UNL     1      45.012   2.267   9.488  0.00  0.00    +0.000 C 
BRANCH  11  12
ATOM     12  C   UNL     1      45.852   2.269   8.237  0.00  0.00    +0.000 A 
ATOM     13  C   UNL     1      46.013   3.420   7.456  0.00  0.00    +0.000 A 
ATOM     14  C   UNL     1      46.880   3.402   6.367  0.00  0.00    +0.000 A 
ATOM     15  C   UNL     1      47.546   2.223   6.080  0.00  0.00    +0.000 A 
ATOM     16  N   UNL     1      47.388   1.080   6.781  0.00  0.00    +0.000 NA
ATOM     17  C   UNL     1      46.545   1.130   7.838  0.00  0.00    +0.000 A 
ENDBRANCH  11  12
ENDBRANCH   9  11
ENDBRANCH   8   9
ENDBRANCH   6   8
ENDBRANCH   1   2
BRANCH   1  20
ATOM     18  O   UNL     1      48.098  10.022  11.860  0.00  0.00    +0.000 OA
ATOM     19  C   UNL     1      48.804   9.017  11.863  0.00  0.00    +0.000 C 
ATOM     20  N   UNL     1      48.282   7.749  11.750  0.00  0.00    +0.000 N 
ATOM     21  H   UNL     1      48.856   6.944  11.982  0.00  0.00    +0.000 HD
BRANCH  19  22
ATOM     22  C   UNL     1      50.262   9.115  11.944  0.00  0.00    +0.000 A 
ATOM     23  C   UNL     1      50.979   9.789  10.966  0.00  0.00    +0.000 A 
ATOM     24  S   UNL     1      52.661   9.804  11.253  0.00  0.00    +0.000 S 
ATOM     25  C   UNL     1      52.478   8.943  12.707  0.00  0.00    +0.000 A 
ATOM     26  N   UNL     1      53.548   8.637  13.491  0.00  0.00    +0.000 NA
ATOM     27  C   UNL     1      53.252   8.012  14.582  0.00  0.00    +0.000 A 
ATOM     28  N   UNL     1      51.986   7.657  14.958  0.00  0.00    +0.000 N 
ATOM     29  C   UNL     1      50.875   7.899  14.176  0.00  0.00    +0.000 A 
ATOM     30  O   UNL     1      49.770   7.488  14.508  0.00  0.00    +0.000 OA
ATOM     31  C   UNL     1      51.158   8.623  12.956  0.00  0.00    +0.000 A 
ATOM     32  H   UNL     1      51.816   7.148  15.814  0.00  0.00    +0.000 HD
ENDBRANCH  19  22
ENDBRANCH   1  20
TORSDOF 7
ENDMDL
MODEL 5
REMARK VINA RESULT:    -7.318      3.260      9.227
REMARK INTER + INTRA:         -11.341
REMARK INTER:                  -9.923
REMARK INTRA:                  -1.417
REMARK UNBOUND:                -1.028
REMARK  Name = 
REMARK  7 active torsions:
REMARK  status: ('A' for Active; 'I' for Inactive)
REMARK    1  A    between atoms: C_2  and  C_20
REMARK    2  A    between atoms: N_3  and  C_4
REMARK    3  A    between atoms: C_4  and  C_5
REMARK    4  A    between atoms: C_9  and  C_10
REMARK    5  A    between atoms: C_10  and  N_11
REMARK    6  A    between atoms: N_11  and  C_12
REMARK    7  A    between atoms: C_12  and  C_13
REMARK                            x       y       z     vdW  Elec       q    Type
REMARK                         _______ _______ _______ _____ _____    ______ ____
ROOT
ATOM      1  C   UNL     1      48.793   6.560  15.495  0.00  0.00    +0.000 C 
ENDROOT
BRANCH   1   2
ATOM      2  C   UNL     1      48.722   5.722  16.744  0.00  0.00    +0.000 A 
ATOM      3  C   UNL     1      47.991   4.527  16.760  0.00  0.00    +0.000 A 
ATOM      4  C   UNL     1      48.028   3.692  17.878  0.00  0.00    +0.000 A 
ATOM      5  C   UNL     1      48.812   4.029  18.982  0.00  0.00    +0.000 A 
ATOM      6  C   UNL     1      49.562   5.213  18.982  0.00  0.00    +0.000 A 
ATOM      7  C   UNL     1      49.466   6.077  17.878  0.00  0.00    +0.000 A 
BRANCH   6   8
ATOM      8  C   UNL     1      50.535   5.519  20.101  0.00  0.00    +0.000 C 
BRANCH   8   9
ATOM      9  N   UNL     1      51.513   4.450  20.250  0.00  0.00    +0.000 NA
ATOM     10  H   UNL     1      51.018   3.558  20.264  0.00  0.00    +0.000 HD
BRANCH   9  11
ATOM     11  C   UNL     1      52.495   4.433  19.167  0.00  0.00    +0.000 C 
BRANCH  11  12
ATOM     12  C   UNL     1      52.723   3.016  18.708  0.00  0.00    +0.000 A 
ATOM     13  C   UNL     1      51.869   2.390  17.793  0.00  0.00    +0.000 A 
ATOM     14  C   UNL     1      52.177   1.117  17.319  0.00  0.00    +0.000 A 
ATOM     15  C   UNL     1      53.322   0.501  17.793  0.00  0.00    +0.000 A 
ATOM     16  N   UNL     1      54.149   1.053  18.706  0.00  0.00    +0.000 NA
ATOM     17  C   UNL     1      53.829   2.293  19.142  0.00  0.00    +0.000 A 
ENDBRANCH  11  12
ENDBRANCH   9  11
ENDBRANCH   8   9
ENDBRANCH   6   8
ENDBRANCH   1   2
BRANCH   1  20
ATOM     18  O   UNL     1      48.684   5.903  12.831  0.00  0.00    +0.000 OA
ATOM     19  C   UNL     1      47.629   6.164  13.403  0.00  0.00    +0.000 C 
ATOM     20  N   UNL     1      47.583   6.556  14.721  0.00  0.00    +0.000 N 
ATOM     21  H   UNL     1      46.700   6.542  15.222  0.00  0.00    +0.000 HD
BRANCH  19  22
ATOM     22  C   UNL     1      46.350   6.112  12.696  0.00  0.00    +0.000 A 
ATOM     23  C   UNL     1      45.816   7.256  12.120  0.00  0.00    +0.000 A 
ATOM     24  S   UNL     1      44.328   6.982  11.329  0.00  0.00    +0.000 S 
ATOM     25  C   UNL     1      44.371   5.324  11.700  0.00  0.00    +0.000 A 
ATOM     26  N   UNL     1      43.390   4.478  11.285  0.00  0.00    +0.000 NA
ATOM     27  C   UNL     1      43.575   3.241  11.611  0.00  0.00    +0.000 A 
ATOM     28  N   UNL     1      44.647   2.774  12.322  0.00  0.00    +0.000 N 
ATOM     29  C   UNL     1      45.642   3.598  12.808  0.00  0.00    +0.000 A 
ATOM     30  O   UNL     1      46.538   3.153  13.514  0.00  0.00    +0.000 OA
ATOM     31  C   UNL     1      45.487   4.989  12.442  0.00  0.00    +0.000 A 
ATOM     32  H   UNL     1      44.728   1.798  12.568  0.00  0.00    +0.000 HD
ENDBRANCH  19  22
ENDBRANCH   1  20
TORSDOF 7
ENDMDL
MODEL 6
REMARK VINA RESULT:    -6.984      3.644      8.554
REMARK INTER + INTRA:         -10.870
REMARK INTER:                  -9.599
REMARK INTRA:                  -1.271
REMARK UNBOUND:                -1.028
REMARK  Name = 
REMARK  7 active torsions:
REMARK  status: ('A' for Active; 'I' for Inactive)
REMARK    1  A    between atoms: C_2  and  C_20
REMARK    2  A    between atoms: N_3  and  C_4
REMARK    3  A    between atoms: C_4  and  C_5
REMARK    4  A    between atoms: C_9  and  C_10
REMARK    5  A    between atoms: C_10  and  N_11
REMARK    6  A    between atoms: N_11  and  C_12
REMARK    7  A    between atoms: C_12  and  C_13
REMARK                            x       y       z     vdW  Elec       q    Type
REMARK                         _______ _______ _______ _____ _____    ______ ____
ROOT
ATOM      1  C   UNL     1      47.256   7.985  11.864  0.00  0.00    +0.000 C 
ENDROOT
BRANCH   1   2
ATOM      2  C   UNL     1      48.456   8.009  12.772  0.00  0.00    +0.000 A 
ATOM      3  C   UNL     1      49.744   8.179  12.247  0.00  0.00    +0.000 A 
ATOM      4  C   UNL     1      50.840   8.324  13.099  0.00  0.00    +0.000 A 
ATOM      5  C   UNL     1      50.660   8.325  14.483  0.00  0.00    +0.000 A 
ATOM      6  C   UNL     1      49.379   8.170  15.030  0.00  0.00    +0.000 A 
ATOM      7  C   UNL     1      48.293   7.960  14.164  0.00  0.00    +0.000 A 
BRANCH   6   8
ATOM      8  C   UNL     1      49.144   8.322  16.518  0.00  0.00    +0.000 C 
BRANCH   8   9
ATOM      9  N   UNL     1      48.275   7.267  17.020  0.00  0.00    +0.000 NA
ATOM     10  H   UNL     1      47.940   6.720  16.227  0.00  0.00    +0.000 HD
BRANCH   9  11
ATOM     11  C   UNL     1      48.956   6.378  17.959  0.00  0.00    +0.000 C 
BRANCH  11  12
ATOM     12  C   UNL     1      48.914   4.964  17.443  0.00  0.00    +0.000 A 
ATOM     13  C   UNL     1      49.876   4.015  17.808  0.00  0.00    +0.000 A 
ATOM     14  C   UNL     1      49.739   2.694  17.389  0.00  0.00    +0.000 A 
ATOM     15  C   UNL     1      48.651   2.367  16.599  0.00  0.00    +0.000 A 
ATOM     16  N   UNL     1      47.723   3.259  16.191  0.00  0.00    +0.000 NA
ATOM     17  C   UNL     1      47.878   4.533  16.620  0.00  0.00    +0.000 A 
ENDBRANCH  11  12
ENDBRANCH   9  11
ENDBRANCH   8   9
ENDBRANCH   6   8
ENDBRANCH   1   2
BRANCH   1  20
ATOM     18  O   UNL     1      44.550   7.567  11.660  0.00  0.00    +0.000 OA
ATOM     19  C   UNL     1      45.290   6.591  11.583  0.00  0.00    +0.000 C 
ATOM     20  N   UNL     1      46.655   6.688  11.727  0.00  0.00    +0.000 N 
ATOM     21  H   UNL     1      47.250   5.918  11.436  0.00  0.00    +0.000 HD
BRANCH  19  22
ATOM     22  C   UNL     1      44.753   5.246  11.373  0.00  0.00    +0.000 A 
ATOM     23  C   UNL     1      43.935   4.657  12.327  0.00  0.00    +0.000 A 
ATOM     24  S   UNL     1      43.401   3.097  11.886  0.00  0.00    +0.000 S 
ATOM     25  C   UNL     1      44.215   3.177  10.396  0.00  0.00    +0.000 A 
ATOM     26  N   UNL     1      44.150   2.159   9.496  0.00  0.00    +0.000 NA
ATOM     27  C   UNL     1      44.790   2.375   8.394  0.00  0.00    +0.000 A 
ATOM     28  N   UNL     1      45.495   3.513   8.113  0.00  0.00    +0.000 N 
ATOM     29  C   UNL     1      45.632   4.552   9.011  0.00  0.00    +0.000 A 
ATOM     30  O   UNL     1      46.344   5.515   8.755  0.00  0.00    +0.000 OA
ATOM     31  C   UNL     1      44.909   4.362  10.249  0.00  0.00    +0.000 A 
ATOM     32  H   UNL     1      45.995   3.618   7.242  0.00  0.00    +0.000 HD
ENDBRANCH  19  22
ENDBRANCH   1  20
TORSDOF 7
ENDMDL
MODEL 7
REMARK VINA RESULT:    -6.907      3.564      8.353
REMARK INTER + INTRA:         -10.762
REMARK INTER:                  -9.209
REMARK INTRA:                  -1.553
REMARK UNBOUND:                -1.028
REMARK  Name = 
REMARK  7 active torsions:
REMARK  status: ('A' for Active; 'I' for Inactive)
REMARK    1  A    between atoms: C_2  and  C_20
REMARK    2  A    between atoms: N_3  and  C_4
REMARK    3  A    between atoms: C_4  and  C_5
REMARK    4  A    between atoms: C_9  and  C_10
REMARK    5  A    between atoms: C_10  and  N_11
REMARK    6  A    between atoms: N_11  and  C_12
REMARK    7  A    between atoms: C_12  and  C_13
REMARK                            x       y       z     vdW  Elec       q    Type
REMARK                         _______ _______ _______ _____ _____    ______ ____
ROOT
ATOM      1  C   UNL     1      48.714   6.804  14.158  0.00  0.00    +0.000 C 
ENDROOT
BRANCH   1   2
ATOM      2  C   UNL     1      48.787   7.889  15.199  0.00  0.00    +0.000 A 
ATOM      3  C   UNL     1      48.978   9.225  14.824  0.00  0.00    +0.000 A 
ATOM      4  C   UNL     1      48.923  10.242  15.779  0.00  0.00    +0.000 A 
ATOM      5  C   UNL     1      48.656   9.937  17.115  0.00  0.00    +0.000 A 
ATOM      6  C   UNL     1      48.449   8.609  17.510  0.00  0.00    +0.000 A 
ATOM      7  C   UNL     1      48.571   7.589  16.551  0.00  0.00    +0.000 A 
BRANCH   6   8
ATOM      8  C   UNL     1      48.007   8.276  18.920  0.00  0.00    +0.000 C 
BRANCH   8   9
ATOM      9  N   UNL     1      47.200   7.064  18.941  0.00  0.00    +0.000 NA
ATOM     10  H   UNL     1      47.012   6.784  17.979  0.00  0.00    +0.000 HD
BRANCH   9  11
ATOM     11  C   UNL     1      47.859   5.962  19.639  0.00  0.00    +0.000 C 
BRANCH  11  12
ATOM     12  C   UNL     1      48.081   4.817  18.686  0.00  0.00    +0.000 A 
ATOM     13  C   UNL     1      47.144   4.482  17.702  0.00  0.00    +0.000 A 
ATOM     14  C   UNL     1      47.437   3.482  16.778  0.00  0.00    +0.000 A 
ATOM     15  C   UNL     1      48.655   2.833  16.880  0.00  0.00    +0.000 A 
ATOM     16  N   UNL     1      49.569   3.096  17.839  0.00  0.00    +0.000 NA
ATOM     17  C   UNL     1      49.260   4.078  18.717  0.00  0.00    +0.000 A 
ENDBRANCH  11  12
ENDBRANCH   9  11
ENDBRANCH   8   9
ENDBRANCH   6   8
ENDBRANCH   1   2
BRANCH   1  20
ATOM     18  O   UNL     1      47.789   7.115  11.591  0.00  0.00    +0.000 OA
ATOM     19  C   UNL     1      47.027   6.629  12.423  0.00  0.00    +0.000 C 
ATOM     20  N   UNL     1      47.377   6.482  13.745  0.00  0.00    +0.000 N 
ATOM     21  H   UNL     1      46.826   5.880  14.349  0.00  0.00    +0.000 HD
BRANCH  19  22
ATOM     22  C   UNL     1      45.673   6.212  12.058  0.00  0.00    +0.000 A 
ATOM     23  C   UNL     1      44.779   7.121  11.512  0.00  0.00    +0.000 A 
ATOM     24  S   UNL     1      43.261   6.435  11.141  0.00  0.00    +0.000 S 
ATOM     25  C   UNL     1      43.764   4.898  11.665  0.00  0.00    +0.000 A 
ATOM     26  N   UNL     1      42.939   3.819  11.594  0.00  0.00    +0.000 NA
ATOM     27  C   UNL     1      43.470   2.711  11.995  0.00  0.00    +0.000 A 
ATOM     28  N   UNL     1      44.747   2.585  12.469  0.00  0.00    +0.000 N 
ATOM     29  C   UNL     1      45.605   3.658  12.607  0.00  0.00    +0.000 A 
ATOM     30  O   UNL     1      46.711   3.517  13.117  0.00  0.00    +0.000 OA
ATOM     31  C   UNL     1      45.059   4.914  12.144  0.00  0.00    +0.000 A 
ATOM     32  H   UNL     1      45.102   1.696  12.790  0.00  0.00    +0.000 HD
ENDBRANCH  19  22
ENDBRANCH   1  20
TORSDOF 7
ENDMDL
MODEL 8
REMARK VINA RESULT:    -6.795      2.714      3.625
REMARK INTER + INTRA:         -10.604
REMARK INTER:                  -8.996
REMARK INTRA:                  -1.608
REMARK UNBOUND:                -1.028
REMARK  Name = 
REMARK  7 active torsions:
REMARK  status: ('A' for Active; 'I' for Inactive)
REMARK    1  A    between atoms: C_2  and  C_20
REMARK    2  A    between atoms: N_3  and  C_4
REMARK    3  A    between atoms: C_4  and  C_5
REMARK    4  A    between atoms: C_9  and  C_10
REMARK    5  A    between atoms: C_10  and  N_11
REMARK    6  A    between atoms: N_11  and  C_12
REMARK    7  A    between atoms: C_12  and  C_13
REMARK                            x       y       z     vdW  Elec       q    Type
REMARK                         _______ _______ _______ _____ _____    ______ ____
ROOT
ATOM      1  C   UNL     1      46.855   7.808  12.710  0.00  0.00    +0.000 C 
ENDROOT
BRANCH   1   2
ATOM      2  C   UNL     1      45.443   7.460  12.322  0.00  0.00    +0.000 A 
ATOM      3  C   UNL     1      44.732   8.264  11.421  0.00  0.00    +0.000 A 
ATOM      4  C   UNL     1      43.470   7.873  10.970  0.00  0.00    +0.000 A 
ATOM      5  C   UNL     1      42.915   6.665  11.395  0.00  0.00    +0.000 A 
ATOM      6  C   UNL     1      43.613   5.839  12.285  0.00  0.00    +0.000 A 
ATOM      7  C   UNL     1      44.853   6.274  12.783  0.00  0.00    +0.000 A 
BRANCH   6   8
ATOM      8  C   UNL     1      43.097   4.459  12.636  0.00  0.00    +0.000 C 
BRANCH   8   9
ATOM      9  N   UNL     1      42.978   3.628  11.446  0.00  0.00    +0.000 NA
ATOM     10  H   UNL     1      42.895   4.238  10.633  0.00  0.00    +0.000 HD
BRANCH   9  11
ATOM     11  C   UNL     1      44.127   2.743  11.263  0.00  0.00    +0.000 C 
BRANCH  11  12
ATOM     12  C   UNL     1      44.778   3.023   9.933  0.00  0.00    +0.000 A 
ATOM     13  C   UNL     1      45.070   4.326   9.512  0.00  0.00    +0.000 A 
ATOM     14  C   UNL     1      45.765   4.529   8.323  0.00  0.00    +0.000 A 
ATOM     15  C   UNL     1      46.129   3.421   7.579  0.00  0.00    +0.000 A 
ATOM     16  N   UNL     1      45.831   2.151   7.927  0.00  0.00    +0.000 NA
ATOM     17  C   UNL     1      45.162   1.983   9.092  0.00  0.00    +0.000 A 
ENDBRANCH  11  12
ENDBRANCH   9  11
ENDBRANCH   8   9
ENDBRANCH   6   8
ENDBRANCH   1   2
BRANCH   1  20
ATOM     18  O   UNL     1      48.587   5.798  13.419  0.00  0.00    +0.000 OA
ATOM     19  C   UNL     1      48.102   6.484  14.315  0.00  0.00    +0.000 C 
ATOM     20  N   UNL     1      47.184   7.478  14.068  0.00  0.00    +0.000 N 
ATOM     21  H   UNL     1      46.980   8.166  14.786  0.00  0.00    +0.000 HD
BRANCH  19  22
ATOM     22  C   UNL     1      48.447   6.252  15.718  0.00  0.00    +0.000 A 
ATOM     23  C   UNL     1      48.164   5.034  16.321  0.00  0.00    +0.000 A 
ATOM     24  S   UNL     1      48.659   4.959  17.953  0.00  0.00    +0.000 S 
ATOM     25  C   UNL     1      49.297   6.533  17.892  0.00  0.00    +0.000 A 
ATOM     26  N   UNL     1      49.909   7.093  18.969  0.00  0.00    +0.000 NA
ATOM     27  C   UNL     1      50.375   8.281  18.764  0.00  0.00    +0.000 A 
ATOM     28  N   UNL     1      50.278   8.963  17.583  0.00  0.00    +0.000 N 
ATOM     29  C   UNL     1      49.622   8.459  16.477  0.00  0.00    +0.000 A 
ATOM     30  O   UNL     1      49.481   9.137  15.466  0.00  0.00    +0.000 OA
ATOM     31  C   UNL     1      49.108   7.119  16.655  0.00  0.00    +0.000 A 
ATOM     32  H   UNL     1      50.642   9.900  17.486  0.00  0.00    +0.000 HD
ENDBRANCH  19  22
ENDBRANCH   1  20
TORSDOF 7
ENDMDL
MODEL 9
REMARK VINA RESULT:    -6.784      3.995      4.823
REMARK INTER + INTRA:         -10.588
REMARK INTER:                  -9.847
REMARK INTRA:                  -0.741
REMARK UNBOUND:                -1.028
REMARK  Name = 
REMARK  7 active torsions:
REMARK  status: ('A' for Active; 'I' for Inactive)
REMARK    1  A    between atoms: C_2  and  C_20
REMARK    2  A    between atoms: N_3  and  C_4
REMARK    3  A    between atoms: C_4  and  C_5
REMARK    4  A    between atoms: C_9  and  C_10
REMARK    5  A    between atoms: C_10  and  N_11
REMARK    6  A    between atoms: N_11  and  C_12
REMARK    7  A    between atoms: C_12  and  C_13
REMARK                            x       y       z     vdW  Elec       q    Type
REMARK                         _______ _______ _______ _____ _____    ______ ____
ROOT
ATOM      1  C   UNL     1      46.341   7.557  12.980  0.00  0.00    +0.000 C 
ENDROOT
BRANCH   1   2
ATOM      2  C   UNL     1      46.050   6.115  12.660  0.00  0.00    +0.000 A 
ATOM      3  C   UNL     1      46.501   5.093  13.505  0.00  0.00    +0.000 A 
ATOM      4  C   UNL     1      46.127   3.768  13.273  0.00  0.00    +0.000 A 
ATOM      5  C   UNL     1      45.280   3.453  12.210  0.00  0.00    +0.000 A 
ATOM      6  C   UNL     1      44.806   4.461  11.359  0.00  0.00    +0.000 A 
ATOM      7  C   UNL     1      45.242   5.781  11.564  0.00  0.00    +0.000 A 
BRANCH   6   8
ATOM      8  C   UNL     1      43.769   4.161  10.298  0.00  0.00    +0.000 C 
BRANCH   8   9
ATOM      9  N   UNL     1      44.399   3.882   9.015  0.00  0.00    +0.000 NA
ATOM     10  H   UNL     1      45.215   4.486   8.917  0.00  0.00    +0.000 HD
BRANCH   9  11
ATOM     11  C   UNL     1      44.821   2.488   8.889  0.00  0.00    +0.000 C 
BRANCH  11  12
ATOM     12  C   UNL     1      45.848   2.364   7.794  0.00  0.00    +0.000 A 
ATOM     13  C   UNL     1      45.991   3.340   6.801  0.00  0.00    +0.000 A 
ATOM     14  C   UNL     1      47.022   3.234   5.870  0.00  0.00    +0.000 A 
ATOM     15  C   UNL     1      47.868   2.142   5.951  0.00  0.00    +0.000 A 
ATOM     16  N   UNL     1      47.740   1.158   6.867  0.00  0.00    +0.000 NA
ATOM     17  C   UNL     1      46.734   1.291   7.762  0.00  0.00    +0.000 A 
ENDBRANCH  11  12
ENDBRANCH   9  11
ENDBRANCH   8   9
ENDBRANCH   6   8
ENDBRANCH   1   2
BRANCH   1  20
ATOM     18  O   UNL     1      49.010   7.708  12.351  0.00  0.00    +0.000 OA
ATOM     19  C   UNL     1      48.686   7.853  13.527  0.00  0.00    +0.000 C 
ATOM     20  N   UNL     1      47.382   7.741  13.951  0.00  0.00    +0.000 N 
ATOM     21  H   UNL     1      47.118   8.085  14.869  0.00  0.00    +0.000 HD
BRANCH  19  22
ATOM     22  C   UNL     1      49.686   8.113  14.562  0.00  0.00    +0.000 A 
ATOM     23  C   UNL     1      50.061   7.112  15.447  0.00  0.00    +0.000 A 
ATOM     24  S   UNL     1      51.250   7.612  16.566  0.00  0.00    +0.000 S 
ATOM     25  C   UNL     1      51.324   9.165  15.879  0.00  0.00    +0.000 A 
ATOM     26  N   UNL     1      52.182  10.110  16.352  0.00  0.00    +0.000 NA
ATOM     27  C   UNL     1      52.152  11.230  15.709  0.00  0.00    +0.000 A 
ATOM     28  N   UNL     1      51.338  11.497  14.643  0.00  0.00    +0.000 N 
ATOM     29  C   UNL     1      50.416  10.590  14.159  0.00  0.00    +0.000 A 
ATOM     30  O   UNL     1      49.644  10.898  13.258  0.00  0.00    +0.000 OA
ATOM     31  C   UNL     1      50.435   9.311  14.833  0.00  0.00    +0.000 A 
ATOM     32  H   UNL     1      51.342  12.400  14.192  0.00  0.00    +0.000 HD
ENDBRANCH  19  22
ENDBRANCH   1  20
TORSDOF 7
ENDMDL
