MODEL 1
REMARK VINA RESULT:    -7.398      0.000      0.000
REMARK INTER + INTRA:          -9.994
REMARK INTER:                  -9.344
REMARK INTRA:                  -0.650
REMARK UNBOUND:                -0.650
REMARK  Name = 
REMARK  5 active torsions:
REMARK  status: ('A' for Active; 'I' for Inactive)
REMARK    1  A    between atoms: N_1  and  C_2
REMARK    2  A    between atoms: C_2  and  C_3
REMARK    3  A    between atoms: C_6  and  O_7
REMARK    4  A    between atoms: O_7  and  C_8
REMARK    5  A    between atoms: C_8  and  C_9
REMARK                            x       y       z     vdW  Elec       q    Type
REMARK                         _______ _______ _______ _____ _____    ______ ____
ROOT
ATOM      1  C   UNL     1      46.906   2.350   7.281  0.00  0.00    +0.000 A 
ATOM      2  C   UNL     1      46.407   3.659   7.320  0.00  0.00    +0.000 A 
ATOM      3  C   UNL     1      45.346   3.998   8.163  0.00  0.00    +0.000 A 
ATOM      4  C   UNL     1      44.760   3.031   8.982  0.00  0.00    +0.000 A 
ATOM      5  C   UNL     1      45.253   1.727   8.951  0.00  0.00    +0.000 A 
ATOM      6  C   UNL     1      46.312   1.383   8.101  0.00  0.00    +0.000 A 
ENDROOT
BRANCH   1   7
ATOM      7  C   UNL     1      48.051   2.003   6.364  0.00  0.00    +0.000 C 
BRANCH   7   8
ATOM      8  N   UNL     1      48.049   2.836   5.165  0.00  0.00    +0.000 NA
ATOM      9  H   UNL     1      48.977   3.230   5.030  0.00  0.00    +0.000 HD
ATOM     10  H   UNL     1      47.418   3.622   5.315  0.00  0.00    +0.000 HD
ENDBRANCH   7   8
ENDBRANCH   1   7
BRANCH   4  11
ATOM     11  O   UNL     1      43.740   3.260   9.872  0.00  0.00    +0.000 OA
BRANCH  11  12
ATOM     12  C   UNL     1      43.674   4.594  10.385  0.00  0.00    +0.000 C 
BRANCH  12  13
ATOM     13  C   UNL     1      43.345   4.584  11.891  0.00  0.00    +0.000 C 
ATOM     14  C   UNL     1      44.031   5.707  12.680  0.00  0.00    +0.000 C 
ATOM     15  C   UNL     1      45.537   5.481  12.783  0.00  0.00    +0.000 C 
ATOM     16  C   UNL     1      45.867   4.068  13.268  0.00  0.00    +0.000 C 
ATOM     17  N   UNL     1      45.183   3.031  12.492  0.00  0.00    +0.000 NA
ATOM     18  C   UNL     1      43.732   3.227  12.499  0.00  0.00    +0.000 C 
ATOM     19  H   UNL     1      45.405   2.116  12.885  0.00  0.00    +0.000 HD
ENDBRANCH  12  13
ENDBRANCH  11  12
ENDBRANCH   4  11
TORSDOF 5
ENDMDL
MODEL 2
REMARK VINA RESULT:    -5.799      2.706      5.938
REMARK INTER + INTRA:          -7.974
REMARK INTER:                  -7.373
REMARK INTRA:                  -0.601
REMARK UNBOUND:                -0.650
REMARK  Name = 
REMARK  5 active torsions:
REMARK  status: ('A' for Active; 'I' for Inactive)
REMARK    1  A    between atoms: N_1  and  C_2
REMARK    2  A    between atoms: C_2  and  C_3
REMARK    3  A    between atoms: C_6  and  O_7
REMARK    4  A    between atoms: O_7  and  C_8
REMARK    5  A    between atoms: C_8  and  C_9
REMARK                            x       y       z     vdW  Elec       q    Type
REMARK                         _______ _______ _______ _____ _____    ______ ____
ROOT
ATOM      1  C   UNL     1      48.008   6.766  13.116  0.00  0.00    +0.000 A 
ATOM      2  C   UNL     1      47.481   5.672  13.817  0.00  0.00    +0.000 A 
ATOM      3  C   UNL     1      46.385   4.963  13.321  0.00  0.00    +0.000 A 
ATOM      4  C   UNL     1      45.791   5.337  12.114  0.00  0.00    +0.000 A 
ATOM      5  C   UNL     1      46.311   6.422  11.409  0.00  0.00    +0.000 A 
ATOM      6  C   UNL     1      47.406   7.140  11.908  0.00  0.00    +0.000 A 
ENDROOT
BRANCH   1   7
ATOM      7  C   UNL     1      49.191   7.520  13.667  0.00  0.00    +0.000 C 
BRANCH   7   8
ATOM      8  N   UNL     1      49.871   6.761  14.713  0.00  0.00    +0.000 NA
ATOM      9  H   UNL     1      49.194   6.173  15.193  0.00  0.00    +0.000 HD
ATOM     10  H   UNL     1      50.234   7.414  15.406  0.00  0.00    +0.000 HD
ENDBRANCH   7   8
ENDBRANCH   1   7
BRANCH   4  11
ATOM     11  O   UNL     1      44.737   4.691  11.518  0.00  0.00    +0.000 OA
BRANCH  11  12
ATOM     12  C   UNL     1      45.019   3.365  11.060  0.00  0.00    +0.000 C 
BRANCH  12  13
ATOM     13  C   UNL     1      44.231   3.051   9.774  0.00  0.00    +0.000 C 
ATOM     14  C   UNL     1      44.796   1.868   8.977  0.00  0.00    +0.000 C 
ATOM     15  C   UNL     1      46.136   2.215   8.333  0.00  0.00    +0.000 C 
ATOM     16  C   UNL     1      46.069   3.533   7.557  0.00  0.00    +0.000 C 
ATOM     17  N   UNL     1      45.515   4.629   8.355  0.00  0.00    +0.000 NA
ATOM     18  C   UNL     1      44.186   4.295   8.874  0.00  0.00    +0.000 C 
ATOM     19  H   UNL     1      45.454   5.467   7.777  0.00  0.00    +0.000 HD
ENDBRANCH  12  13
ENDBRANCH  11  12
ENDBRANCH   4  11
TORSDOF 5
ENDMDL
MODEL 3
REMARK VINA RESULT:    -5.259      2.101      3.330
REMARK INTER + INTRA:          -7.292
REMARK INTER:                  -7.253
REMARK INTRA:                  -0.039
REMARK UNBOUND:                -0.650
REMARK  Name = 
REMARK  5 active torsions:
REMARK  status: ('A' for Active; 'I' for Inactive)
REMARK    1  A    between atoms: N_1  and  C_2
REMARK    2  A    between atoms: C_2  and  C_3
REMARK    3  A    between atoms: C_6  and  O_7
REMARK    4  A    between atoms: O_7  and  C_8
REMARK    5  A    between atoms: C_8  and  C_9
REMARK                            x       y       z     vdW  Elec       q    Type
REMARK                         _______ _______ _______ _____ _____    ______ ____
ROOT
ATOM      1  C   UNL     1      45.392   3.518   8.605  0.00  0.00    +0.000 A 
ATOM      2  C   UNL     1      44.868   2.552   9.474  0.00  0.00    +0.000 A 
ATOM      3  C   UNL     1      44.433   2.899  10.756  0.00  0.00    +0.000 A 
ATOM      4  C   UNL     1      44.520   4.221  11.195  0.00  0.00    +0.000 A 
ATOM      5  C   UNL     1      45.038   5.189  10.335  0.00  0.00    +0.000 A 
ATOM      6  C   UNL     1      45.481   4.843   9.052  0.00  0.00    +0.000 A 
ENDROOT
BRANCH   1   7
ATOM      7  C   UNL     1      45.856   3.125   7.226  0.00  0.00    +0.000 C 
BRANCH   7   8
ATOM      8  N   UNL     1      46.731   4.139   6.646  0.00  0.00    +0.000 NA
ATOM      9  H   UNL     1      47.551   3.686   6.248  0.00  0.00    +0.000 HD
ATOM     10  H   UNL     1      47.066   4.746   7.391  0.00  0.00    +0.000 HD
ENDBRANCH   7   8
ENDBRANCH   1   7
BRANCH   4  11
ATOM     11  O   UNL     1      44.091   4.679  12.416  0.00  0.00    +0.000 OA
BRANCH  11  12
ATOM     12  C   UNL     1      45.053   5.446  13.146  0.00  0.00    +0.000 C 
BRANCH  12  13
ATOM     13  C   UNL     1      46.473   4.885  12.936  0.00  0.00    +0.000 C 
ATOM     14  C   UNL     1      46.875   3.820  13.965  0.00  0.00    +0.000 C 
ATOM     15  C   UNL     1      47.082   4.428  15.349  0.00  0.00    +0.000 C 
ATOM     16  C   UNL     1      48.005   5.648  15.301  0.00  0.00    +0.000 C 
ATOM     17  N   UNL     1      47.587   6.631  14.300  0.00  0.00    +0.000 NA
ATOM     18  C   UNL     1      47.495   6.032  12.966  0.00  0.00    +0.000 C 
ATOM     19  H   UNL     1      48.260   7.399  14.282  0.00  0.00    +0.000 HD
ENDBRANCH  12  13
ENDBRANCH  11  12
ENDBRANCH   4  11
TORSDOF 5
ENDMDL
MODEL 4
REMARK VINA RESULT:    -5.232      4.065      5.728
REMARK INTER + INTRA:          -7.258
REMARK INTER:                  -6.501
REMARK INTRA:                  -0.756
REMARK UNBOUND:                -0.650
REMARK  Name = 
REMARK  5 active torsions:
REMARK  status: ('A' for Active; 'I' for Inactive)
REMARK    1  A    between atoms: N_1  and  C_2
REMARK    2  A    between atoms: C_2  and  C_3
REMARK    3  A    between atoms: C_6  and  O_7
REMARK    4  A    between atoms: O_7  and  C_8
REMARK    5  A    between atoms: C_8  and  C_9
REMARK                            x       y       z     vdW  Elec       q    Type
REMARK                         _______ _______ _______ _____ _____    ______ ____
ROOT
ATOM      1  C   UNL     1      48.815   7.511  12.567  0.00  0.00    +0.000 A 
ATOM      2  C   UNL     1      48.807   6.960  13.855  0.00  0.00    +0.000 A 
ATOM      3  C   UNL     1      47.789   6.093  14.259  0.00  0.00    +0.000 A 
ATOM      4  C   UNL     1      46.754   5.764  13.382  0.00  0.00    +0.000 A 
ATOM      5  C   UNL     1      46.755   6.307  12.098  0.00  0.00    +0.000 A 
ATOM      6  C   UNL     1      47.771   7.182  11.692  0.00  0.00    +0.000 A 
ENDROOT
BRANCH   1   7
ATOM      7  C   UNL     1      49.921   8.445  12.149  0.00  0.00    +0.000 C 
BRANCH   7   8
ATOM      8  N   UNL     1      51.236   7.861  12.392  0.00  0.00    +0.000 NA
ATOM      9  H   UNL     1      51.122   6.947  12.825  0.00  0.00    +0.000 HD
ATOM     10  H   UNL     1      51.733   8.443  13.064  0.00  0.00    +0.000 HD
ENDBRANCH   7   8
ENDBRANCH   1   7
BRANCH   4  11
ATOM     11  O   UNL     1      45.726   4.898  13.660  0.00  0.00    +0.000 OA
BRANCH  11  12
ATOM     12  C   UNL     1      45.552   3.841  12.712  0.00  0.00    +0.000 C 
BRANCH  12  13
ATOM     13  C   UNL     1      44.064   3.466  12.577  0.00  0.00    +0.000 C 
ATOM     14  C   UNL     1      43.578   3.376  11.125  0.00  0.00    +0.000 C 
ATOM     15  C   UNL     1      43.519   4.752  10.468  0.00  0.00    +0.000 C 
ATOM     16  C   UNL     1      42.759   5.762  11.331  0.00  0.00    +0.000 C 
ATOM     17  N   UNL     1      43.251   5.806  12.710  0.00  0.00    +0.000 NA
ATOM     18  C   UNL     1      43.200   4.484  13.339  0.00  0.00    +0.000 C 
ATOM     19  H   UNL     1      42.683   6.461  13.248  0.00  0.00    +0.000 HD
ENDBRANCH  12  13
ENDBRANCH  11  12
ENDBRANCH   4  11
TORSDOF 5
ENDMDL
MODEL 5
REMARK VINA RESULT:    -5.048      3.198      4.579
REMARK INTER + INTRA:          -7.026
REMARK INTER:                  -6.263
REMARK INTRA:                  -0.764
REMARK UNBOUND:                -0.650
REMARK  Name = 
REMARK  5 active torsions:
REMARK  status: ('A' for Active; 'I' for Inactive)
REMARK    1  A    between atoms: N_1  and  C_2
REMARK    2  A    between atoms: C_2  and  C_3
REMARK    3  A    between atoms: C_6  and  O_7
REMARK    4  A    between atoms: O_7  and  C_8
REMARK    5  A    between atoms: C_8  and  C_9
REMARK                            x       y       z     vdW  Elec       q    Type
REMARK                         _______ _______ _______ _____ _____    ______ ____
ROOT
ATOM      1  C   UNL     1      45.114   3.917   9.643  0.00  0.00    +0.000 A 
ATOM      2  C   UNL     1      44.900   3.311  10.889  0.00  0.00    +0.000 A 
ATOM      3  C   UNL     1      45.176   3.994  12.076  0.00  0.00    +0.000 A 
ATOM      4  C   UNL     1      45.677   5.296  12.040  0.00  0.00    +0.000 A 
ATOM      5  C   UNL     1      45.891   5.907  10.805  0.00  0.00    +0.000 A 
ATOM      6  C   UNL     1      45.622   5.222   9.612  0.00  0.00    +0.000 A 
ENDROOT
BRANCH   1   7
ATOM      7  C   UNL     1      44.812   3.165   8.373  0.00  0.00    +0.000 C 
BRANCH   7   8
ATOM      8  N   UNL     1      45.617   3.652   7.257  0.00  0.00    +0.000 NA
ATOM      9  H   UNL     1      46.454   4.102   7.619  0.00  0.00    +0.000 HD
ATOM     10  H   UNL     1      45.090   4.371   6.764  0.00  0.00    +0.000 HD
ENDBRANCH   7   8
ENDBRANCH   1   7
BRANCH   4  11
ATOM     11  O   UNL     1      45.948   6.070  13.141  0.00  0.00    +0.000 OA
BRANCH  11  12
ATOM     12  C   UNL     1      46.110   7.466  12.873  0.00  0.00    +0.000 C 
BRANCH  12  13
ATOM     13  C   UNL     1      47.292   8.043  13.677  0.00  0.00    +0.000 C 
ATOM     14  C   UNL     1      48.067   9.140  12.935  0.00  0.00    +0.000 C 
ATOM     15  C   UNL     1      48.857   8.571  11.760  0.00  0.00    +0.000 C 
ATOM     16  C   UNL     1      49.702   7.364  12.176  0.00  0.00    +0.000 C 
ATOM     17  N   UNL     1      48.923   6.349  12.888  0.00  0.00    +0.000 NA
ATOM     18  C   UNL     1      48.258   6.913  14.065  0.00  0.00    +0.000 C 
ATOM     19  H   UNL     1      49.543   5.592  13.177  0.00  0.00    +0.000 HD
ENDBRANCH  12  13
ENDBRANCH  11  12
ENDBRANCH   4  11
TORSDOF 5
ENDMDL
MODEL 6
REMARK VINA RESULT:    -5.043      4.436      8.297
REMARK INTER + INTRA:          -7.019
REMARK INTER:                  -6.558
REMARK INTRA:                  -0.461
REMARK UNBOUND:                -0.650
REMARK  Name = 
REMARK  5 active torsions:
REMARK  status: ('A' for Active; 'I' for Inactive)
REMARK    1  A    between atoms: N_1  and  C_2
REMARK    2  A    between atoms: C_2  and  C_3
REMARK    3  A    between atoms: C_6  and  O_7
REMARK    4  A    between atoms: O_7  and  C_8
REMARK    5  A    between atoms: C_8  and  C_9
REMARK                            x       y       z     vdW  Elec       q    Type
REMARK                         _______ _______ _______ _____ _____    ______ ____
ROOT
ATOM      1  C   UNL     1      48.624   4.459  18.511  0.00  0.00    +0.000 A 
ATOM      2  C   UNL     1      48.038   3.217  18.228  0.00  0.00    +0.000 A 
ATOM      3  C   UNL     1      47.468   2.960  16.978  0.00  0.00    +0.000 A 
ATOM      4  C   UNL     1      47.470   3.943  15.988  0.00  0.00    +0.000 A 
ATOM      5  C   UNL     1      48.053   5.180  16.260  0.00  0.00    +0.000 A 
ATOM      6  C   UNL     1      48.618   5.444  17.514  0.00  0.00    +0.000 A 
ENDROOT
BRANCH   1   7
ATOM      7  C   UNL     1      49.233   4.718  19.864  0.00  0.00    +0.000 C 
BRANCH   7   8
ATOM      8  N   UNL     1      48.562   3.951  20.910  0.00  0.00    +0.000 NA
ATOM      9  H   UNL     1      48.789   2.965  20.800  0.00  0.00    +0.000 HD
ATOM     10  H   UNL     1      47.555   4.034  20.780  0.00  0.00    +0.000 HD
ENDBRANCH   7   8
ENDBRANCH   1   7
BRANCH   4  11
ATOM     11  O   UNL     1      46.973   3.788  14.717  0.00  0.00    +0.000 OA
BRANCH  11  12
ATOM     12  C   UNL     1      46.424   4.972  14.133  0.00  0.00    +0.000 C 
BRANCH  12  13
ATOM     13  C   UNL     1      46.104   4.749  12.642  0.00  0.00    +0.000 C 
ATOM     14  C   UNL     1      45.219   5.842  12.029  0.00  0.00    +0.000 C 
ATOM     15  C   UNL     1      43.794   5.779  12.572  0.00  0.00    +0.000 C 
ATOM     16  C   UNL     1      43.214   4.366  12.482  0.00  0.00    +0.000 C 
ATOM     17  N   UNL     1      44.096   3.356  13.070  0.00  0.00    +0.000 NA
ATOM     18  C   UNL     1      45.426   3.382  12.455  0.00  0.00    +0.000 C 
ATOM     19  H   UNL     1      43.681   2.432  12.944  0.00  0.00    +0.000 HD
ENDBRANCH  12  13
ENDBRANCH  11  12
ENDBRANCH   4  11
TORSDOF 5
ENDMDL
MODEL 7
REMARK VINA RESULT:    -4.982      3.483      5.900
REMARK INTER + INTRA:          -6.942
REMARK INTER:                  -6.177
REMARK INTRA:                  -0.765
REMARK UNBOUND:                -0.650
REMARK  Name = 
REMARK  5 active torsions:
REMARK  status: ('A' for Active; 'I' for Inactive)
REMARK    1  A    between atoms: N_1  and  C_2
REMARK    2  A    between atoms: C_2  and  C_3
REMARK    3  A    between atoms: C_6  and  O_7
REMARK    4  A    between atoms: O_7  and  C_8
REMARK    5  A    between atoms: C_8  and  C_9
REMARK                            x       y       z     vdW  Elec       q    Type
REMARK                         _______ _______ _______ _____ _____    ______ ____
ROOT
ATOM      1  C   UNL     1      48.977   7.118  13.719  0.00  0.00    +0.000 A 
ATOM      2  C   UNL     1      49.007   7.719  12.453  0.00  0.00    +0.000 A 
ATOM      3  C   UNL     1      47.985   7.494  11.527  0.00  0.00    +0.000 A 
ATOM      4  C   UNL     1      46.915   6.658  11.849  0.00  0.00    +0.000 A 
ATOM      5  C   UNL     1      46.876   6.059  13.107  0.00  0.00    +0.000 A 
ATOM      6  C   UNL     1      47.903   6.277  14.035  0.00  0.00    +0.000 A 
ENDROOT
BRANCH   1   7
ATOM      7  C   UNL     1      50.089   7.372  14.704  0.00  0.00    +0.000 C 
BRANCH   7   8
ATOM      8  N   UNL     1      50.004   6.473  15.851  0.00  0.00    +0.000 NA
ATOM      9  H   UNL     1      50.081   7.015  16.708  0.00  0.00    +0.000 HD
ATOM     10  H   UNL     1      50.805   5.843  15.831  0.00  0.00    +0.000 HD
ENDBRANCH   7   8
ENDBRANCH   1   7
BRANCH   4  11
ATOM     11  O   UNL     1      45.842   6.396  11.032  0.00  0.00    +0.000 OA
BRANCH  11  12
ATOM     12  C   UNL     1      44.568   6.751  11.576  0.00  0.00    +0.000 C 
BRANCH  12  13
ATOM     13  C   UNL     1      43.470   5.799  11.062  0.00  0.00    +0.000 C 
ATOM     14  C   UNL     1      42.572   5.236  12.170  0.00  0.00    +0.000 C 
ATOM     15  C   UNL     1      43.326   4.245  13.053  0.00  0.00    +0.000 C 
ATOM     16  C   UNL     1      44.054   3.185  12.223  0.00  0.00    +0.000 C 
ATOM     17  N   UNL     1      44.891   3.769  11.172  0.00  0.00    +0.000 NA
ATOM     18  C   UNL     1      44.111   4.637  10.287  0.00  0.00    +0.000 C 
ATOM     19  H   UNL     1      45.316   3.019  10.626  0.00  0.00    +0.000 HD
ENDBRANCH  12  13
ENDBRANCH  11  12
ENDBRANCH   4  11
TORSDOF 5
ENDMDL
MODEL 8
REMARK VINA RESULT:    -4.894      3.694      5.656
REMARK INTER + INTRA:          -6.831
REMARK INTER:                  -6.236
REMARK INTRA:                  -0.595
REMARK UNBOUND:                -0.650
REMARK  Name = 
REMARK  5 active torsions:
REMARK  status: ('A' for Active; 'I' for Inactive)
REMARK    1  A    between atoms: N_1  and  C_2
REMARK    2  A    between atoms: C_2  and  C_3
REMARK    3  A    between atoms: C_6  and  O_7
REMARK    4  A    between atoms: O_7  and  C_8
REMARK    5  A    between atoms: C_8  and  C_9
REMARK                            x       y       z     vdW  Elec       q    Type
REMARK                         _______ _______ _______ _____ _____    ______ ____
ROOT
ATOM      1  C   UNL     1      44.368   4.206  11.273  0.00  0.00    +0.000 A 
ATOM      2  C   UNL     1      45.287   5.010  10.586  0.00  0.00    +0.000 A 
ATOM      3  C   UNL     1      45.718   6.227  11.122  0.00  0.00    +0.000 A 
ATOM      4  C   UNL     1      45.232   6.665  12.354  0.00  0.00    +0.000 A 
ATOM      5  C   UNL     1      44.319   5.870  13.046  0.00  0.00    +0.000 A 
ATOM      6  C   UNL     1      43.880   4.653  12.508  0.00  0.00    +0.000 A 
ENDROOT
BRANCH   1   7
ATOM      7  C   UNL     1      43.915   2.897  10.680  0.00  0.00    +0.000 C 
BRANCH   7   8
ATOM      8  N   UNL     1      43.031   2.173  11.590  0.00  0.00    +0.000 NA
ATOM      9  H   UNL     1      43.458   2.136  12.512  0.00  0.00    +0.000 HD
ATOM     10  H   UNL     1      42.948   1.211  11.267  0.00  0.00    +0.000 HD
ENDBRANCH   7   8
ENDBRANCH   1   7
BRANCH   4  11
ATOM     11  O   UNL     1      45.612   7.822  12.989  0.00  0.00    +0.000 OA
BRANCH  11  12
ATOM     12  C   UNL     1      46.129   8.841  12.129  0.00  0.00    +0.000 C 
BRANCH  12  13
ATOM     13  C   UNL     1      47.402   9.469  12.729  0.00  0.00    +0.000 C 
ATOM     14  C   UNL     1      48.623   9.394  11.804  0.00  0.00    +0.000 C 
ATOM     15  C   UNL     1      49.131   7.962  11.660  0.00  0.00    +0.000 C 
ATOM     16  C   UNL     1      49.321   7.288  13.021  0.00  0.00    +0.000 C 
ATOM     17  N   UNL     1      48.135   7.393  13.873  0.00  0.00    +0.000 NA
ATOM     18  C   UNL     1      47.736   8.789  14.066  0.00  0.00    +0.000 C 
ATOM     19  H   UNL     1      48.332   6.966  14.778  0.00  0.00    +0.000 HD
ENDBRANCH  12  13
ENDBRANCH  11  12
ENDBRANCH   4  11
TORSDOF 5
ENDMDL
MODEL 9
REMARK VINA RESULT:    -4.810      4.161      6.288
REMARK INTER + INTRA:          -6.725
REMARK INTER:                  -6.193
REMARK INTRA:                  -0.532
REMARK UNBOUND:                -0.650
REMARK  Name = 
REMARK  5 active torsions:
REMARK  status: ('A' for Active; 'I' for Inactive)
REMARK    1  A    between atoms: N_1  and  C_2
REMARK    2  A    between atoms: C_2  and  C_3
REMARK    3  A    between atoms: C_6  and  O_7
REMARK    4  A    between atoms: O_7  and  C_8
REMARK    5  A    between atoms: C_8  and  C_9
REMARK                            x       y       z     vdW  Elec       q    Type
REMARK                         _______ _______ _______ _____ _____    ______ ____
ROOT
ATOM      1  C   UNL     1      44.941   4.706  11.615  0.00  0.00    +0.000 A 
ATOM      2  C   UNL     1      45.369   3.564  12.306  0.00  0.00    +0.000 A 
ATOM      3  C   UNL     1      46.299   3.660  13.344  0.00  0.00    +0.000 A 
ATOM      4  C   UNL     1      46.823   4.901  13.708  0.00  0.00    +0.000 A 
ATOM      5  C   UNL     1      46.400   6.042  13.028  0.00  0.00    +0.000 A 
ATOM      6  C   UNL     1      45.473   5.948  11.981  0.00  0.00    +0.000 A 
ENDROOT
BRANCH   1   7
ATOM      7  C   UNL     1      43.938   4.583  10.497  0.00  0.00    +0.000 C 
BRANCH   7   8
ATOM      8  N   UNL     1      44.571   4.727   9.190  0.00  0.00    +0.000 NA
ATOM      9  H   UNL     1      44.079   5.440   8.656  0.00  0.00    +0.000 HD
ATOM     10  H   UNL     1      44.464   3.854   8.677  0.00  0.00    +0.000 HD
ENDBRANCH   7   8
ENDBRANCH   1   7
BRANCH   4  11
ATOM     11  O   UNL     1      47.711   5.115  14.733  0.00  0.00    +0.000 OA
BRANCH  11  12
ATOM     12  C   UNL     1      47.441   4.381  15.931  0.00  0.00    +0.000 C 
BRANCH  12  13
ATOM     13  C   UNL     1      48.586   4.554  16.947  0.00  0.00    +0.000 C 
ATOM     14  C   UNL     1      48.139   4.430  18.410  0.00  0.00    +0.000 C 
ATOM     15  C   UNL     1      47.285   5.621  18.837  0.00  0.00    +0.000 C 
ATOM     16  C   UNL     1      47.952   6.953  18.485  0.00  0.00    +0.000 C 
ATOM     17  N   UNL     1      48.370   7.021  17.083  0.00  0.00    +0.000 NA
ATOM     18  C   UNL     1      49.267   5.916  16.738  0.00  0.00    +0.000 C 
ATOM     19  H   UNL     1      48.845   7.909  16.917  0.00  0.00    +0.000 HD
ENDBRANCH  12  13
ENDBRANCH  11  12
ENDBRANCH   4  11
TORSDOF 5
ENDMDL
