MODEL 1
REMARK VINA RESULT:    -7.148      0.000      0.000
REMARK INTER + INTRA:          -9.151
REMARK INTER:                  -8.402
REMARK INTRA:                  -0.750
REMARK UNBOUND:                -0.750
REMARK  Name = 
REMARK  6 active torsions:
REMARK  status: ('A' for Active; 'I' for Inactive)
REMARK    1  A    between atoms: C_1  and  C_2
REMARK    2  A    between atoms: C_2  and  C_3
REMARK    3  A    between atoms: C_2  and  C_4
REMARK    4  A    between atoms: C_2  and  C_5
REMARK    5  A    between atoms: C_8  and  C_9
REMARK    6  A    between atoms: C_9  and  N_10
REMARK                            x       y       z     vdW  Elec       q    Type
REMARK                         _______ _______ _______ _____ _____    ______ ____
ROOT
ATOM      1  C   UNL     1      46.104   2.742   7.833  0.00  0.00    +0.000 A 
ATOM      2  C   UNL     1      45.359   1.979   8.748  0.00  0.00    +0.000 A 
ATOM      3  C   UNL     1      44.616   2.576   9.774  0.00  0.00    +0.000 A 
ATOM      4  C   UNL     1      44.601   3.964   9.930  0.00  0.00    +0.000 A 
ATOM      5  C   UNL     1      45.336   4.739   9.029  0.00  0.00    +0.000 A 
ATOM      6  C   UNL     1      46.076   4.137   8.002  0.00  0.00    +0.000 A 
ENDROOT
BRANCH   1   8
ATOM      7  C   UNL     1      46.462   2.363   5.318  0.00  0.00    +0.000 C 
ATOM      8  C   UNL     1      46.972   2.073   6.750  0.00  0.00    +0.000 C 
ATOM      9  C   UNL     1      46.942   0.549   6.977  0.00  0.00    +0.000 C 
ATOM     10  C   UNL     1      48.446   2.540   6.785  0.00  0.00    +0.000 C 
ENDBRANCH   1   8
BRANCH   4  11
ATOM     11  C   UNL     1      43.837   4.601  11.062  0.00  0.00    +0.000 C 
BRANCH  11  12
ATOM     12  N   UNL     1      44.718   5.275  12.010  0.00  0.00    +0.000 N 
ATOM     13  C   UNL     1      45.522   4.619  12.914  0.00  0.00    +0.000 A 
ATOM     14  C   UNL     1      46.302   5.554  13.556  0.00  0.00    +0.000 A 
ATOM     15  C   UNL     1      45.967   6.819  13.022  0.00  0.00    +0.000 A 
ATOM     16  N   UNL     1      46.493   8.029  13.331  0.00  0.00    +0.000 NA
ATOM     17  C   UNL     1      45.971   9.064  12.645  0.00  0.00    +0.000 A 
ATOM     18  C   UNL     1      44.968   8.976  11.693  0.00  0.00    +0.000 A 
ATOM     19  C   UNL     1      44.432   7.728  11.380  0.00  0.00    +0.000 A 
ATOM     20  C   UNL     1      44.967   6.634  12.067  0.00  0.00    +0.000 A 
ENDBRANCH  11  12
ENDBRANCH   4  11
TORSDOF 3
ENDMDL
MODEL 2
REMARK VINA RESULT:    -6.753      0.752      2.178
REMARK INTER + INTRA:          -8.687
REMARK INTER:                  -7.958
REMARK INTRA:                  -0.729
REMARK UNBOUND:                -0.750
REMARK  Name = 
REMARK  6 active torsions:
REMARK  status: ('A' for Active; 'I' for Inactive)
REMARK    1  A    between atoms: C_1  and  C_2
REMARK    2  A    between atoms: C_2  and  C_3
REMARK    3  A    between atoms: C_2  and  C_4
REMARK    4  A    between atoms: C_2  and  C_5
REMARK    5  A    between atoms: C_8  and  C_9
REMARK    6  A    between atoms: C_9  and  N_10
REMARK                            x       y       z     vdW  Elec       q    Type
REMARK                         _______ _______ _______ _____ _____    ______ ____
ROOT
ATOM      1  C   UNL     1      46.057   2.804   8.024  0.00  0.00    +0.000 A 
ATOM      2  C   UNL     1      45.326   2.142   9.026  0.00  0.00    +0.000 A 
ATOM      3  C   UNL     1      44.641   2.845  10.025  0.00  0.00    +0.000 A 
ATOM      4  C   UNL     1      44.673   4.240  10.066  0.00  0.00    +0.000 A 
ATOM      5  C   UNL     1      45.395   4.915   9.078  0.00  0.00    +0.000 A 
ATOM      6  C   UNL     1      46.077   4.208   8.078  0.00  0.00    +0.000 A 
ENDROOT
BRANCH   1   8
ATOM      7  C   UNL     1      48.326   2.517   6.855  0.00  0.00    +0.000 C 
ATOM      8  C   UNL     1      46.864   2.022   6.970  0.00  0.00    +0.000 C 
ATOM      9  C   UNL     1      46.180   2.206   5.601  0.00  0.00    +0.000 C 
ATOM     10  C   UNL     1      46.944   0.508   7.274  0.00  0.00    +0.000 C 
ENDBRANCH   1   8
BRANCH   4  11
ATOM     11  C   UNL     1      43.972   4.993  11.167  0.00  0.00    +0.000 C 
BRANCH  11  12
ATOM     12  N   UNL     1      44.755   6.127  11.644  0.00  0.00    +0.000 N 
ATOM     13  C   UNL     1      44.435   7.443  11.397  0.00  0.00    +0.000 A 
ATOM     14  C   UNL     1      45.314   8.240  12.096  0.00  0.00    +0.000 A 
ATOM     15  C   UNL     1      46.194   7.383  12.795  0.00  0.00    +0.000 A 
ATOM     16  N   UNL     1      47.207   7.717  13.631  0.00  0.00    +0.000 NA
ATOM     17  C   UNL     1      47.873   6.671  14.157  0.00  0.00    +0.000 A 
ATOM     18  C   UNL     1      47.606   5.335  13.903  0.00  0.00    +0.000 A 
ATOM     19  C   UNL     1      46.562   4.999  13.044  0.00  0.00    +0.000 A 
ATOM     20  C   UNL     1      45.845   6.066  12.494  0.00  0.00    +0.000 A 
ENDBRANCH  11  12
ENDBRANCH   4  11
TORSDOF 3
ENDMDL
MODEL 3
REMARK VINA RESULT:    -6.369      2.188      6.738
REMARK INTER + INTRA:          -8.235
REMARK INTER:                  -7.695
REMARK INTRA:                  -0.541
REMARK UNBOUND:                -0.750
REMARK  Name = 
REMARK  6 active torsions:
REMARK  status: ('A' for Active; 'I' for Inactive)
REMARK    1  A    between atoms: C_1  and  C_2
REMARK    2  A    between atoms: C_2  and  C_3
REMARK    3  A    between atoms: C_2  and  C_4
REMARK    4  A    between atoms: C_2  and  C_5
REMARK    5  A    between atoms: C_8  and  C_9
REMARK    6  A    between atoms: C_9  and  N_10
REMARK                            x       y       z     vdW  Elec       q    Type
REMARK                         _______ _______ _______ _____ _____    ______ ____
ROOT
ATOM      1  C   UNL     1      47.664   7.580  13.660  0.00  0.00    +0.000 A 
ATOM      2  C   UNL     1      47.436   6.242  13.298  0.00  0.00    +0.000 A 
ATOM      3  C   UNL     1      46.291   5.854  12.590  0.00  0.00    +0.000 A 
ATOM      4  C   UNL     1      45.322   6.793  12.229  0.00  0.00    +0.000 A 
ATOM      5  C   UNL     1      45.533   8.130  12.581  0.00  0.00    +0.000 A 
ATOM      6  C   UNL     1      46.682   8.514  13.287  0.00  0.00    +0.000 A 
ENDROOT
BRANCH   1   8
ATOM      7  C   UNL     1      48.725   9.375  15.160  0.00  0.00    +0.000 C 
ATOM      8  C   UNL     1      48.892   7.986  14.498  0.00  0.00    +0.000 C 
ATOM      9  C   UNL     1      50.119   8.038  13.566  0.00  0.00    +0.000 C 
ATOM     10  C   UNL     1      49.194   6.995  15.645  0.00  0.00    +0.000 C 
ENDBRANCH   1   8
BRANCH   4  11
ATOM     11  C   UNL     1      44.070   6.368  11.507  0.00  0.00    +0.000 C 
BRANCH  11  12
ATOM     12  N   UNL     1      44.047   4.932  11.247  0.00  0.00    +0.000 N 
ATOM     13  C   UNL     1      43.358   4.021  12.016  0.00  0.00    +0.000 A 
ATOM     14  C   UNL     1      43.455   2.787  11.413  0.00  0.00    +0.000 A 
ATOM     15  C   UNL     1      44.222   2.953  10.237  0.00  0.00    +0.000 A 
ATOM     16  N   UNL     1      44.558   2.020   9.313  0.00  0.00    +0.000 NA
ATOM     17  C   UNL     1      45.300   2.481   8.289  0.00  0.00    +0.000 A 
ATOM     18  C   UNL     1      45.731   3.789   8.130  0.00  0.00    +0.000 A 
ATOM     19  C   UNL     1      45.381   4.743   9.083  0.00  0.00    +0.000 A 
ATOM     20  C   UNL     1      44.599   4.293  10.151  0.00  0.00    +0.000 A 
ENDBRANCH  11  12
ENDBRANCH   4  11
TORSDOF 3
ENDMDL
MODEL 4
REMARK VINA RESULT:    -5.497      3.262      5.915
REMARK INTER + INTRA:          -7.211
REMARK INTER:                  -6.457
REMARK INTRA:                  -0.753
REMARK UNBOUND:                -0.750
REMARK  Name = 
REMARK  6 active torsions:
REMARK  status: ('A' for Active; 'I' for Inactive)
REMARK    1  A    between atoms: C_1  and  C_2
REMARK    2  A    between atoms: C_2  and  C_3
REMARK    3  A    between atoms: C_2  and  C_4
REMARK    4  A    between atoms: C_2  and  C_5
REMARK    5  A    between atoms: C_8  and  C_9
REMARK    6  A    between atoms: C_9  and  N_10
REMARK                            x       y       z     vdW  Elec       q    Type
REMARK                         _______ _______ _______ _____ _____    ______ ____
ROOT
ATOM      1  C   UNL     1      45.153   5.173  12.031  0.00  0.00    +0.000 A 
ATOM      2  C   UNL     1      45.801   4.649  13.163  0.00  0.00    +0.000 A 
ATOM      3  C   UNL     1      47.002   5.188  13.640  0.00  0.00    +0.000 A 
ATOM      4  C   UNL     1      47.607   6.268  12.992  0.00  0.00    +0.000 A 
ATOM      5  C   UNL     1      46.976   6.802  11.866  0.00  0.00    +0.000 A 
ATOM      6  C   UNL     1      45.772   6.260  11.393  0.00  0.00    +0.000 A 
ENDROOT
BRANCH   1   8
ATOM      7  C   UNL     1      43.558   3.161  12.127  0.00  0.00    +0.000 C 
ATOM      8  C   UNL     1      43.868   4.530  11.473  0.00  0.00    +0.000 C 
ATOM      9  C   UNL     1      44.053   4.312   9.958  0.00  0.00    +0.000 C 
ATOM     10  C   UNL     1      42.613   5.405  11.688  0.00  0.00    +0.000 C 
ENDBRANCH   1   8
BRANCH   4  11
ATOM     11  C   UNL     1      48.922   6.818  13.481  0.00  0.00    +0.000 C 
BRANCH  11  12
ATOM     12  N   UNL     1      48.774   7.579  14.718  0.00  0.00    +0.000 N 
ATOM     13  C   UNL     1      48.319   8.877  14.773  0.00  0.00    +0.000 A 
ATOM     14  C   UNL     1      48.190   9.232  16.097  0.00  0.00    +0.000 A 
ATOM     15  C   UNL     1      48.572   8.113  16.872  0.00  0.00    +0.000 A 
ATOM     16  N   UNL     1      48.583   7.988  18.222  0.00  0.00    +0.000 NA
ATOM     17  C   UNL     1      48.997   6.790  18.674  0.00  0.00    +0.000 A 
ATOM     18  C   UNL     1      49.402   5.725  17.884  0.00  0.00    +0.000 A 
ATOM     19  C   UNL     1      49.388   5.861  16.498  0.00  0.00    +0.000 A 
ATOM     20  C   UNL     1      48.949   7.092  16.000  0.00  0.00    +0.000 A 
ENDBRANCH  11  12
ENDBRANCH   4  11
TORSDOF 3
ENDMDL
MODEL 5
REMARK VINA RESULT:    -5.213      3.475      5.887
REMARK INTER + INTRA:          -6.877
REMARK INTER:                  -6.319
REMARK INTRA:                  -0.559
REMARK UNBOUND:                -0.750
REMARK  Name = 
REMARK  6 active torsions:
REMARK  status: ('A' for Active; 'I' for Inactive)
REMARK    1  A    between atoms: C_1  and  C_2
REMARK    2  A    between atoms: C_2  and  C_3
REMARK    3  A    between atoms: C_2  and  C_4
REMARK    4  A    between atoms: C_2  and  C_5
REMARK    5  A    between atoms: C_8  and  C_9
REMARK    6  A    between atoms: C_9  and  N_10
REMARK                            x       y       z     vdW  Elec       q    Type
REMARK                         _______ _______ _______ _____ _____    ______ ____
ROOT
ATOM      1  C   UNL     1      45.168   5.232  11.974  0.00  0.00    +0.000 A 
ATOM      2  C   UNL     1      45.724   4.944  13.233  0.00  0.00    +0.000 A 
ATOM      3  C   UNL     1      46.929   5.520  13.654  0.00  0.00    +0.000 A 
ATOM      4  C   UNL     1      47.630   6.398  12.825  0.00  0.00    +0.000 A 
ATOM      5  C   UNL     1      47.091   6.696  11.570  0.00  0.00    +0.000 A 
ATOM      6  C   UNL     1      45.883   6.119  11.153  0.00  0.00    +0.000 A 
ENDROOT
BRANCH   1   8
ATOM      7  C   UNL     1      43.653   3.166  12.166  0.00  0.00    +0.000 C 
ATOM      8  C   UNL     1      43.878   4.541  11.492  0.00  0.00    +0.000 C 
ATOM      9  C   UNL     1      43.985   4.323   9.969  0.00  0.00    +0.000 C 
ATOM     10  C   UNL     1      42.606   5.373  11.775  0.00  0.00    +0.000 C 
ENDBRANCH   1   8
BRANCH   4  11
ATOM     11  C   UNL     1      48.949   6.982  13.263  0.00  0.00    +0.000 C 
BRANCH  11  12
ATOM     12  N   UNL     1      49.201   8.286  12.658  0.00  0.00    +0.000 N 
ATOM     13  C   UNL     1      48.529   9.437  13.002  0.00  0.00    +0.000 A 
ATOM     14  C   UNL     1      49.105  10.490  12.328  0.00  0.00    +0.000 A 
ATOM     15  C   UNL     1      50.165   9.965  11.554  0.00  0.00    +0.000 A 
ATOM     16  N   UNL     1      51.028  10.629  10.747  0.00  0.00    +0.000 NA
ATOM     17  C   UNL     1      51.943   9.852  10.137  0.00  0.00    +0.000 A 
ATOM     18  C   UNL     1      52.049   8.476  10.268  0.00  0.00    +0.000 A 
ATOM     19  C   UNL     1      51.158   7.800  11.099  0.00  0.00    +0.000 A 
ATOM     20  C   UNL     1      50.206   8.585  11.756  0.00  0.00    +0.000 A 
ENDBRANCH  11  12
ENDBRANCH   4  11
TORSDOF 3
ENDMDL
MODEL 6
REMARK VINA RESULT:    -5.165      3.703      8.307
REMARK INTER + INTRA:          -6.821
REMARK INTER:                  -6.115
REMARK INTRA:                  -0.706
REMARK UNBOUND:                -0.750
REMARK  Name = 
REMARK  6 active torsions:
REMARK  status: ('A' for Active; 'I' for Inactive)
REMARK    1  A    between atoms: C_1  and  C_2
REMARK    2  A    between atoms: C_2  and  C_3
REMARK    3  A    between atoms: C_2  and  C_4
REMARK    4  A    between atoms: C_2  and  C_5
REMARK    5  A    between atoms: C_8  and  C_9
REMARK    6  A    between atoms: C_9  and  N_10
REMARK                            x       y       z     vdW  Elec       q    Type
REMARK                         _______ _______ _______ _____ _____    ______ ____
ROOT
ATOM      1  C   UNL     1      48.299   5.687  17.709  0.00  0.00    +0.000 A 
ATOM      2  C   UNL     1      48.825   6.643  16.824  0.00  0.00    +0.000 A 
ATOM      3  C   UNL     1      48.620   6.558  15.441  0.00  0.00    +0.000 A 
ATOM      4  C   UNL     1      47.890   5.503  14.890  0.00  0.00    +0.000 A 
ATOM      5  C   UNL     1      47.358   4.544  15.756  0.00  0.00    +0.000 A 
ATOM      6  C   UNL     1      47.563   4.634  17.141  0.00  0.00    +0.000 A 
ENDROOT
BRANCH   1   8
ATOM      7  C   UNL     1      47.455   6.452  20.011  0.00  0.00    +0.000 C 
ATOM      8  C   UNL     1      48.586   5.751  19.222  0.00  0.00    +0.000 C 
ATOM      9  C   UNL     1      49.890   6.547  19.434  0.00  0.00    +0.000 C 
ATOM     10  C   UNL     1      48.759   4.355  19.863  0.00  0.00    +0.000 C 
ENDBRANCH   1   8
BRANCH   4  11
ATOM     11  C   UNL     1      47.709   5.390  13.399  0.00  0.00    +0.000 C 
BRANCH  11  12
ATOM     12  N   UNL     1      46.393   5.849  12.968  0.00  0.00    +0.000 N 
ATOM     13  C   UNL     1      46.054   7.174  12.808  0.00  0.00    +0.000 A 
ATOM     14  C   UNL     1      44.785   7.234  12.277  0.00  0.00    +0.000 A 
ATOM     15  C   UNL     1      44.340   5.904  12.102  0.00  0.00    +0.000 A 
ATOM     16  N   UNL     1      43.162   5.472  11.587  0.00  0.00    +0.000 NA
ATOM     17  C   UNL     1      43.023   4.133  11.543  0.00  0.00    +0.000 A 
ATOM     18  C   UNL     1      43.961   3.210  11.978  0.00  0.00    +0.000 A 
ATOM     19  C   UNL     1      45.169   3.662  12.506  0.00  0.00    +0.000 A 
ATOM     20  C   UNL     1      45.345   5.048  12.551  0.00  0.00    +0.000 A 
ENDBRANCH  11  12
ENDBRANCH   4  11
TORSDOF 3
ENDMDL
MODEL 7
REMARK VINA RESULT:    -5.064      5.364      8.241
REMARK INTER + INTRA:          -6.702
REMARK INTER:                  -5.941
REMARK INTRA:                  -0.760
REMARK UNBOUND:                -0.750
REMARK  Name = 
REMARK  6 active torsions:
REMARK  status: ('A' for Active; 'I' for Inactive)
REMARK    1  A    between atoms: C_1  and  C_2
REMARK    2  A    between atoms: C_2  and  C_3
REMARK    3  A    between atoms: C_2  and  C_4
REMARK    4  A    between atoms: C_2  and  C_5
REMARK    5  A    between atoms: C_8  and  C_9
REMARK    6  A    between atoms: C_9  and  N_10
REMARK                            x       y       z     vdW  Elec       q    Type
REMARK                         _______ _______ _______ _____ _____    ______ ____
ROOT
ATOM      1  C   UNL     1      47.533   6.281  13.768  0.00  0.00    +0.000 A 
ATOM      2  C   UNL     1      48.392   6.792  14.756  0.00  0.00    +0.000 A 
ATOM      3  C   UNL     1      48.613   6.115  15.963  0.00  0.00    +0.000 A 
ATOM      4  C   UNL     1      47.970   4.905  16.231  0.00  0.00    +0.000 A 
ATOM      5  C   UNL     1      47.112   4.382  15.259  0.00  0.00    +0.000 A 
ATOM      6  C   UNL     1      46.896   5.061  14.052  0.00  0.00    +0.000 A 
ENDROOT
BRANCH   1   8
ATOM      7  C   UNL     1      48.536   7.510  11.749  0.00  0.00    +0.000 C 
ATOM      8  C   UNL     1      47.243   7.066  12.474  0.00  0.00    +0.000 C 
ATOM      9  C   UNL     1      46.435   8.327  12.842  0.00  0.00    +0.000 C 
ATOM     10  C   UNL     1      46.428   6.250  11.444  0.00  0.00    +0.000 C 
ENDBRANCH   1   8
BRANCH   4  11
ATOM     11  C   UNL     1      48.175   4.201  17.547  0.00  0.00    +0.000 C 
BRANCH  11  12
ATOM     12  N   UNL     1      49.414   3.433  17.573  0.00  0.00    +0.000 N 
ATOM     13  C   UNL     1      49.552   2.175  17.030  0.00  0.00    +0.000 A 
ATOM     14  C   UNL     1      50.876   1.807  17.124  0.00  0.00    +0.000 A 
ATOM     15  C   UNL     1      51.566   2.877  17.739  0.00  0.00    +0.000 A 
ATOM     16  N   UNL     1      52.890   2.975  18.015  0.00  0.00    +0.000 NA
ATOM     17  C   UNL     1      53.259   4.128  18.606  0.00  0.00    +0.000 A 
ATOM     18  C   UNL     1      52.409   5.170  18.942  0.00  0.00    +0.000 A 
ATOM     19  C   UNL     1      51.050   5.062  18.654  0.00  0.00    +0.000 A 
ATOM     20  C   UNL     1      50.642   3.880  18.028  0.00  0.00    +0.000 A 
ENDBRANCH  11  12
ENDBRANCH   4  11
TORSDOF 3
ENDMDL
MODEL 8
REMARK VINA RESULT:    -5.058      1.511      2.587
REMARK INTER + INTRA:          -6.695
REMARK INTER:                  -6.097
REMARK INTRA:                  -0.598
REMARK UNBOUND:                -0.750
REMARK  Name = 
REMARK  6 active torsions:
REMARK  status: ('A' for Active; 'I' for Inactive)
REMARK    1  A    between atoms: C_1  and  C_2
REMARK    2  A    between atoms: C_2  and  C_3
REMARK    3  A    between atoms: C_2  and  C_4
REMARK    4  A    between atoms: C_2  and  C_5
REMARK    5  A    between atoms: C_8  and  C_9
REMARK    6  A    between atoms: C_9  and  N_10
REMARK                            x       y       z     vdW  Elec       q    Type
REMARK                         _______ _______ _______ _____ _____    ______ ____
ROOT
ATOM      1  C   UNL     1      45.361   3.786   9.576  0.00  0.00    +0.000 A 
ATOM      2  C   UNL     1      45.050   3.265  10.844  0.00  0.00    +0.000 A 
ATOM      3  C   UNL     1      45.039   4.072  11.989  0.00  0.00    +0.000 A 
ATOM      4  C   UNL     1      45.353   5.430  11.910  0.00  0.00    +0.000 A 
ATOM      5  C   UNL     1      45.665   5.965  10.656  0.00  0.00    +0.000 A 
ATOM      6  C   UNL     1      45.672   5.155   9.512  0.00  0.00    +0.000 A 
ENDROOT
BRANCH   1   8
ATOM      7  C   UNL     1      44.371   3.237   7.271  0.00  0.00    +0.000 C 
ATOM      8  C   UNL     1      45.438   2.878   8.334  0.00  0.00    +0.000 C 
ATOM      9  C   UNL     1      45.205   1.421   8.782  0.00  0.00    +0.000 C 
ATOM     10  C   UNL     1      46.805   2.953   7.615  0.00  0.00    +0.000 C 
ENDBRANCH   1   8
BRANCH   4  11
ATOM     11  C   UNL     1      45.384   6.286  13.149  0.00  0.00    +0.000 C 
BRANCH  11  12
ATOM     12  N   UNL     1      46.411   7.319  13.079  0.00  0.00    +0.000 N 
ATOM     13  C   UNL     1      47.745   7.097  13.336  0.00  0.00    +0.000 A 
ATOM     14  C   UNL     1      48.437   8.255  13.056  0.00  0.00    +0.000 A 
ATOM     15  C   UNL     1      47.495   9.209  12.608  0.00  0.00    +0.000 A 
ATOM     16  N   UNL     1      47.717  10.482  12.198  0.00  0.00    +0.000 NA
ATOM     17  C   UNL     1      46.612  11.154  11.822  0.00  0.00    +0.000 A 
ATOM     18  C   UNL     1      45.320  10.654  11.835  0.00  0.00    +0.000 A 
ATOM     19  C   UNL     1      45.099   9.345  12.258  0.00  0.00    +0.000 A 
ATOM     20  C   UNL     1      46.232   8.619  12.641  0.00  0.00    +0.000 A 
ENDBRANCH  11  12
ENDBRANCH   4  11
TORSDOF 3
ENDMDL
MODEL 9
REMARK VINA RESULT:    -4.886      4.323      6.834
REMARK INTER + INTRA:          -6.492
REMARK INTER:                  -5.771
REMARK INTRA:                  -0.721
REMARK UNBOUND:                -0.750
REMARK  Name = 
REMARK  6 active torsions:
REMARK  status: ('A' for Active; 'I' for Inactive)
REMARK    1  A    between atoms: C_1  and  C_2
REMARK    2  A    between atoms: C_2  and  C_3
REMARK    3  A    between atoms: C_2  and  C_4
REMARK    4  A    between atoms: C_2  and  C_5
REMARK    5  A    between atoms: C_8  and  C_9
REMARK    6  A    between atoms: C_9  and  N_10
REMARK                            x       y       z     vdW  Elec       q    Type
REMARK                         _______ _______ _______ _____ _____    ______ ____
ROOT
ATOM      1  C   UNL     1      51.466   8.334  11.823  0.00  0.00    +0.000 A 
ATOM      2  C   UNL     1      51.140   8.620  13.160  0.00  0.00    +0.000 A 
ATOM      3  C   UNL     1      49.859   8.382  13.673  0.00  0.00    +0.000 A 
ATOM      4  C   UNL     1      48.850   7.859  12.862  0.00  0.00    +0.000 A 
ATOM      5  C   UNL     1      49.156   7.568  11.530  0.00  0.00    +0.000 A 
ATOM      6  C   UNL     1      50.441   7.805  11.020  0.00  0.00    +0.000 A 
ENDROOT
BRANCH   1   8
ATOM      7  C   UNL     1      53.460   7.485  10.446  0.00  0.00    +0.000 C 
ATOM      8  C   UNL     1      52.857   8.662  11.249  0.00  0.00    +0.000 C 
ATOM      9  C   UNL     1      53.803   8.983  12.423  0.00  0.00    +0.000 C 
ATOM     10  C   UNL     1      52.843   9.876  10.291  0.00  0.00    +0.000 C 
ENDBRANCH   1   8
BRANCH   4  11
ATOM     11  C   UNL     1      47.460   7.645  13.405  0.00  0.00    +0.000 C 
BRANCH  11  12
ATOM     12  N   UNL     1      47.136   6.230  13.546  0.00  0.00    +0.000 N 
ATOM     13  C   UNL     1      47.486   5.465  14.635  0.00  0.00    +0.000 A 
ATOM     14  C   UNL     1      46.916   4.220  14.490  0.00  0.00    +0.000 A 
ATOM     15  C   UNL     1      46.191   4.229  13.276  0.00  0.00    +0.000 A 
ATOM     16  N   UNL     1      45.449   3.234  12.731  0.00  0.00    +0.000 NA
ATOM     17  C   UNL     1      44.867   3.543  11.556  0.00  0.00    +0.000 A 
ATOM     18  C   UNL     1      44.979   4.755  10.894  0.00  0.00    +0.000 A 
ATOM     19  C   UNL     1      45.743   5.774  11.460  0.00  0.00    +0.000 A 
ATOM     20  C   UNL     1      46.348   5.484  12.688  0.00  0.00    +0.000 A 
ENDBRANCH  11  12
ENDBRANCH   4  11
TORSDOF 3
ENDMDL
