MODEL 1
REMARK VINA RESULT:    -7.849      0.000      0.000
REMARK INTER + INTRA:         -10.397
REMARK INTER:                  -9.684
REMARK INTRA:                  -0.713
REMARK UNBOUND:                -0.713
REMARK  Name = 
REMARK  5 active torsions:
REMARK  status: ('A' for Active; 'I' for Inactive)
REMARK    1  A    between atoms: C_1  and  C_2
REMARK    2  A    between atoms: C_2  and  O_3
REMARK    3  A    between atoms: C_2  and  C_13
REMARK    4  A    between atoms: O_3  and  C_4
REMARK    5  A    between atoms: C_7  and  C_8
REMARK                            x       y       z     vdW  Elec       q    Type
REMARK                         _______ _______ _______ _____ _____    ______ ____
ROOT
ATOM      1  C   UNL     1      44.603   3.867   9.312  0.00  0.00    +0.000 A 
ATOM      2  C   UNL     1      44.628   2.485   9.479  0.00  0.00    +0.000 A 
ATOM      3  C   UNL     1      45.529   1.715   8.745  0.00  0.00    +0.000 A 
ATOM      4  C   UNL     1      46.397   2.355   7.874  0.00  0.00    +0.000 A 
ATOM      5  N   UNL     1      46.423   3.705   7.693  0.00  0.00    +0.000 NA
ATOM      6  C   UNL     1      45.516   4.417   8.412  0.00  0.00    +0.000 A 
ENDROOT
BRANCH   4   7
ATOM      7  C   UNL     1      47.358   1.531   7.076  0.00  0.00    +0.000 C 
ATOM      8  N   UNL     1      48.429   2.204   6.558  0.00  0.00    +0.000 N 
ATOM      9  O   UNL     1      47.200   0.332   6.887  0.00  0.00    +0.000 OA
ATOM     10  H   UNL     1      48.525   3.199   6.715  0.00  0.00    +0.000 HD
ATOM     11  H   UNL     1      49.100   1.704   5.992  0.00  0.00    +0.000 HD
ENDBRANCH   4   7
BRANCH   1  12
ATOM     12  O   UNL     1      43.726   4.727   9.904  0.00  0.00    +0.000 OA
BRANCH  12  14
ATOM     13  C   UNL     1      42.321   5.475  11.780  0.00  0.00    +0.000 C 
ATOM     14  C   UNL     1      43.517   4.630  11.322  0.00  0.00    +0.000 C 
BRANCH  14  15
ATOM     15  C   UNL     1      44.784   5.147  11.991  0.00  0.00    +0.000 A 
ATOM     16  C   UNL     1      45.515   4.325  12.862  0.00  0.00    +0.000 A 
ATOM     17  C   UNL     1      46.670   4.801  13.489  0.00  0.00    +0.000 A 
ATOM     18  C   UNL     1      47.103   6.104  13.251  0.00  0.00    +0.000 A 
ATOM     19 CL   UNL     1      48.529   6.687  14.016  0.00  0.00    +0.000 Cl
ATOM     20  C   UNL     1      46.388   6.937  12.394  0.00  0.00    +0.000 A 
ATOM     21  C   UNL     1      45.237   6.460  11.765  0.00  0.00    +0.000 A 
ENDBRANCH  14  15
ENDBRANCH  12  14
ENDBRANCH   1  12
TORSDOF 4
ENDMDL
MODEL 2
REMARK VINA RESULT:    -7.088      1.494      2.061
REMARK INTER + INTRA:          -9.459
REMARK INTER:                  -8.806
REMARK INTRA:                  -0.653
REMARK UNBOUND:                -0.713
REMARK  Name = 
REMARK  5 active torsions:
REMARK  status: ('A' for Active; 'I' for Inactive)
REMARK    1  A    between atoms: C_1  and  C_2
REMARK    2  A    between atoms: C_2  and  O_3
REMARK    3  A    between atoms: C_2  and  C_13
REMARK    4  A    between atoms: O_3  and  C_4
REMARK    5  A    between atoms: C_7  and  C_8
REMARK                            x       y       z     vdW  Elec       q    Type
REMARK                         _______ _______ _______ _____ _____    ______ ____
ROOT
ATOM      1  C   UNL     1      44.725   3.880   9.428  0.00  0.00    +0.000 A 
ATOM      2  C   UNL     1      45.520   4.501   8.468  0.00  0.00    +0.000 A 
ATOM      3  C   UNL     1      46.344   3.732   7.648  0.00  0.00    +0.000 A 
ATOM      4  C   UNL     1      46.336   2.354   7.801  0.00  0.00    +0.000 A 
ATOM      5  N   UNL     1      45.561   1.701   8.712  0.00  0.00    +0.000 NA
ATOM      6  C   UNL     1      44.787   2.488   9.503  0.00  0.00    +0.000 A 
ENDROOT
BRANCH   4   7
ATOM      7  C   UNL     1      47.229   1.525   6.931  0.00  0.00    +0.000 C 
ATOM      8  N   UNL     1      48.272   2.190   6.349  0.00  0.00    +0.000 N 
ATOM      9  O   UNL     1      47.041   0.331   6.740  0.00  0.00    +0.000 OA
ATOM     10  H   UNL     1      48.392   3.182   6.510  0.00  0.00    +0.000 HD
ATOM     11  H   UNL     1      48.896   1.686   5.735  0.00  0.00    +0.000 HD
ENDBRANCH   4   7
BRANCH   1  12
ATOM     12  O   UNL     1      43.935   4.513  10.341  0.00  0.00    +0.000 OA
BRANCH  12  14
ATOM     13  C   UNL     1      43.321   4.490  12.724  0.00  0.00    +0.000 C 
ATOM     14  C   UNL     1      44.428   4.681  11.681  0.00  0.00    +0.000 C 
BRANCH  14  15
ATOM     15  C   UNL     1      44.969   6.103  11.775  0.00  0.00    +0.000 A 
ATOM     16  C   UNL     1      46.149   6.369  12.486  0.00  0.00    +0.000 A 
ATOM     17  C   UNL     1      46.640   7.674  12.587  0.00  0.00    +0.000 A 
ATOM     18  C   UNL     1      45.953   8.723  11.979  0.00  0.00    +0.000 A 
ATOM     19 CL   UNL     1      46.562  10.328  12.096  0.00  0.00    +0.000 Cl
ATOM     20  C   UNL     1      44.778   8.480  11.274  0.00  0.00    +0.000 A 
ATOM     21  C   UNL     1      44.290   7.176  11.169  0.00  0.00    +0.000 A 
ENDBRANCH  14  15
ENDBRANCH  12  14
ENDBRANCH   1  12
TORSDOF 4
ENDMDL
MODEL 3
REMARK VINA RESULT:    -6.698      3.767      6.616
REMARK INTER + INTRA:          -8.978
REMARK INTER:                  -8.441
REMARK INTRA:                  -0.536
REMARK UNBOUND:                -0.713
REMARK  Name = 
REMARK  5 active torsions:
REMARK  status: ('A' for Active; 'I' for Inactive)
REMARK    1  A    between atoms: C_1  and  C_2
REMARK    2  A    between atoms: C_2  and  O_3
REMARK    3  A    between atoms: C_2  and  C_13
REMARK    4  A    between atoms: O_3  and  C_4
REMARK    5  A    between atoms: C_7  and  C_8
REMARK                            x       y       z     vdW  Elec       q    Type
REMARK                         _______ _______ _______ _____ _____    ______ ____
ROOT
ATOM      1  C   UNL     1      45.289   5.578  11.882  0.00  0.00    +0.000 A 
ATOM      2  C   UNL     1      46.345   6.231  12.511  0.00  0.00    +0.000 A 
ATOM      3  C   UNL     1      46.347   7.622  12.598  0.00  0.00    +0.000 A 
ATOM      4  C   UNL     1      45.274   8.323  12.066  0.00  0.00    +0.000 A 
ATOM      5  N   UNL     1      44.211   7.727  11.460  0.00  0.00    +0.000 NA
ATOM      6  C   UNL     1      44.258   6.371  11.379  0.00  0.00    +0.000 A 
ENDROOT
BRANCH   4   7
ATOM      7  C   UNL     1      45.278   9.818  12.147  0.00  0.00    +0.000 C 
ATOM      8  N   UNL     1      44.048  10.410  12.228  0.00  0.00    +0.000 N 
ATOM      9  O   UNL     1      46.309  10.477  12.133  0.00  0.00    +0.000 OA
ATOM     10  H   UNL     1      43.211   9.840  12.219  0.00  0.00    +0.000 HD
ATOM     11  H   UNL     1      43.987  11.418  12.264  0.00  0.00    +0.000 HD
ENDBRANCH   4   7
BRANCH   1  12
ATOM     12  O   UNL     1      45.199   4.236  11.660  0.00  0.00    +0.000 OA
BRANCH  12  14
ATOM     13  C   UNL     1      43.490   2.546  11.133  0.00  0.00    +0.000 C 
ATOM     14  C   UNL     1      44.290   3.763  10.653  0.00  0.00    +0.000 C 
BRANCH  14  15
ATOM     15  C   UNL     1      45.136   3.366   9.449  0.00  0.00    +0.000 A 
ATOM     16  C   UNL     1      45.643   4.346   8.582  0.00  0.00    +0.000 A 
ATOM     17  C   UNL     1      46.407   3.984   7.469  0.00  0.00    +0.000 A 
ATOM     18  C   UNL     1      46.668   2.640   7.212  0.00  0.00    +0.000 A 
ATOM     19 CL   UNL     1      47.616   2.196   5.847  0.00  0.00    +0.000 Cl
ATOM     20  C   UNL     1      46.169   1.652   8.058  0.00  0.00    +0.000 A 
ATOM     21  C   UNL     1      45.410   2.014   9.173  0.00  0.00    +0.000 A 
ENDBRANCH  14  15
ENDBRANCH  12  14
ENDBRANCH   1  12
TORSDOF 4
ENDMDL
MODEL 4
REMARK VINA RESULT:    -6.547      4.150      6.611
REMARK INTER + INTRA:          -8.791
REMARK INTER:                  -8.191
REMARK INTRA:                  -0.600
REMARK UNBOUND:                -0.713
REMARK  Name = 
REMARK  5 active torsions:
REMARK  status: ('A' for Active; 'I' for Inactive)
REMARK    1  A    between atoms: C_1  and  C_2
REMARK    2  A    between atoms: C_2  and  O_3
REMARK    3  A    between atoms: C_2  and  C_13
REMARK    4  A    between atoms: O_3  and  C_4
REMARK    5  A    between atoms: C_7  and  C_8
REMARK                            x       y       z     vdW  Elec       q    Type
REMARK                         _______ _______ _______ _____ _____    ______ ____
ROOT
ATOM      1  C   UNL     1      46.226   4.702  12.885  0.00  0.00    +0.000 A 
ATOM      2  C   UNL     1      46.518   5.983  12.426  0.00  0.00    +0.000 A 
ATOM      3  C   UNL     1      47.411   6.787  13.135  0.00  0.00    +0.000 A 
ATOM      4  C   UNL     1      48.003   6.274  14.279  0.00  0.00    +0.000 A 
ATOM      5  N   UNL     1      47.763   5.021  14.755  0.00  0.00    +0.000 NA
ATOM      6  C   UNL     1      46.873   4.278  14.046  0.00  0.00    +0.000 A 
ENDROOT
BRANCH   4   7
ATOM      7  C   UNL     1      48.953   7.138  15.050  0.00  0.00    +0.000 C 
ATOM      8  N   UNL     1      48.392   7.901  16.037  0.00  0.00    +0.000 N 
ATOM      9  O   UNL     1      50.153   7.171  14.815  0.00  0.00    +0.000 OA
ATOM     10  H   UNL     1      47.394   7.866  16.197  0.00  0.00    +0.000 HD
ATOM     11  H   UNL     1      48.981   8.519  16.576  0.00  0.00    +0.000 HD
ENDBRANCH   4   7
BRANCH   1  12
ATOM     12  O   UNL     1      45.319   3.845  12.336  0.00  0.00    +0.000 OA
BRANCH  12  14
ATOM     13  C   UNL     1      43.035   3.793  11.423  0.00  0.00    +0.000 C 
ATOM     14  C   UNL     1      44.467   4.323  11.283  0.00  0.00    +0.000 C 
BRANCH  14  15
ATOM     15  C   UNL     1      45.063   3.822   9.973  0.00  0.00    +0.000 A 
ATOM     16  C   UNL     1      45.558   4.730   9.024  0.00  0.00    +0.000 A 
ATOM     17  C   UNL     1      46.092   4.274   7.815  0.00  0.00    +0.000 A 
ATOM     18  C   UNL     1      46.134   2.908   7.545  0.00  0.00    +0.000 A 
ATOM     19 CL   UNL     1      46.799   2.347   6.061  0.00  0.00    +0.000 Cl
ATOM     20  C   UNL     1      45.643   1.992   8.472  0.00  0.00    +0.000 A 
ATOM     21  C   UNL     1      45.114   2.447   9.681  0.00  0.00    +0.000 A 
ENDBRANCH  14  15
ENDBRANCH  12  14
ENDBRANCH   1  12
TORSDOF 4
ENDMDL
MODEL 5
REMARK VINA RESULT:    -6.245      3.788      6.087
REMARK INTER + INTRA:          -8.418
REMARK INTER:                  -9.034
REMARK INTRA:                   0.616
REMARK UNBOUND:                -0.713
REMARK  Name = 
REMARK  5 active torsions:
REMARK  status: ('A' for Active; 'I' for Inactive)
REMARK    1  A    between atoms: C_1  and  C_2
REMARK    2  A    between atoms: C_2  and  O_3
REMARK    3  A    between atoms: C_2  and  C_13
REMARK    4  A    between atoms: O_3  and  C_4
REMARK    5  A    between atoms: C_7  and  C_8
REMARK                            x       y       z     vdW  Elec       q    Type
REMARK                         _______ _______ _______ _____ _____    ______ ____
ROOT
ATOM      1  C   UNL     1      45.135   5.124  11.843  0.00  0.00    +0.000 A 
ATOM      2  C   UNL     1      45.639   3.953  12.402  0.00  0.00    +0.000 A 
ATOM      3  C   UNL     1      46.494   4.022  13.500  0.00  0.00    +0.000 A 
ATOM      4  C   UNL     1      46.809   5.268  14.023  0.00  0.00    +0.000 A 
ATOM      5  N   UNL     1      46.325   6.438  13.522  0.00  0.00    +0.000 NA
ATOM      6  C   UNL     1      45.510   6.328  12.440  0.00  0.00    +0.000 A 
ENDROOT
BRANCH   4   7
ATOM      7  C   UNL     1      47.737   5.346  15.195  0.00  0.00    +0.000 C 
ATOM      8  N   UNL     1      47.281   4.776  16.351  0.00  0.00    +0.000 N 
ATOM      9  O   UNL     1      48.832   5.890  15.134  0.00  0.00    +0.000 OA
ATOM     10  H   UNL     1      46.364   4.349  16.377  0.00  0.00    +0.000 HD
ATOM     11  H   UNL     1      47.856   4.818  17.180  0.00  0.00    +0.000 HD
ENDBRANCH   4   7
BRANCH   1  12
ATOM     12  O   UNL     1      44.356   5.206  10.728  0.00  0.00    +0.000 OA
BRANCH  12  14
ATOM     13  C   UNL     1      43.514   2.962  11.286  0.00  0.00    +0.000 C 
ATOM     14  C   UNL     1      43.792   3.999  10.190  0.00  0.00    +0.000 C 
BRANCH  14  15
ATOM     15  C   UNL     1      44.814   3.434   9.210  0.00  0.00    +0.000 A 
ATOM     16  C   UNL     1      45.091   2.059   9.186  0.00  0.00    +0.000 A 
ATOM     17  C   UNL     1      46.038   1.540   8.299  0.00  0.00    +0.000 A 
ATOM     18  C   UNL     1      46.717   2.392   7.431  0.00  0.00    +0.000 A 
ATOM     19 CL   UNL     1      47.877   1.751   6.334  0.00  0.00    +0.000 Cl
ATOM     20  C   UNL     1      46.460   3.760   7.444  0.00  0.00    +0.000 A 
ATOM     21  C   UNL     1      45.511   4.278   8.326  0.00  0.00    +0.000 A 
ENDBRANCH  14  15
ENDBRANCH  12  14
ENDBRANCH   1  12
TORSDOF 4
ENDMDL
MODEL 6
REMARK VINA RESULT:    -6.177      3.943      6.601
REMARK INTER + INTRA:          -8.335
REMARK INTER:                  -7.778
REMARK INTRA:                  -0.556
REMARK UNBOUND:                -0.713
REMARK  Name = 
REMARK  5 active torsions:
REMARK  status: ('A' for Active; 'I' for Inactive)
REMARK    1  A    between atoms: C_1  and  C_2
REMARK    2  A    between atoms: C_2  and  O_3
REMARK    3  A    between atoms: C_2  and  C_13
REMARK    4  A    between atoms: O_3  and  C_4
REMARK    5  A    between atoms: C_7  and  C_8
REMARK                            x       y       z     vdW  Elec       q    Type
REMARK                         _______ _______ _______ _____ _____    ______ ____
ROOT
ATOM      1  C   UNL     1      45.791   6.379  12.005  0.00  0.00    +0.000 A 
ATOM      2  C   UNL     1      45.142   7.507  12.498  0.00  0.00    +0.000 A 
ATOM      3  C   UNL     1      45.846   8.701  12.648  0.00  0.00    +0.000 A 
ATOM      4  C   UNL     1      47.183   8.736  12.281  0.00  0.00    +0.000 A 
ATOM      5  N   UNL     1      47.854   7.664  11.776  0.00  0.00    +0.000 NA
ATOM      6  C   UNL     1      47.137   6.516  11.663  0.00  0.00    +0.000 A 
ENDROOT
BRANCH   4   7
ATOM      7  C   UNL     1      47.946  10.013  12.452  0.00  0.00    +0.000 C 
ATOM      8  N   UNL     1      47.966  10.526  13.719  0.00  0.00    +0.000 N 
ATOM      9  O   UNL     1      48.511  10.573  11.522  0.00  0.00    +0.000 OA
ATOM     10  H   UNL     1      47.474  10.050  14.465  0.00  0.00    +0.000 HD
ATOM     11  H   UNL     1      48.448  11.397  13.891  0.00  0.00    +0.000 HD
ENDBRANCH   4   7
BRANCH   1  12
ATOM     12  O   UNL     1      45.246   5.135  11.881  0.00  0.00    +0.000 OA
BRANCH  12  14
ATOM     13  C   UNL     1      43.058   4.137  11.365  0.00  0.00    +0.000 C 
ATOM     14  C   UNL     1      44.278   4.907  10.845  0.00  0.00    +0.000 C 
BRANCH  14  15
ATOM     15  C   UNL     1      44.972   4.082   9.767  0.00  0.00    +0.000 A 
ATOM     16  C   UNL     1      45.671   4.714   8.728  0.00  0.00    +0.000 A 
ATOM     17  C   UNL     1      46.297   3.961   7.731  0.00  0.00    +0.000 A 
ATOM     18  C   UNL     1      46.226   2.570   7.763  0.00  0.00    +0.000 A 
ATOM     19 CL   UNL     1      47.003   1.643   6.539  0.00  0.00    +0.000 Cl
ATOM     20  C   UNL     1      45.531   1.924   8.782  0.00  0.00    +0.000 A 
ATOM     21  C   UNL     1      44.911   2.676   9.782  0.00  0.00    +0.000 A 
ENDBRANCH  14  15
ENDBRANCH  12  14
ENDBRANCH   1  12
TORSDOF 4
ENDMDL
MODEL 7
REMARK VINA RESULT:    -6.065      4.536      6.813
REMARK INTER + INTRA:          -8.197
REMARK INTER:                  -7.604
REMARK INTRA:                  -0.592
REMARK UNBOUND:                -0.713
REMARK  Name = 
REMARK  5 active torsions:
REMARK  status: ('A' for Active; 'I' for Inactive)
REMARK    1  A    between atoms: C_1  and  C_2
REMARK    2  A    between atoms: C_2  and  O_3
REMARK    3  A    between atoms: C_2  and  C_13
REMARK    4  A    between atoms: O_3  and  C_4
REMARK    5  A    between atoms: C_7  and  C_8
REMARK                            x       y       z     vdW  Elec       q    Type
REMARK                         _______ _______ _______ _____ _____    ______ ____
ROOT
ATOM      1  C   UNL     1      46.618   4.832  14.084  0.00  0.00    +0.000 A 
ATOM      2  C   UNL     1      47.196   5.988  13.566  0.00  0.00    +0.000 A 
ATOM      3  C   UNL     1      48.225   6.620  14.263  0.00  0.00    +0.000 A 
ATOM      4  C   UNL     1      48.660   6.064  15.457  0.00  0.00    +0.000 A 
ATOM      5  N   UNL     1      48.139   4.925  15.992  0.00  0.00    +0.000 NA
ATOM      6  C   UNL     1      47.127   4.351  15.291  0.00  0.00    +0.000 A 
ENDROOT
BRANCH   4   7
ATOM      7  C   UNL     1      49.756   6.747  16.215  0.00  0.00    +0.000 C 
ATOM      8  N   UNL     1      50.690   7.394  15.453  0.00  0.00    +0.000 N 
ATOM      9  O   UNL     1      49.825   6.726  17.436  0.00  0.00    +0.000 OA
ATOM     10  H   UNL     1      50.617   7.379  14.444  0.00  0.00    +0.000 HD
ATOM     11  H   UNL     1      51.464   7.855  15.909  0.00  0.00    +0.000 HD
ENDBRANCH   4   7
BRANCH   1  12
ATOM     12  O   UNL     1      45.560   4.160  13.549  0.00  0.00    +0.000 OA
BRANCH  12  14
ATOM     13  C   UNL     1      43.170   4.539  13.104  0.00  0.00    +0.000 C 
ATOM     14  C   UNL     1      44.619   4.886  12.740  0.00  0.00    +0.000 C 
BRANCH  14  15
ATOM     15  C   UNL     1      44.884   4.488  11.293  0.00  0.00    +0.000 A 
ATOM     16  C   UNL     1      44.582   3.193  10.845  0.00  0.00    +0.000 A 
ATOM     17  C   UNL     1      44.837   2.821   9.522  0.00  0.00    +0.000 A 
ATOM     18  C   UNL     1      45.398   3.740   8.638  0.00  0.00    +0.000 A 
ATOM     19 CL   UNL     1      45.703   3.284   7.007  0.00  0.00    +0.000 Cl
ATOM     20  C   UNL     1      45.709   5.028   9.065  0.00  0.00    +0.000 A 
ATOM     21  C   UNL     1      45.450   5.401  10.385  0.00  0.00    +0.000 A 
ENDBRANCH  14  15
ENDBRANCH  12  14
ENDBRANCH   1  12
TORSDOF 4
ENDMDL
MODEL 8
REMARK VINA RESULT:    -5.836      4.552      6.544
REMARK INTER + INTRA:          -7.913
REMARK INTER:                  -7.389
REMARK INTRA:                  -0.524
REMARK UNBOUND:                -0.713
REMARK  Name = 
REMARK  5 active torsions:
REMARK  status: ('A' for Active; 'I' for Inactive)
REMARK    1  A    between atoms: C_1  and  C_2
REMARK    2  A    between atoms: C_2  and  O_3
REMARK    3  A    between atoms: C_2  and  C_13
REMARK    4  A    between atoms: O_3  and  C_4
REMARK    5  A    between atoms: C_7  and  C_8
REMARK                            x       y       z     vdW  Elec       q    Type
REMARK                         _______ _______ _______ _____ _____    ______ ____
ROOT
ATOM      1  C   UNL     1      47.118   4.769  14.409  0.00  0.00    +0.000 A 
ATOM      2  C   UNL     1      46.632   5.806  13.618  0.00  0.00    +0.000 A 
ATOM      3  C   UNL     1      45.839   5.519  12.508  0.00  0.00    +0.000 A 
ATOM      4  C   UNL     1      45.536   4.194  12.232  0.00  0.00    +0.000 A 
ATOM      5  N   UNL     1      45.972   3.148  12.987  0.00  0.00    +0.000 NA
ATOM      6  C   UNL     1      46.757   3.470  14.048  0.00  0.00    +0.000 A 
ENDROOT
BRANCH   4   7
ATOM      7  C   UNL     1      44.695   3.880  11.034  0.00  0.00    +0.000 C 
ATOM      8  N   UNL     1      44.769   2.593  10.578  0.00  0.00    +0.000 N 
ATOM      9  O   UNL     1      43.989   4.716  10.486  0.00  0.00    +0.000 OA
ATOM     10  H   UNL     1      45.375   1.927  11.041  0.00  0.00    +0.000 HD
ATOM     11  H   UNL     1      44.239   2.328   9.760  0.00  0.00    +0.000 HD
ENDBRANCH   4   7
BRANCH   1  12
ATOM     12  O   UNL     1      47.962   4.902  15.471  0.00  0.00    +0.000 OA
BRANCH  12  14
ATOM     13  C   UNL     1      47.168   4.774  17.797  0.00  0.00    +0.000 C 
ATOM     14  C   UNL     1      47.787   4.035  16.604  0.00  0.00    +0.000 C 
BRANCH  14  15
ATOM     15  C   UNL     1      49.173   3.530  16.989  0.00  0.00    +0.000 A 
ATOM     16  C   UNL     1      50.144   4.419  17.473  0.00  0.00    +0.000 A 
ATOM     17  C   UNL     1      51.420   3.962  17.813  0.00  0.00    +0.000 A 
ATOM     18  C   UNL     1      51.736   2.612  17.670  0.00  0.00    +0.000 A 
ATOM     19 CL   UNL     1      53.304   2.049  18.097  0.00  0.00    +0.000 Cl
ATOM     20  C   UNL     1      50.787   1.716  17.186  0.00  0.00    +0.000 A 
ATOM     21  C   UNL     1      49.511   2.172  16.851  0.00  0.00    +0.000 A 
ENDBRANCH  14  15
ENDBRANCH  12  14
ENDBRANCH   1  12
TORSDOF 4
ENDMDL
MODEL 9
REMARK VINA RESULT:    -5.482      4.301      6.486
REMARK INTER + INTRA:          -7.477
REMARK INTER:                  -6.975
REMARK INTRA:                  -0.502
REMARK UNBOUND:                -0.713
REMARK  Name = 
REMARK  5 active torsions:
REMARK  status: ('A' for Active; 'I' for Inactive)
REMARK    1  A    between atoms: C_1  and  C_2
REMARK    2  A    between atoms: C_2  and  O_3
REMARK    3  A    between atoms: C_2  and  C_13
REMARK    4  A    between atoms: O_3  and  C_4
REMARK    5  A    between atoms: C_7  and  C_8
REMARK                            x       y       z     vdW  Elec       q    Type
REMARK                         _______ _______ _______ _____ _____    ______ ____
ROOT
ATOM      1  C   UNL     1      46.932   5.587  13.612  0.00  0.00    +0.000 A 
ATOM      2  C   UNL     1      46.294   6.631  12.948  0.00  0.00    +0.000 A 
ATOM      3  C   UNL     1      45.044   6.422  12.368  0.00  0.00    +0.000 A 
ATOM      4  C   UNL     1      44.456   5.172  12.487  0.00  0.00    +0.000 A 
ATOM      5  N   UNL     1      45.032   4.127  13.144  0.00  0.00    +0.000 NA
ATOM      6  C   UNL     1      46.258   4.367  13.678  0.00  0.00    +0.000 A 
ENDROOT
BRANCH   4   7
ATOM      7  C   UNL     1      43.118   4.939  11.856  0.00  0.00    +0.000 C 
ATOM      8  N   UNL     1      42.274   6.015  11.842  0.00  0.00    +0.000 N 
ATOM      9  O   UNL     1      42.789   3.858  11.386  0.00  0.00    +0.000 OA
ATOM     10  H   UNL     1      42.567   6.892  12.255  0.00  0.00    +0.000 HD
ATOM     11  H   UNL     1      41.350   5.912  11.448  0.00  0.00    +0.000 HD
ENDBRANCH   4   7
BRANCH   1  12
ATOM     12  O   UNL     1      48.182   5.631  14.154  0.00  0.00    +0.000 OA
BRANCH  12  14
ATOM     13  C   UNL     1      49.886   7.322  14.696  0.00  0.00    +0.000 C 
ATOM     14  C   UNL     1      48.516   6.719  15.031  0.00  0.00    +0.000 C 
BRANCH  14  15
ATOM     15  C   UNL     1      48.548   6.151  16.445  0.00  0.00    +0.000 A 
ATOM     16  C   UNL     1      48.732   6.999  17.548  0.00  0.00    +0.000 A 
ATOM     17  C   UNL     1      48.778   6.479  18.845  0.00  0.00    +0.000 A 
ATOM     18  C   UNL     1      48.641   5.108  19.049  0.00  0.00    +0.000 A 
ATOM     19 CL   UNL     1      48.687   4.470  20.646  0.00  0.00    +0.000 Cl
ATOM     20  C   UNL     1      48.463   4.250  17.967  0.00  0.00    +0.000 A 
ATOM     21  C   UNL     1      48.413   4.769  16.672  0.00  0.00    +0.000 A 
ENDBRANCH  14  15
ENDBRANCH  12  14
ENDBRANCH   1  12
TORSDOF 4
ENDMDL
