MODEL 1
REMARK VINA RESULT:    -9.011      0.000      0.000
REMARK INTER + INTRA:         -13.810
REMARK INTER:                 -12.435
REMARK INTRA:                  -1.375
REMARK UNBOUND:                -1.375
REMARK  Name = 
REMARK  7 active torsions:
REMARK  status: ('A' for Active; 'I' for Inactive)
REMARK    1  A    between atoms: C_2  and  C_20
REMARK    2  A    between atoms: N_3  and  C_4
REMARK    3  A    between atoms: C_4  and  C_5
REMARK    4  A    between atoms: C_8  and  C_9
REMARK    5  A    between atoms: C_9  and  C_10
REMARK    6  A    between atoms: C_10  and  O_11
REMARK    7  A    between atoms: C_10  and  C_12
REMARK                            x       y       z     vdW  Elec       q    Type
REMARK                         _______ _______ _______ _____ _____    ______ ____
ROOT
ATOM      1  C   UNL     1      46.884   7.929  13.301  0.00  0.00    +0.000 C 
ENDROOT
BRANCH   1   2
ATOM      2  C   UNL     1      46.162   6.988  12.375  0.00  0.00    +0.000 A 
ATOM      3  C   UNL     1      44.940   6.439  12.767  0.00  0.00    +0.000 A 
ATOM      4  C   UNL     1      44.246   5.578  11.921  0.00  0.00    +0.000 A 
ATOM      5  C   UNL     1      44.737   5.263  10.648  0.00  0.00    +0.000 A 
ATOM      6  C   UNL     1      45.982   5.785  10.271  0.00  0.00    +0.000 A 
ATOM      7  C   UNL     1      46.694   6.628  11.131  0.00  0.00    +0.000 A 
BRANCH   5   8
ATOM      8  C   UNL     1      43.969   4.349   9.712  0.00  0.00    +0.000 C 
BRANCH   8   9
ATOM      9  C   UNL     1      44.505   2.901   9.582  0.00  0.00    +0.000 C 
BRANCH   9  10
ATOM     10  C   UNL     1      45.487   2.657   8.448  0.00  0.00    +0.000 A 
ATOM     11  C   UNL     1      45.761   3.634   7.477  0.00  0.00    +0.000 A 
ATOM     12  C   UNL     1      46.651   3.378   6.432  0.00  0.00    +0.000 A 
ATOM     13  C   UNL     1      47.286   2.144   6.342  0.00  0.00    +0.000 A 
ATOM     14  C   UNL     1      47.028   1.159   7.293  0.00  0.00    +0.000 A 
ATOM     15  C   UNL     1      46.142   1.416   8.342  0.00  0.00    +0.000 A 
ENDBRANCH   9  10
BRANCH   9  16
ATOM     16  O   UNL     1      45.028   2.475  10.845  0.00  0.00    +0.000 OA
ATOM     17  H   UNL     1      44.763   3.153  11.492  0.00  0.00    +0.000 HD
ENDBRANCH   9  16
ENDBRANCH   8   9
ENDBRANCH   5   8
ENDBRANCH   1   2
BRANCH   1  20
ATOM     18  O   UNL     1      49.478   6.898  13.657  0.00  0.00    +0.000 OA
ATOM     19  C   UNL     1      48.669   6.809  14.576  0.00  0.00    +0.000 C 
ATOM     20  N   UNL     1      47.375   7.253  14.472  0.00  0.00    +0.000 N 
ATOM     21  H   UNL     1      46.810   7.336  15.310  0.00  0.00    +0.000 HD
BRANCH  19  22
ATOM     22  C   UNL     1      49.029   6.162  15.842  0.00  0.00    +0.000 A 
ATOM     23  C   UNL     1      50.044   6.690  16.626  0.00  0.00    +0.000 A 
ATOM     24  S   UNL     1      50.314   5.822  18.068  0.00  0.00    +0.000 S 
ATOM     25  C   UNL     1      49.058   4.731  17.711  0.00  0.00    +0.000 A 
ATOM     26  N   UNL     1      48.725   3.740  18.577  0.00  0.00    +0.000 NA
ATOM     27  C   UNL     1      47.725   3.012  18.195  0.00  0.00    +0.000 A 
ATOM     28  N   UNL     1      47.048   3.175  17.015  0.00  0.00    +0.000 N 
ATOM     29  C   UNL     1      47.409   4.106  16.073  0.00  0.00    +0.000 A 
ATOM     30  O   UNL     1      46.881   4.127  14.964  0.00  0.00    +0.000 OA
ATOM     31  C   UNL     1      48.476   4.996  16.485  0.00  0.00    +0.000 A 
ATOM     32  H   UNL     1      46.300   2.550  16.760  0.00  0.00    +0.000 HD
ENDBRANCH  19  22
ENDBRANCH   1  20
TORSDOF 7
ENDMDL
MODEL 2
REMARK VINA RESULT:    -8.060      2.504      2.928
REMARK INTER + INTRA:         -12.497
REMARK INTER:                 -11.273
REMARK INTRA:                  -1.225
REMARK UNBOUND:                -1.375
REMARK  Name = 
REMARK  7 active torsions:
REMARK  status: ('A' for Active; 'I' for Inactive)
REMARK    1  A    between atoms: C_2  and  C_20
REMARK    2  A    between atoms: N_3  and  C_4
REMARK    3  A    between atoms: C_4  and  C_5
REMARK    4  A    between atoms: C_8  and  C_9
REMARK    5  A    between atoms: C_9  and  C_10
REMARK    6  A    between atoms: C_10  and  O_11
REMARK    7  A    between atoms: C_10  and  C_12
REMARK                            x       y       z     vdW  Elec       q    Type
REMARK                         _______ _______ _______ _____ _____    ______ ____
ROOT
ATOM      1  C   UNL     1      48.425   7.219  14.093  0.00  0.00    +0.000 C 
ENDROOT
BRANCH   1   2
ATOM      2  C   UNL     1      47.510   6.429  13.198  0.00  0.00    +0.000 A 
ATOM      3  C   UNL     1      47.003   5.205  13.639  0.00  0.00    +0.000 A 
ATOM      4  C   UNL     1      46.142   4.462  12.835  0.00  0.00    +0.000 A 
ATOM      5  C   UNL     1      45.739   4.934  11.580  0.00  0.00    +0.000 A 
ATOM      6  C   UNL     1      46.278   6.144  11.122  0.00  0.00    +0.000 A 
ATOM      7  C   UNL     1      47.165   6.878  11.917  0.00  0.00    +0.000 A 
BRANCH   5   8
ATOM      8  C   UNL     1      44.778   4.142  10.713  0.00  0.00    +0.000 C 
BRANCH   8   9
ATOM      9  C   UNL     1      44.886   4.378   9.186  0.00  0.00    +0.000 C 
BRANCH   9  10
ATOM     10  C   UNL     1      45.707   3.358   8.414  0.00  0.00    +0.000 A 
ATOM     11  C   UNL     1      46.564   3.733   7.366  0.00  0.00    +0.000 A 
ATOM     12  C   UNL     1      47.292   2.775   6.657  0.00  0.00    +0.000 A 
ATOM     13  C   UNL     1      47.181   1.428   6.987  0.00  0.00    +0.000 A 
ATOM     14  C   UNL     1      46.336   1.034   8.022  0.00  0.00    +0.000 A 
ATOM     15  C   UNL     1      45.611   1.992   8.735  0.00  0.00    +0.000 A 
ENDBRANCH   9  10
BRANCH   9  16
ATOM     16  O   UNL     1      43.572   4.536   8.637  0.00  0.00    +0.000 OA
ATOM     17  H   UNL     1      43.598   5.346   8.098  0.00  0.00    +0.000 HD
ENDBRANCH   9  16
ENDBRANCH   8   9
ENDBRANCH   5   8
ENDBRANCH   1   2
BRANCH   1  20
ATOM     18  O   UNL     1      50.354   6.316  15.931  0.00  0.00    +0.000 OA
ATOM     19  C   UNL     1      49.208   6.518  16.320  0.00  0.00    +0.000 C 
ATOM     20  N   UNL     1      48.199   6.923  15.482  0.00  0.00    +0.000 N 
ATOM     21  H   UNL     1      47.330   7.261  15.879  0.00  0.00    +0.000 HD
BRANCH  19  22
ATOM     22  C   UNL     1      48.828   6.279  17.716  0.00  0.00    +0.000 A 
ATOM     23  C   UNL     1      49.040   5.033  18.288  0.00  0.00    +0.000 A 
ATOM     24  S   UNL     1      48.557   4.941  19.921  0.00  0.00    +0.000 S 
ATOM     25  C   UNL     1      48.082   6.574  19.929  0.00  0.00    +0.000 A 
ATOM     26  N   UNL     1      47.607   7.158  21.059  0.00  0.00    +0.000 NA
ATOM     27  C   UNL     1      47.323   8.415  20.930  0.00  0.00    +0.000 A 
ATOM     28  N   UNL     1      47.450   9.128  19.767  0.00  0.00    +0.000 N 
ATOM     29  C   UNL     1      47.841   8.555  18.583  0.00  0.00    +0.000 A 
ATOM     30  O   UNL     1      47.799   9.183  17.528  0.00  0.00    +0.000 OA
ATOM     31  C   UNL     1      48.242   7.167  18.689  0.00  0.00    +0.000 A 
ATOM     32  H   UNL     1      47.177  10.097  19.724  0.00  0.00    +0.000 HD
ENDBRANCH  19  22
ENDBRANCH   1  20
TORSDOF 7
ENDMDL
MODEL 3
REMARK VINA RESULT:    -8.016      1.665      1.898
REMARK INTER + INTRA:         -12.437
REMARK INTER:                 -11.670
REMARK INTRA:                  -0.767
REMARK UNBOUND:                -1.375
REMARK  Name = 
REMARK  7 active torsions:
REMARK  status: ('A' for Active; 'I' for Inactive)
REMARK    1  A    between atoms: C_2  and  C_20
REMARK    2  A    between atoms: N_3  and  C_4
REMARK    3  A    between atoms: C_4  and  C_5
REMARK    4  A    between atoms: C_8  and  C_9
REMARK    5  A    between atoms: C_9  and  C_10
REMARK    6  A    between atoms: C_10  and  O_11
REMARK    7  A    between atoms: C_10  and  C_12
REMARK                            x       y       z     vdW  Elec       q    Type
REMARK                         _______ _______ _______ _____ _____    ______ ____
ROOT
ATOM      1  C   UNL     1      48.465   6.705  13.473  0.00  0.00    +0.000 C 
ENDROOT
BRANCH   1   2
ATOM      2  C   UNL     1      47.282   6.155  12.724  0.00  0.00    +0.000 A 
ATOM      3  C   UNL     1      46.650   4.999  13.190  0.00  0.00    +0.000 A 
ATOM      4  C   UNL     1      45.544   4.479  12.523  0.00  0.00    +0.000 A 
ATOM      5  C   UNL     1      45.019   5.112  11.390  0.00  0.00    +0.000 A 
ATOM      6  C   UNL     1      45.678   6.249  10.901  0.00  0.00    +0.000 A 
ATOM      7  C   UNL     1      46.805   6.757  11.554  0.00  0.00    +0.000 A 
BRANCH   5   8
ATOM      8  C   UNL     1      43.796   4.565  10.678  0.00  0.00    +0.000 C 
BRANCH   8   9
ATOM      9  C   UNL     1      43.944   3.153  10.057  0.00  0.00    +0.000 C 
BRANCH   9  10
ATOM     10  C   UNL     1      45.039   3.000   9.013  0.00  0.00    +0.000 A 
ATOM     11  C   UNL     1      45.484   4.082   8.237  0.00  0.00    +0.000 A 
ATOM     12  C   UNL     1      46.476   3.911   7.270  0.00  0.00    +0.000 A 
ATOM     13  C   UNL     1      47.046   2.658   7.066  0.00  0.00    +0.000 A 
ATOM     14  C   UNL     1      46.619   1.571   7.824  0.00  0.00    +0.000 A 
ATOM     15  C   UNL     1      45.630   1.741   8.796  0.00  0.00    +0.000 A 
ENDBRANCH   9  10
BRANCH   9  16
ATOM     16  O   UNL     1      44.062   2.185  11.105  0.00  0.00    +0.000 OA
ATOM     17  H   UNL     1      43.892   1.318  10.695  0.00  0.00    +0.000 HD
ENDBRANCH   9  16
ENDBRANCH   8   9
ENDBRANCH   5   8
ENDBRANCH   1   2
BRANCH   1  20
ATOM     18  O   UNL     1      50.446   6.778  15.470  0.00  0.00    +0.000 OA
ATOM     19  C   UNL     1      49.264   6.792  15.801  0.00  0.00    +0.000 C 
ATOM     20  N   UNL     1      48.237   6.722  14.893  0.00  0.00    +0.000 N 
ATOM     21  H   UNL     1      47.293   6.933  15.194  0.00  0.00    +0.000 HD
BRANCH  19  22
ATOM     22  C   UNL     1      48.873   6.828  17.214  0.00  0.00    +0.000 A 
ATOM     23  C   UNL     1      48.390   8.004  17.768  0.00  0.00    +0.000 A 
ATOM     24  S   UNL     1      47.967   7.859  19.414  0.00  0.00    +0.000 S 
ATOM     25  C   UNL     1      48.382   6.209  19.431  0.00  0.00    +0.000 A 
ATOM     26  N   UNL     1      48.214   5.458  20.549  0.00  0.00    +0.000 NA
ATOM     27  C   UNL     1      48.532   4.211  20.406  0.00  0.00    +0.000 A 
ATOM     28  N   UNL     1      49.023   3.659  19.252  0.00  0.00    +0.000 N 
ATOM     29  C   UNL     1      49.291   4.400  18.129  0.00  0.00    +0.000 A 
ATOM     30  O   UNL     1      49.872   3.908  17.164  0.00  0.00    +0.000 OA
ATOM     31  C   UNL     1      48.883   5.789  18.212  0.00  0.00    +0.000 A 
ATOM     32  H   UNL     1      49.286   2.687  19.217  0.00  0.00    +0.000 HD
ENDBRANCH  19  22
ENDBRANCH   1  20
TORSDOF 7
ENDMDL
MODEL 4
REMARK VINA RESULT:    -7.277      2.824      3.269
REMARK INTER + INTRA:         -11.417
REMARK INTER:                 -10.182
REMARK INTRA:                  -1.235
REMARK UNBOUND:                -1.375
REMARK  Name = 
REMARK  7 active torsions:
REMARK  status: ('A' for Active; 'I' for Inactive)
REMARK    1  A    between atoms: C_2  and  C_20
REMARK    2  A    between atoms: N_3  and  C_4
REMARK    3  A    between atoms: C_4  and  C_5
REMARK    4  A    between atoms: C_8  and  C_9
REMARK    5  A    between atoms: C_9  and  C_10
REMARK    6  A    between atoms: C_10  and  O_11
REMARK    7  A    between atoms: C_10  and  C_12
REMARK                            x       y       z     vdW  Elec       q    Type
REMARK                         _______ _______ _______ _____ _____    ______ ____
ROOT
ATOM      1  C   UNL     1      47.628   8.721  13.773  0.00  0.00    +0.000 C 
ENDROOT
BRANCH   1   2
ATOM      2  C   UNL     1      47.004   7.450  13.265  0.00  0.00    +0.000 A 
ATOM      3  C   UNL     1      47.365   6.229  13.840  0.00  0.00    +0.000 A 
ATOM      4  C   UNL     1      46.791   5.040  13.397  0.00  0.00    +0.000 A 
ATOM      5  C   UNL     1      45.819   5.038  12.389  0.00  0.00    +0.000 A 
ATOM      6  C   UNL     1      45.486   6.259  11.787  0.00  0.00    +0.000 A 
ATOM      7  C   UNL     1      46.082   7.452  12.212  0.00  0.00    +0.000 A 
BRANCH   5   8
ATOM      8  C   UNL     1      45.169   3.748  11.925  0.00  0.00    +0.000 C 
BRANCH   8   9
ATOM      9  C   UNL     1      44.424   3.811  10.568  0.00  0.00    +0.000 C 
BRANCH   9  10
ATOM     10  C   UNL     1      45.214   3.343   9.356  0.00  0.00    +0.000 A 
ATOM     11  C   UNL     1      45.431   1.981   9.091  0.00  0.00    +0.000 A 
ATOM     12  C   UNL     1      46.179   1.576   7.983  0.00  0.00    +0.000 A 
ATOM     13  C   UNL     1      46.717   2.524   7.118  0.00  0.00    +0.000 A 
ATOM     14  C   UNL     1      46.515   3.880   7.364  0.00  0.00    +0.000 A 
ATOM     15  C   UNL     1      45.762   4.286   8.469  0.00  0.00    +0.000 A 
ENDBRANCH   9  10
BRANCH   9  16
ATOM     16  O   UNL     1      43.169   3.133  10.685  0.00  0.00    +0.000 OA
ATOM     17  H   UNL     1      42.789   3.107   9.788  0.00  0.00    +0.000 HD
ENDBRANCH   9  16
ENDBRANCH   8   9
ENDBRANCH   5   8
ENDBRANCH   1   2
BRANCH   1  20
ATOM     18  O   UNL     1      49.394  10.054  15.511  0.00  0.00    +0.000 OA
ATOM     19  C   UNL     1      48.369   9.558  15.968  0.00  0.00    +0.000 C 
ATOM     20  N   UNL     1      47.474   8.859  15.197  0.00  0.00    +0.000 N 
ATOM     21  H   UNL     1      46.559   8.641  15.574  0.00  0.00    +0.000 HD
BRANCH  19  22
ATOM     22  C   UNL     1      48.063   9.634  17.400  0.00  0.00    +0.000 A 
ATOM     23  C   UNL     1      47.774  10.859  17.982  0.00  0.00    +0.000 A 
ATOM     24  S   UNL     1      47.425  10.757  19.648  0.00  0.00    +0.000 S 
ATOM     25  C   UNL     1      47.614   9.066  19.640  0.00  0.00    +0.000 A 
ATOM     26  N   UNL     1      47.406   8.335  20.765  0.00  0.00    +0.000 NA
ATOM     27  C   UNL     1      47.545   7.057  20.602  0.00  0.00    +0.000 A 
ATOM     28  N   UNL     1      47.895   6.455  19.422  0.00  0.00    +0.000 N 
ATOM     29  C   UNL     1      48.200   7.163  18.287  0.00  0.00    +0.000 A 
ATOM     30  O   UNL     1      48.656   6.606  17.292  0.00  0.00    +0.000 OA
ATOM     31  C   UNL     1      47.987   8.593  18.395  0.00  0.00    +0.000 A 
ATOM     32  H   UNL     1      48.022   5.456  19.372  0.00  0.00    +0.000 HD
ENDBRANCH  19  22
ENDBRANCH   1  20
TORSDOF 7
ENDMDL
MODEL 5
REMARK VINA RESULT:    -7.228      2.194      3.659
REMARK INTER + INTRA:         -11.349
REMARK INTER:                 -10.792
REMARK INTRA:                  -0.557
REMARK UNBOUND:                -1.375
REMARK  Name = 
REMARK  7 active torsions:
REMARK  status: ('A' for Active; 'I' for Inactive)
REMARK    1  A    between atoms: C_2  and  C_20
REMARK    2  A    between atoms: N_3  and  C_4
REMARK    3  A    between atoms: C_4  and  C_5
REMARK    4  A    between atoms: C_8  and  C_9
REMARK    5  A    between atoms: C_9  and  C_10
REMARK    6  A    between atoms: C_10  and  O_11
REMARK    7  A    between atoms: C_10  and  C_12
REMARK                            x       y       z     vdW  Elec       q    Type
REMARK                         _______ _______ _______ _____ _____    ______ ____
ROOT
ATOM      1  C   UNL     1      47.214   4.558  14.940  0.00  0.00    +0.000 C 
ENDROOT
BRANCH   1   2
ATOM      2  C   UNL     1      46.498   4.548  13.617  0.00  0.00    +0.000 A 
ATOM      3  C   UNL     1      45.987   3.347  13.119  0.00  0.00    +0.000 A 
ATOM      4  C   UNL     1      45.307   3.316  11.904  0.00  0.00    +0.000 A 
ATOM      5  C   UNL     1      45.092   4.485  11.165  0.00  0.00    +0.000 A 
ATOM      6  C   UNL     1      45.639   5.683  11.647  0.00  0.00    +0.000 A 
ATOM      7  C   UNL     1      46.346   5.712  12.853  0.00  0.00    +0.000 A 
BRANCH   5   8
ATOM      8  C   UNL     1      44.326   4.460   9.856  0.00  0.00    +0.000 C 
BRANCH   8   9
ATOM      9  C   UNL     1      44.262   3.092   9.131  0.00  0.00    +0.000 C 
BRANCH   9  10
ATOM     10  C   UNL     1      45.484   2.721   8.307  0.00  0.00    +0.000 A 
ATOM     11  C   UNL     1      46.161   3.662   7.515  0.00  0.00    +0.000 A 
ATOM     12  C   UNL     1      47.269   3.292   6.750  0.00  0.00    +0.000 A 
ATOM     13  C   UNL     1      47.723   1.976   6.768  0.00  0.00    +0.000 A 
ATOM     14  C   UNL     1      47.066   1.026   7.545  0.00  0.00    +0.000 A 
ATOM     15  C   UNL     1      45.960   1.397   8.316  0.00  0.00    +0.000 A 
ENDBRANCH   9  10
BRANCH   9  16
ATOM     16  O   UNL     1      43.921   2.071  10.075  0.00  0.00    +0.000 OA
ATOM     17  H   UNL     1      43.401   1.410   9.585  0.00  0.00    +0.000 HD
ENDBRANCH   9  16
ENDBRANCH   8   9
ENDBRANCH   5   8
ENDBRANCH   1   2
BRANCH   1  20
ATOM     18  O   UNL     1      49.362   5.095  16.676  0.00  0.00    +0.000 OA
ATOM     19  C   UNL     1      48.830   6.026  16.080  0.00  0.00    +0.000 C 
ATOM     20  N   UNL     1      47.754   5.855  15.244  0.00  0.00    +0.000 N 
ATOM     21  H   UNL     1      47.477   6.613  14.631  0.00  0.00    +0.000 HD
BRANCH  19  22
ATOM     22  C   UNL     1      49.283   7.407  16.273  0.00  0.00    +0.000 A 
ATOM     23  C   UNL     1      49.276   7.967  17.541  0.00  0.00    +0.000 A 
ATOM     24  S   UNL     1      49.852   9.572  17.582  0.00  0.00    +0.000 S 
ATOM     25  C   UNL     1      50.164   9.560  15.910  0.00  0.00    +0.000 A 
ATOM     26  N   UNL     1      50.720  10.635  15.295  0.00  0.00    +0.000 NA
ATOM     27  C   UNL     1      50.939  10.470  14.029  0.00  0.00    +0.000 A 
ATOM     28  N   UNL     1      50.630   9.336  13.326  0.00  0.00    +0.000 N 
ATOM     29  C   UNL     1      49.988   8.263  13.890  0.00  0.00    +0.000 A 
ATOM     30  O   UNL     1      49.589   7.326  13.202  0.00  0.00    +0.000 OA
ATOM     31  C   UNL     1      49.787   8.366  15.321  0.00  0.00    +0.000 A 
ATOM     32  H   UNL     1      50.794   9.285  12.332  0.00  0.00    +0.000 HD
ENDBRANCH  19  22
ENDBRANCH   1  20
TORSDOF 7
ENDMDL
MODEL 6
REMARK VINA RESULT:    -7.162      2.811      3.506
REMARK INTER + INTRA:         -11.259
REMARK INTER:                 -10.731
REMARK INTRA:                  -0.527
REMARK UNBOUND:                -1.375
REMARK  Name = 
REMARK  7 active torsions:
REMARK  status: ('A' for Active; 'I' for Inactive)
REMARK    1  A    between atoms: C_2  and  C_20
REMARK    2  A    between atoms: N_3  and  C_4
REMARK    3  A    between atoms: C_4  and  C_5
REMARK    4  A    between atoms: C_8  and  C_9
REMARK    5  A    between atoms: C_9  and  C_10
REMARK    6  A    between atoms: C_10  and  O_11
REMARK    7  A    between atoms: C_10  and  C_12
REMARK                            x       y       z     vdW  Elec       q    Type
REMARK                         _______ _______ _______ _____ _____    ______ ____
ROOT
ATOM      1  C   UNL     1      47.869   5.134  14.754  0.00  0.00    +0.000 C 
ENDROOT
BRANCH   1   2
ATOM      2  C   UNL     1      46.910   4.976  13.605  0.00  0.00    +0.000 A 
ATOM      3  C   UNL     1      46.760   6.016  12.685  0.00  0.00    +0.000 A 
ATOM      4  C   UNL     1      45.891   5.888  11.605  0.00  0.00    +0.000 A 
ATOM      5  C   UNL     1      45.167   4.708  11.396  0.00  0.00    +0.000 A 
ATOM      6  C   UNL     1      45.289   3.680  12.341  0.00  0.00    +0.000 A 
ATOM      7  C   UNL     1      46.142   3.817  13.441  0.00  0.00    +0.000 A 
BRANCH   5   8
ATOM      8  C   UNL     1      44.242   4.553  10.204  0.00  0.00    +0.000 C 
BRANCH   8   9
ATOM      9  C   UNL     1      44.216   3.154   9.539  0.00  0.00    +0.000 C 
BRANCH   9  10
ATOM     10  C   UNL     1      45.366   2.848   8.594  0.00  0.00    +0.000 A 
ATOM     11  C   UNL     1      45.963   3.842   7.802  0.00  0.00    +0.000 A 
ATOM     12  C   UNL     1      47.005   3.532   6.926  0.00  0.00    +0.000 A 
ATOM     13  C   UNL     1      47.472   2.225   6.829  0.00  0.00    +0.000 A 
ATOM     14  C   UNL     1      46.893   1.223   7.604  0.00  0.00    +0.000 A 
ATOM     15  C   UNL     1      45.855   1.533   8.486  0.00  0.00    +0.000 A 
ENDBRANCH   9  10
BRANCH   9  16
ATOM     16  O   UNL     1      44.071   2.151  10.551  0.00  0.00    +0.000 OA
ATOM     17  H   UNL     1      44.039   1.297  10.085  0.00  0.00    +0.000 HD
ENDBRANCH   9  16
ENDBRANCH   8   9
ENDBRANCH   5   8
ENDBRANCH   1   2
BRANCH   1  20
ATOM     18  O   UNL     1      50.146   6.667  15.369  0.00  0.00    +0.000 OA
ATOM     19  C   UNL     1      49.034   7.169  15.506  0.00  0.00    +0.000 C 
ATOM     20  N   UNL     1      47.873   6.479  15.264  0.00  0.00    +0.000 N 
ATOM     21  H   UNL     1      46.998   6.987  15.202  0.00  0.00    +0.000 HD
BRANCH  19  22
ATOM     22  C   UNL     1      48.878   8.541  15.999  0.00  0.00    +0.000 A 
ATOM     23  C   UNL     1      49.301   9.609  15.222  0.00  0.00    +0.000 A 
ATOM     24  S   UNL     1      49.024  11.129  15.942  0.00  0.00    +0.000 S 
ATOM     25  C   UNL     1      48.297  10.412  17.303  0.00  0.00    +0.000 A 
ATOM     26  N   UNL     1      47.786  11.173  18.305  0.00  0.00    +0.000 NA
ATOM     27  C   UNL     1      47.226  10.496  19.256  0.00  0.00    +0.000 A 
ATOM     28  N   UNL     1      47.155   9.128  19.302  0.00  0.00    +0.000 N 
ATOM     29  C   UNL     1      47.736   8.322  18.356  0.00  0.00    +0.000 A 
ATOM     30  O   UNL     1      47.787   7.103  18.503  0.00  0.00    +0.000 OA
ATOM     31  C   UNL     1      48.311   9.031  17.231  0.00  0.00    +0.000 A 
ATOM     32  H   UNL     1      46.737   8.660  20.091  0.00  0.00    +0.000 HD
ENDBRANCH  19  22
ENDBRANCH   1  20
TORSDOF 7
ENDMDL
MODEL 7
REMARK VINA RESULT:    -6.959      4.478      8.980
REMARK INTER + INTRA:         -10.979
REMARK INTER:                  -9.934
REMARK INTRA:                  -1.045
REMARK UNBOUND:                -1.375
REMARK  Name = 
REMARK  7 active torsions:
REMARK  status: ('A' for Active; 'I' for Inactive)
REMARK    1  A    between atoms: C_2  and  C_20
REMARK    2  A    between atoms: N_3  and  C_4
REMARK    3  A    between atoms: C_4  and  C_5
REMARK    4  A    between atoms: C_8  and  C_9
REMARK    5  A    between atoms: C_9  and  C_10
REMARK    6  A    between atoms: C_10  and  O_11
REMARK    7  A    between atoms: C_10  and  C_12
REMARK                            x       y       z     vdW  Elec       q    Type
REMARK                         _______ _______ _______ _____ _____    ______ ____
ROOT
ATOM      1  C   UNL     1      47.152   3.580  16.872  0.00  0.00    +0.000 C 
ENDROOT
BRANCH   1   2
ATOM      2  C   UNL     1      48.616   3.678  17.207  0.00  0.00    +0.000 A 
ATOM      3  C   UNL     1      49.420   2.539  17.118  0.00  0.00    +0.000 A 
ATOM      4  C   UNL     1      50.780   2.607  17.408  0.00  0.00    +0.000 A 
ATOM      5  C   UNL     1      51.383   3.819  17.767  0.00  0.00    +0.000 A 
ATOM      6  C   UNL     1      50.568   4.952  17.894  0.00  0.00    +0.000 A 
ATOM      7  C   UNL     1      49.196   4.880  17.629  0.00  0.00    +0.000 A 
BRANCH   5   8
ATOM      8  C   UNL     1      52.870   3.903  18.055  0.00  0.00    +0.000 C 
BRANCH   8   9
ATOM      9  C   UNL     1      53.514   2.644  18.689  0.00  0.00    +0.000 C 
BRANCH   9  10
ATOM     10  C   UNL     1      54.187   1.685  17.721  0.00  0.00    +0.000 A 
ATOM     11  C   UNL     1      55.186   2.109  16.828  0.00  0.00    +0.000 A 
ATOM     12  C   UNL     1      55.775   1.213  15.933  0.00  0.00    +0.000 A 
ATOM     13  C   UNL     1      55.381  -0.121  15.918  0.00  0.00    +0.000 A 
ATOM     14  C   UNL     1      54.392  -0.562  16.794  0.00  0.00    +0.000 A 
ATOM     15  C   UNL     1      53.805   0.332  17.694  0.00  0.00    +0.000 A 
ENDBRANCH   9  10
BRANCH   9  16
ATOM     16  O   UNL     1      54.391   3.043  19.747  0.00  0.00    +0.000 OA
ATOM     17  H   UNL     1      54.954   2.272  19.939  0.00  0.00    +0.000 HD
ENDBRANCH   9  16
ENDBRANCH   8   9
ENDBRANCH   5   8
ENDBRANCH   1   2
BRANCH   1  20
ATOM     18  O   UNL     1      47.151   3.119  14.096  0.00  0.00    +0.000 OA
ATOM     19  C   UNL     1      46.770   4.205  14.520  0.00  0.00    +0.000 C 
ATOM     20  N   UNL     1      46.774   4.525  15.855  0.00  0.00    +0.000 N 
ATOM     21  H   UNL     1      46.273   5.348  16.170  0.00  0.00    +0.000 HD
BRANCH  19  22
ATOM     22  C   UNL     1      46.334   5.265  13.606  0.00  0.00    +0.000 A 
ATOM     23  C   UNL     1      47.191   6.311  13.299  0.00  0.00    +0.000 A 
ATOM     24  S   UNL     1      46.527   7.440  12.208  0.00  0.00    +0.000 S 
ATOM     25  C   UNL     1      45.083   6.549  12.080  0.00  0.00    +0.000 A 
ATOM     26  N   UNL     1      44.085   6.950  11.252  0.00  0.00    +0.000 NA
ATOM     27  C   UNL     1      43.064   6.155  11.224  0.00  0.00    +0.000 A 
ATOM     28  N   UNL     1      42.946   5.010  11.969  0.00  0.00    +0.000 N 
ATOM     29  C   UNL     1      43.892   4.617  12.882  0.00  0.00    +0.000 A 
ATOM     30  O   UNL     1      43.690   3.673  13.641  0.00  0.00    +0.000 OA
ATOM     31  C   UNL     1      45.089   5.433  12.898  0.00  0.00    +0.000 A 
ATOM     32  H   UNL     1      42.107   4.453  11.928  0.00  0.00    +0.000 HD
ENDBRANCH  19  22
ENDBRANCH   1  20
TORSDOF 7
ENDMDL
MODEL 8
REMARK VINA RESULT:    -6.881      3.718      7.814
REMARK INTER + INTRA:         -10.871
REMARK INTER:                  -9.120
REMARK INTRA:                  -1.752
REMARK UNBOUND:                -1.375
REMARK  Name = 
REMARK  7 active torsions:
REMARK  status: ('A' for Active; 'I' for Inactive)
REMARK    1  A    between atoms: C_2  and  C_20
REMARK    2  A    between atoms: N_3  and  C_4
REMARK    3  A    between atoms: C_4  and  C_5
REMARK    4  A    between atoms: C_8  and  C_9
REMARK    5  A    between atoms: C_9  and  C_10
REMARK    6  A    between atoms: C_10  and  O_11
REMARK    7  A    between atoms: C_10  and  C_12
REMARK                            x       y       z     vdW  Elec       q    Type
REMARK                         _______ _______ _______ _____ _____    ______ ____
ROOT
ATOM      1  C   UNL     1      48.059   8.827  14.165  0.00  0.00    +0.000 C 
ENDROOT
BRANCH   1   2
ATOM      2  C   UNL     1      48.696   8.184  15.367  0.00  0.00    +0.000 A 
ATOM      3  C   UNL     1      49.663   7.192  15.187  0.00  0.00    +0.000 A 
ATOM      4  C   UNL     1      50.277   6.593  16.284  0.00  0.00    +0.000 A 
ATOM      5  C   UNL     1      49.965   6.986  17.591  0.00  0.00    +0.000 A 
ATOM      6  C   UNL     1      48.967   7.953  17.771  0.00  0.00    +0.000 A 
ATOM      7  C   UNL     1      48.329   8.537  16.671  0.00  0.00    +0.000 A 
BRANCH   5   8
ATOM      8  C   UNL     1      50.653   6.357  18.787  0.00  0.00    +0.000 C 
BRANCH   8   9
ATOM      9  C   UNL     1      49.963   5.108  19.391  0.00  0.00    +0.000 C 
BRANCH   9  10
ATOM     10  C   UNL     1      49.308   4.166  18.394  0.00  0.00    +0.000 A 
ATOM     11  C   UNL     1      50.037   3.174  17.718  0.00  0.00    +0.000 A 
ATOM     12  C   UNL     1      49.416   2.335  16.790  0.00  0.00    +0.000 A 
ATOM     13  C   UNL     1      48.057   2.467  16.527  0.00  0.00    +0.000 A 
ATOM     14  C   UNL     1      47.315   3.445  17.185  0.00  0.00    +0.000 A 
ATOM     15  C   UNL     1      47.933   4.282  18.118  0.00  0.00    +0.000 A 
ENDBRANCH   9  10
BRANCH   9  16
ATOM     16  O   UNL     1      50.884   4.426  20.249  0.00  0.00    +0.000 OA
ATOM     17  H   UNL     1      51.038   5.016  21.008  0.00  0.00    +0.000 HD
ENDBRANCH   9  16
ENDBRANCH   8   9
ENDBRANCH   5   8
ENDBRANCH   1   2
BRANCH   1  20
ATOM     18  O   UNL     1      47.933   7.209  11.866  0.00  0.00    +0.000 OA
ATOM     19  C   UNL     1      46.946   7.293  12.591  0.00  0.00    +0.000 C 
ATOM     20  N   UNL     1      46.912   8.088  13.710  0.00  0.00    +0.000 N 
ATOM     21  H   UNL     1      46.156   7.975  14.376  0.00  0.00    +0.000 HD
BRANCH  19  22
ATOM     22  C   UNL     1      45.706   6.581  12.268  0.00  0.00    +0.000 A 
ATOM     23  C   UNL     1      44.641   7.267  11.705  0.00  0.00    +0.000 A 
ATOM     24  S   UNL     1      43.289   6.281  11.379  0.00  0.00    +0.000 S 
ATOM     25  C   UNL     1      44.096   4.895  11.947  0.00  0.00    +0.000 A 
ATOM     26  N   UNL     1      43.502   3.674  11.906  0.00  0.00    +0.000 NA
ATOM     27  C   UNL     1      44.248   2.705  12.332  0.00  0.00    +0.000 A 
ATOM     28  N   UNL     1      45.521   2.855  12.816  0.00  0.00    +0.000 N 
ATOM     29  C   UNL     1      46.123   4.080  12.958  0.00  0.00    +0.000 A 
ATOM     30  O   UNL     1      47.202   4.196  13.534  0.00  0.00    +0.000 OA
ATOM     31  C   UNL     1      45.359   5.191  12.425  0.00  0.00    +0.000 A 
ATOM     32  H   UNL     1      46.035   2.062  13.168  0.00  0.00    +0.000 HD
ENDBRANCH  19  22
ENDBRANCH   1  20
TORSDOF 7
ENDMDL
MODEL 9
REMARK VINA RESULT:    -6.769      3.595      7.853
REMARK INTER + INTRA:         -10.716
REMARK INTER:                  -9.187
REMARK INTRA:                  -1.529
REMARK UNBOUND:                -1.375
REMARK  Name = 
REMARK  7 active torsions:
REMARK  status: ('A' for Active; 'I' for Inactive)
REMARK    1  A    between atoms: C_2  and  C_20
REMARK    2  A    between atoms: N_3  and  C_4
REMARK    3  A    between atoms: C_4  and  C_5
REMARK    4  A    between atoms: C_8  and  C_9
REMARK    5  A    between atoms: C_9  and  C_10
REMARK    6  A    between atoms: C_10  and  O_11
REMARK    7  A    between atoms: C_10  and  C_12
REMARK                            x       y       z     vdW  Elec       q    Type
REMARK                         _______ _______ _______ _____ _____    ______ ____
ROOT
ATOM      1  C   UNL     1      47.894   8.346  12.235  0.00  0.00    +0.000 C 
ENDROOT
BRANCH   1   2
ATOM      2  C   UNL     1      48.390   8.126  13.637  0.00  0.00    +0.000 A 
ATOM      3  C   UNL     1      47.856   8.882  14.683  0.00  0.00    +0.000 A 
ATOM      4  C   UNL     1      48.289   8.686  15.992  0.00  0.00    +0.000 A 
ATOM      5  C   UNL     1      49.246   7.712  16.299  0.00  0.00    +0.000 A 
ATOM      6  C   UNL     1      49.809   6.980  15.244  0.00  0.00    +0.000 A 
ATOM      7  C   UNL     1      49.395   7.194  13.925  0.00  0.00    +0.000 A 
BRANCH   5   8
ATOM      8  C   UNL     1      49.698   7.475  17.728  0.00  0.00    +0.000 C 
BRANCH   8   9
ATOM      9  C   UNL     1      48.817   6.520  18.572  0.00  0.00    +0.000 C 
BRANCH   9  10
ATOM     10  C   UNL     1      48.668   5.106  18.034  0.00  0.00    +0.000 A 
ATOM     11  C   UNL     1      49.773   4.257  17.857  0.00  0.00    +0.000 A 
ATOM     12  C   UNL     1      49.614   2.970  17.340  0.00  0.00    +0.000 A 
ATOM     13  C   UNL     1      48.347   2.506  16.997  0.00  0.00    +0.000 A 
ATOM     14  C   UNL     1      47.238   3.332  17.162  0.00  0.00    +0.000 A 
ATOM     15  C   UNL     1      47.395   4.618  17.685  0.00  0.00    +0.000 A 
ENDBRANCH   9  10
BRANCH   9  16
ATOM     16  O   UNL     1      49.271   6.532  19.930  0.00  0.00    +0.000 OA
ATOM     17  H   UNL     1      49.654   5.653  20.097  0.00  0.00    +0.000 HD
ENDBRANCH   9  16
ENDBRANCH   8   9
ENDBRANCH   5   8
ENDBRANCH   1   2
BRANCH   1  20
ATOM     18  O   UNL     1      45.180   8.076  11.542  0.00  0.00    +0.000 OA
ATOM     19  C   UNL     1      45.940   7.131  11.356  0.00  0.00    +0.000 C 
ATOM     20  N   UNL     1      47.268   7.166  11.700  0.00  0.00    +0.000 N 
ATOM     21  H   UNL     1      47.890   6.445  11.352  0.00  0.00    +0.000 HD
BRANCH  19  22
ATOM     22  C   UNL     1      45.452   5.865  10.798  0.00  0.00    +0.000 A 
ATOM     23  C   UNL     1      45.762   5.520   9.491  0.00  0.00    +0.000 A 
ATOM     24  S   UNL     1      45.130   4.010   9.016  0.00  0.00    +0.000 S 
ATOM     25  C   UNL     1      44.450   3.749  10.554  0.00  0.00    +0.000 A 
ATOM     26  N   UNL     1      43.792   2.597  10.841  0.00  0.00    +0.000 NA
ATOM     27  C   UNL     1      43.364   2.519  12.061  0.00  0.00    +0.000 A 
ATOM     28  N   UNL     1      43.518   3.499  13.006  0.00  0.00    +0.000 N 
ATOM     29  C   UNL     1      44.097   4.711  12.732  0.00  0.00    +0.000 A 
ATOM     30  O   UNL     1      44.085   5.624  13.554  0.00  0.00    +0.000 OA
ATOM     31  C   UNL     1      44.660   4.822  11.401  0.00  0.00    +0.000 A 
ATOM     32  H   UNL     1      43.128   3.390  13.929  0.00  0.00    +0.000 HD
ENDBRANCH  19  22
ENDBRANCH   1  20
TORSDOF 7
ENDMDL
