MODEL 1
REMARK VINA RESULT:    -8.282      0.000      0.000
REMARK INTER + INTRA:         -13.718
REMARK INTER:                 -12.881
REMARK INTRA:                  -0.837
REMARK UNBOUND:                -0.837
REMARK  Name = 
REMARK  10 active torsions:
REMARK  status: ('A' for Active; 'I' for Inactive)
REMARK    1  A    between atoms: N_1  and  C_2
REMARK    2  A    between atoms: C_2  and  C_3
REMARK    3  A    between atoms: C_3  and  N_4
REMARK    4  A    between atoms: C_3  and  C_20
REMARK    5  A    between atoms: N_4  and  C_5
REMARK    6  A    between atoms: C_5  and  C_6
REMARK    7  A    between atoms: C_9  and  C_10
REMARK    8  A    between atoms: C_10  and  O_11
REMARK    9  A    between atoms: O_11  and  C_12
REMARK   10  A    between atoms: C_12  and  C_13
REMARK                            x       y       z     vdW  Elec       q    Type
REMARK                         _______ _______ _______ _____ _____    ______ ____
ROOT
ATOM      1  N   UNL     1      47.977   5.980  16.050  0.00  0.00    +0.000 NA
ATOM      2  H   UNL     1      48.602   6.638  16.526  0.00  0.00    +0.000 HD
ENDROOT
BRANCH   1   3
ATOM      3  C   UNL     1      48.166   4.642  16.642  0.00  0.00    +0.000 C 
BRANCH   3   4
ATOM      4  C   UNL     1      49.542   4.610  17.296  0.00  0.00    +0.000 A 
ATOM      5  C   UNL     1      50.130   5.660  17.989  0.00  0.00    +0.000 A 
ATOM      6  S   UNL     1      51.668   5.277  18.625  0.00  0.00    +0.000 S 
ATOM      7  C   UNL     1      51.579   3.683  18.034  0.00  0.00    +0.000 A 
ATOM      8  N   UNL     1      52.578   2.789  18.261  0.00  0.00    +0.000 NA
ATOM      9  C   UNL     1      52.355   1.612  17.775  0.00  0.00    +0.000 A 
ATOM     10  N   UNL     1      51.229   1.251  17.076  0.00  0.00    +0.000 N 
ATOM     11  C   UNL     1      50.199   2.122  16.810  0.00  0.00    +0.000 A 
ATOM     12  O   UNL     1      49.204   1.774  16.182  0.00  0.00    +0.000 OA
ATOM     13  C   UNL     1      50.404   3.455  17.346  0.00  0.00    +0.000 A 
ATOM     14  H   UNL     1      51.117   0.312  16.725  0.00  0.00    +0.000 HD
ENDBRANCH   3   4
BRANCH   3  15
ATOM     15  C   UNL     1      47.054   4.248  17.670  0.00  0.00    +0.000 C 
BRANCH  15  16
ATOM     16  N   UNL     1      46.672   2.829  17.645  0.00  0.00    +0.000 NA
ATOM     17  H   UNL     1      45.660   2.736  17.621  0.00  0.00    +0.000 HD
ATOM     18  H   UNL     1      47.015   2.383  18.498  0.00  0.00    +0.000 HD
ENDBRANCH  15  16
ENDBRANCH   3  15
ENDBRANCH   1   3
BRANCH   1  19
ATOM     19  C   UNL     1      48.343   6.027  14.631  0.00  0.00    +0.000 C 
BRANCH  19  20
ATOM     20  C   UNL     1      47.285   5.362  13.775  0.00  0.00    +0.000 A 
ATOM     21  C   UNL     1      46.484   6.127  12.930  0.00  0.00    +0.000 A 
ATOM     22  C   UNL     1      45.520   5.489  12.154  0.00  0.00    +0.000 A 
ATOM     23  C   UNL     1      45.376   4.105  12.238  0.00  0.00    +0.000 A 
ATOM     24  C   UNL     1      46.225   3.423  13.107  0.00  0.00    +0.000 A 
ATOM     25  N   UNL     1      47.167   4.013  13.874  0.00  0.00    +0.000 NA
BRANCH  23  26
ATOM     26  C   UNL     1      44.342   3.361  11.449  0.00  0.00    +0.000 C 
BRANCH  26  27
ATOM     27  O   UNL     1      44.708   3.475  10.083  0.00  0.00    +0.000 OA
BRANCH  27  28
ATOM     28  C   UNL     1      44.604   2.244   9.377  0.00  0.00    +0.000 C 
BRANCH  28  29
ATOM     29  C   UNL     1      45.697   2.243   8.376  0.00  0.00    +0.000 A 
ATOM     30  C   UNL     1      46.215   3.204   7.529  0.00  0.00    +0.000 A 
ATOM     31  C   UNL     1      47.258   2.583   6.805  0.00  0.00    +0.000 A 
ATOM     32  C   UNL     1      47.316   1.285   7.253  0.00  0.00    +0.000 A 
ATOM     33  O   UNL     1      46.372   1.066   8.209  0.00  0.00    +0.000 OA
ENDBRANCH  28  29
ENDBRANCH  27  28
ENDBRANCH  26  27
ENDBRANCH  23  26
ENDBRANCH  19  20
ENDBRANCH   1  19
TORSDOF 10
ENDMDL
MODEL 2
REMARK VINA RESULT:    -7.897      1.770      2.206
REMARK INTER + INTRA:         -13.119
REMARK INTER:                 -12.038
REMARK INTRA:                  -1.081
REMARK UNBOUND:                -0.837
REMARK  Name = 
REMARK  10 active torsions:
REMARK  status: ('A' for Active; 'I' for Inactive)
REMARK    1  A    between atoms: N_1  and  C_2
REMARK    2  A    between atoms: C_2  and  C_3
REMARK    3  A    between atoms: C_3  and  N_4
REMARK    4  A    between atoms: C_3  and  C_20
REMARK    5  A    between atoms: N_4  and  C_5
REMARK    6  A    between atoms: C_5  and  C_6
REMARK    7  A    between atoms: C_9  and  C_10
REMARK    8  A    between atoms: C_10  and  O_11
REMARK    9  A    between atoms: O_11  and  C_12
REMARK   10  A    between atoms: C_12  and  C_13
REMARK                            x       y       z     vdW  Elec       q    Type
REMARK                         _______ _______ _______ _____ _____    ______ ____
ROOT
ATOM      1  N   UNL     1      47.193   5.131  15.760  0.00  0.00    +0.000 NA
ATOM      2  H   UNL     1      47.001   5.976  16.308  0.00  0.00    +0.000 HD
ENDROOT
BRANCH   1   3
ATOM      3  C   UNL     1      48.226   4.345  16.459  0.00  0.00    +0.000 C 
BRANCH   3   4
ATOM      4  C   UNL     1      48.323   4.866  17.888  0.00  0.00    +0.000 A 
ATOM      5  C   UNL     1      47.281   5.422  18.616  0.00  0.00    +0.000 A 
ATOM      6  S   UNL     1      47.723   5.873  20.203  0.00  0.00    +0.000 S 
ATOM      7  C   UNL     1      49.311   5.300  19.983  0.00  0.00    +0.000 A 
ATOM      8  N   UNL     1      50.228   5.354  20.987  0.00  0.00    +0.000 NA
ATOM      9  C   UNL     1      51.379   4.855  20.680  0.00  0.00    +0.000 A 
ATOM     10  N   UNL     1      51.702   4.315  19.459  0.00  0.00    +0.000 N 
ATOM     11  C   UNL     1      50.815   4.249  18.410  0.00  0.00    +0.000 A 
ATOM     12  O   UNL     1      51.129   3.762  17.328  0.00  0.00    +0.000 OA
ATOM     13  C   UNL     1      49.504   4.791  18.714  0.00  0.00    +0.000 A 
ATOM     14  H   UNL     1      52.622   3.940  19.285  0.00  0.00    +0.000 HD
ENDBRANCH   3   4
BRANCH   3  15
ATOM     15  C   UNL     1      47.957   2.803  16.448  0.00  0.00    +0.000 C 
BRANCH  15  16
ATOM     16  N   UNL     1      49.113   1.982  16.059  0.00  0.00    +0.000 NA
ATOM     17  H   UNL     1      49.931   2.245  16.602  0.00  0.00    +0.000 HD
ATOM     18  H   UNL     1      49.314   2.149  15.073  0.00  0.00    +0.000 HD
ENDBRANCH  15  16
ENDBRANCH   3  15
ENDBRANCH   1   3
BRANCH   1  19
ATOM     19  C   UNL     1      47.632   5.595  14.440  0.00  0.00    +0.000 C 
BRANCH  19  20
ATOM     20  C   UNL     1      46.613   5.247  13.375  0.00  0.00    +0.000 A 
ATOM     21  C   UNL     1      46.334   6.149  12.351  0.00  0.00    +0.000 A 
ATOM     22  C   UNL     1      45.393   5.803  11.385  0.00  0.00    +0.000 A 
ATOM     23  C   UNL     1      44.752   4.567  11.463  0.00  0.00    +0.000 A 
ATOM     24  C   UNL     1      45.099   3.729  12.519  0.00  0.00    +0.000 A 
ATOM     25  N   UNL     1      46.005   4.037  13.473  0.00  0.00    +0.000 NA
BRANCH  23  26
ATOM     26  C   UNL     1      43.712   4.144  10.470  0.00  0.00    +0.000 C 
BRANCH  26  27
ATOM     27  O   UNL     1      44.401   3.785   9.283  0.00  0.00    +0.000 OA
BRANCH  27  28
ATOM     28  C   UNL     1      44.641   2.386   9.183  0.00  0.00    +0.000 C 
BRANCH  28  29
ATOM     29  C   UNL     1      45.773   2.222   8.240  0.00  0.00    +0.000 A 
ATOM     30  C   UNL     1      46.400   3.070   7.347  0.00  0.00    +0.000 A 
ATOM     31  C   UNL     1      47.421   2.317   6.726  0.00  0.00    +0.000 A 
ATOM     32  C   UNL     1      47.359   1.058   7.276  0.00  0.00    +0.000 A 
ATOM     33  O   UNL     1      46.360   0.989   8.198  0.00  0.00    +0.000 OA
ENDBRANCH  28  29
ENDBRANCH  27  28
ENDBRANCH  26  27
ENDBRANCH  23  26
ENDBRANCH  19  20
ENDBRANCH   1  19
TORSDOF 10
ENDMDL
MODEL 3
REMARK VINA RESULT:    -7.483      1.753      2.357
REMARK INTER + INTRA:         -12.476
REMARK INTER:                 -11.325
REMARK INTRA:                  -1.151
REMARK UNBOUND:                -0.837
REMARK  Name = 
REMARK  10 active torsions:
REMARK  status: ('A' for Active; 'I' for Inactive)
REMARK    1  A    between atoms: N_1  and  C_2
REMARK    2  A    between atoms: C_2  and  C_3
REMARK    3  A    between atoms: C_3  and  N_4
REMARK    4  A    between atoms: C_3  and  C_20
REMARK    5  A    between atoms: N_4  and  C_5
REMARK    6  A    between atoms: C_5  and  C_6
REMARK    7  A    between atoms: C_9  and  C_10
REMARK    8  A    between atoms: C_10  and  O_11
REMARK    9  A    between atoms: O_11  and  C_12
REMARK   10  A    between atoms: C_12  and  C_13
REMARK                            x       y       z     vdW  Elec       q    Type
REMARK                         _______ _______ _______ _____ _____    ______ ____
ROOT
ATOM      1  N   UNL     1      48.246   6.065  14.975  0.00  0.00    +0.000 NA
ATOM      2  H   UNL     1      47.272   5.881  15.235  0.00  0.00    +0.000 HD
ENDROOT
BRANCH   1   3
ATOM      3  C   UNL     1      48.808   7.042  15.927  0.00  0.00    +0.000 C 
BRANCH   3   4
ATOM      4  C   UNL     1      50.258   6.656  16.194  0.00  0.00    +0.000 A 
ATOM      5  C   UNL     1      51.373   7.336  15.724  0.00  0.00    +0.000 A 
ATOM      6  S   UNL     1      52.852   6.653  16.237  0.00  0.00    +0.000 S 
ATOM      7  C   UNL     1      52.050   5.452  17.139  0.00  0.00    +0.000 A 
ATOM      8  N   UNL     1      52.742   4.535  17.866  0.00  0.00    +0.000 NA
ATOM      9  C   UNL     1      51.996   3.706  18.520  0.00  0.00    +0.000 A 
ATOM     10  N   UNL     1      50.623   3.706  18.506  0.00  0.00    +0.000 N 
ATOM     11  C   UNL     1      49.880   4.604  17.777  0.00  0.00    +0.000 A 
ATOM     12  O   UNL     1      48.652   4.581  17.782  0.00  0.00    +0.000 OA
ATOM     13  C   UNL     1      50.678   5.560  17.033  0.00  0.00    +0.000 A 
ATOM     14  H   UNL     1      50.100   3.030  19.043  0.00  0.00    +0.000 HD
ENDBRANCH   3   4
BRANCH   3  15
ATOM     15  C   UNL     1      48.711   8.525  15.437  0.00  0.00    +0.000 C 
BRANCH  15  16
ATOM     16  N   UNL     1      47.544   9.262  15.941  0.00  0.00    +0.000 NA
ATOM     17  H   UNL     1      47.816  10.195  16.237  0.00  0.00    +0.000 HD
ATOM     18  H   UNL     1      47.168   8.765  16.749  0.00  0.00    +0.000 HD
ENDBRANCH  15  16
ENDBRANCH   3  15
ENDBRANCH   1   3
BRANCH   1  19
ATOM     19  C   UNL     1      48.210   6.573  13.600  0.00  0.00    +0.000 C 
BRANCH  19  20
ATOM     20  C   UNL     1      47.042   5.985  12.835  0.00  0.00    +0.000 A 
ATOM     21  C   UNL     1      46.708   6.482  11.577  0.00  0.00    +0.000 A 
ATOM     22  C   UNL     1      45.630   5.923  10.897  0.00  0.00    +0.000 A 
ATOM     23  C   UNL     1      44.910   4.883  11.485  0.00  0.00    +0.000 A 
ATOM     24  C   UNL     1      45.320   4.450  12.743  0.00  0.00    +0.000 A 
ATOM     25  N   UNL     1      46.360   4.973  13.430  0.00  0.00    +0.000 NA
BRANCH  23  26
ATOM     26  C   UNL     1      43.725   4.256  10.816  0.00  0.00    +0.000 C 
BRANCH  26  27
ATOM     27  O   UNL     1      44.151   3.845   9.527  0.00  0.00    +0.000 OA
BRANCH  27  28
ATOM     28  C   UNL     1      44.529   2.474   9.479  0.00  0.00    +0.000 C 
BRANCH  28  29
ATOM     29  C   UNL     1      45.606   2.372   8.465  0.00  0.00    +0.000 A 
ATOM     30  C   UNL     1      46.145   3.261   7.555  0.00  0.00    +0.000 A 
ATOM     31  C   UNL     1      47.153   2.560   6.856  0.00  0.00    +0.000 A 
ATOM     32  C   UNL     1      47.171   1.289   7.381  0.00  0.00    +0.000 A 
ATOM     33  O   UNL     1      46.235   1.163   8.360  0.00  0.00    +0.000 OA
ENDBRANCH  28  29
ENDBRANCH  27  28
ENDBRANCH  26  27
ENDBRANCH  23  26
ENDBRANCH  19  20
ENDBRANCH   1  19
TORSDOF 10
ENDMDL
MODEL 4
REMARK VINA RESULT:    -6.876      3.470      8.828
REMARK INTER + INTRA:         -11.531
REMARK INTER:                 -10.450
REMARK INTRA:                  -1.081
REMARK UNBOUND:                -0.837
REMARK  Name = 
REMARK  10 active torsions:
REMARK  status: ('A' for Active; 'I' for Inactive)
REMARK    1  A    between atoms: N_1  and  C_2
REMARK    2  A    between atoms: C_2  and  C_3
REMARK    3  A    between atoms: C_3  and  N_4
REMARK    4  A    between atoms: C_3  and  C_20
REMARK    5  A    between atoms: N_4  and  C_5
REMARK    6  A    between atoms: C_5  and  C_6
REMARK    7  A    between atoms: C_9  and  C_10
REMARK    8  A    between atoms: C_10  and  O_11
REMARK    9  A    between atoms: O_11  and  C_12
REMARK   10  A    between atoms: C_12  and  C_13
REMARK                            x       y       z     vdW  Elec       q    Type
REMARK                         _______ _______ _______ _____ _____    ______ ____
ROOT
ATOM      1  N   UNL     1      46.812   6.526  11.362  0.00  0.00    +0.000 NA
ATOM      2  H   UNL     1      47.419   6.800  10.582  0.00  0.00    +0.000 HD
ENDROOT
BRANCH   1   3
ATOM      3  C   UNL     1      45.408   6.635  10.924  0.00  0.00    +0.000 C 
BRANCH   3   4
ATOM      4  C   UNL     1      44.778   5.251  11.023  0.00  0.00    +0.000 A 
ATOM      5  C   UNL     1      43.954   4.813  12.051  0.00  0.00    +0.000 A 
ATOM      6  S   UNL     1      43.390   3.215  11.836  0.00  0.00    +0.000 S 
ATOM      7  C   UNL     1      44.193   3.072  10.342  0.00  0.00    +0.000 A 
ATOM      8  N   UNL     1      44.101   1.940   9.594  0.00  0.00    +0.000 NA
ATOM      9  C   UNL     1      44.740   1.992   8.473  0.00  0.00    +0.000 A 
ATOM     10  N   UNL     1      45.472   3.068   8.034  0.00  0.00    +0.000 N 
ATOM     11  C   UNL     1      45.606   4.230   8.759  0.00  0.00    +0.000 A 
ATOM     12  O   UNL     1      46.267   5.177   8.344  0.00  0.00    +0.000 OA
ATOM     13  C   UNL     1      44.895   4.218  10.023  0.00  0.00    +0.000 A 
ATOM     14  H   UNL     1      45.947   3.043   7.145  0.00  0.00    +0.000 HD
ENDBRANCH   3   4
BRANCH   3  15
ATOM     15  C   UNL     1      44.576   7.683  11.735  0.00  0.00    +0.000 C 
BRANCH  15  16
ATOM     16  N   UNL     1      43.376   8.179  11.047  0.00  0.00    +0.000 NA
ATOM     17  H   UNL     1      42.681   8.481  11.724  0.00  0.00    +0.000 HD
ATOM     18  H   UNL     1      42.978   7.417  10.496  0.00  0.00    +0.000 HD
ENDBRANCH  15  16
ENDBRANCH   3  15
ENDBRANCH   1   3
BRANCH   1  19
ATOM     19  C   UNL     1      47.133   7.437  12.464  0.00  0.00    +0.000 C 
BRANCH  19  20
ATOM     20  C   UNL     1      47.508   6.667  13.714  0.00  0.00    +0.000 A 
ATOM     21  C   UNL     1      47.000   5.387  13.927  0.00  0.00    +0.000 A 
ATOM     22  C   UNL     1      47.361   4.703  15.084  0.00  0.00    +0.000 A 
ATOM     23  C   UNL     1      48.219   5.309  16.001  0.00  0.00    +0.000 A 
ATOM     24  C   UNL     1      48.680   6.588  15.701  0.00  0.00    +0.000 A 
ATOM     25  N   UNL     1      48.346   7.279  14.589  0.00  0.00    +0.000 NA
BRANCH  23  26
ATOM     26  C   UNL     1      48.627   4.636  17.277  0.00  0.00    +0.000 C 
BRANCH  26  27
ATOM     27  O   UNL     1      49.746   3.820  16.971  0.00  0.00    +0.000 OA
BRANCH  27  28
ATOM     28  C   UNL     1      50.823   3.992  17.884  0.00  0.00    +0.000 C 
BRANCH  28  29
ATOM     29  C   UNL     1      51.670   2.781  17.764  0.00  0.00    +0.000 A 
ATOM     30  C   UNL     1      51.414   1.470  17.408  0.00  0.00    +0.000 A 
ATOM     31  C   UNL     1      52.646   0.783  17.491  0.00  0.00    +0.000 A 
ATOM     32  C   UNL     1      53.578   1.712  17.889  0.00  0.00    +0.000 A 
ATOM     33  O   UNL     1      52.996   2.931  18.059  0.00  0.00    +0.000 OA
ENDBRANCH  28  29
ENDBRANCH  27  28
ENDBRANCH  26  27
ENDBRANCH  23  26
ENDBRANCH  19  20
ENDBRANCH   1  19
TORSDOF 10
ENDMDL
MODEL 5
REMARK VINA RESULT:    -6.859      2.249      2.825
REMARK INTER + INTRA:         -11.505
REMARK INTER:                 -10.454
REMARK INTRA:                  -1.050
REMARK UNBOUND:                -0.837
REMARK  Name = 
REMARK  10 active torsions:
REMARK  status: ('A' for Active; 'I' for Inactive)
REMARK    1  A    between atoms: N_1  and  C_2
REMARK    2  A    between atoms: C_2  and  C_3
REMARK    3  A    between atoms: C_3  and  N_4
REMARK    4  A    between atoms: C_3  and  C_20
REMARK    5  A    between atoms: N_4  and  C_5
REMARK    6  A    between atoms: C_5  and  C_6
REMARK    7  A    between atoms: C_9  and  C_10
REMARK    8  A    between atoms: C_10  and  O_11
REMARK    9  A    between atoms: O_11  and  C_12
REMARK   10  A    between atoms: C_12  and  C_13
REMARK                            x       y       z     vdW  Elec       q    Type
REMARK                         _______ _______ _______ _____ _____    ______ ____
ROOT
ATOM      1  N   UNL     1      49.367   6.566  14.967  0.00  0.00    +0.000 NA
ATOM      2  H   UNL     1      49.100   5.582  15.081  0.00  0.00    +0.000 HD
ENDROOT
BRANCH   1   3
ATOM      3  C   UNL     1      48.646   7.366  15.975  0.00  0.00    +0.000 C 
BRANCH   3   4
ATOM      4  C   UNL     1      49.302   7.117  17.327  0.00  0.00    +0.000 A 
ATOM      5  C   UNL     1      50.230   7.949  17.939  0.00  0.00    +0.000 A 
ATOM      6  S   UNL     1      50.741   7.390  19.469  0.00  0.00    +0.000 S 
ATOM      7  C   UNL     1      49.707   6.040  19.385  0.00  0.00    +0.000 A 
ATOM      8  N   UNL     1      49.627   5.146  20.406  0.00  0.00    +0.000 NA
ATOM      9  C   UNL     1      48.778   4.192  20.208  0.00  0.00    +0.000 A 
ATOM     10  N   UNL     1      48.010   4.044  19.080  0.00  0.00    +0.000 N 
ATOM     11  C   UNL     1      48.065   4.914  18.016  0.00  0.00    +0.000 A 
ATOM     12  O   UNL     1      47.367   4.759  17.018  0.00  0.00    +0.000 OA
ATOM     13  C   UNL     1      49.000   6.008  18.200  0.00  0.00    +0.000 A 
ATOM     14  H   UNL     1      47.364   3.275  18.991  0.00  0.00    +0.000 HD
ENDBRANCH   3   4
BRANCH   3  15
ATOM     15  C   UNL     1      48.606   8.896  15.651  0.00  0.00    +0.000 C 
BRANCH  15  16
ATOM     16  N   UNL     1      47.532   9.638  16.327  0.00  0.00    +0.000 NA
ATOM     17  H   UNL     1      47.479   9.368  17.306  0.00  0.00    +0.000 HD
ATOM     18  H   UNL     1      46.644   9.406  15.881  0.00  0.00    +0.000 HD
ENDBRANCH  15  16
ENDBRANCH   3  15
ENDBRANCH   1   3
BRANCH   1  19
ATOM     19  C   UNL     1      49.006   6.927  13.594  0.00  0.00    +0.000 C 
BRANCH  19  20
ATOM     20  C   UNL     1      47.801   6.140  13.123  0.00  0.00    +0.000 A 
ATOM     21  C   UNL     1      46.958   6.665  12.147  0.00  0.00    +0.000 A 
ATOM     22  C   UNL     1      45.858   5.919  11.733  0.00  0.00    +0.000 A 
ATOM     23  C   UNL     1      45.624   4.667  12.301  0.00  0.00    +0.000 A 
ATOM     24  C   UNL     1      46.523   4.222  13.266  0.00  0.00    +0.000 A 
ATOM     25  N   UNL     1      47.598   4.923  13.691  0.00  0.00    +0.000 NA
BRANCH  23  26
ATOM     26  C   UNL     1      44.445   3.826  11.918  0.00  0.00    +0.000 C 
BRANCH  26  27
ATOM     27  O   UNL     1      44.906   2.888  10.958  0.00  0.00    +0.000 OA
BRANCH  27  28
ATOM     28  C   UNL     1      44.299   3.058   9.682  0.00  0.00    +0.000 C 
BRANCH  28  29
ATOM     29  C   UNL     1      45.323   2.679   8.679  0.00  0.00    +0.000 A 
ATOM     30  C   UNL     1      45.939   3.354   7.643  0.00  0.00    +0.000 A 
ATOM     31  C   UNL     1      46.831   2.439   7.039  0.00  0.00    +0.000 A 
ATOM     32  C   UNL     1      46.709   1.264   7.742  0.00  0.00    +0.000 A 
ATOM     33  O   UNL     1      45.794   1.397   8.741  0.00  0.00    +0.000 OA
ENDBRANCH  28  29
ENDBRANCH  27  28
ENDBRANCH  26  27
ENDBRANCH  23  26
ENDBRANCH  19  20
ENDBRANCH   1  19
TORSDOF 10
ENDMDL
MODEL 6
REMARK VINA RESULT:    -6.828      2.817      3.748
REMARK INTER + INTRA:         -11.457
REMARK INTER:                 -10.320
REMARK INTRA:                  -1.137
REMARK UNBOUND:                -0.837
REMARK  Name = 
REMARK  10 active torsions:
REMARK  status: ('A' for Active; 'I' for Inactive)
REMARK    1  A    between atoms: N_1  and  C_2
REMARK    2  A    between atoms: C_2  and  C_3
REMARK    3  A    between atoms: C_3  and  N_4
REMARK    4  A    between atoms: C_3  and  C_20
REMARK    5  A    between atoms: N_4  and  C_5
REMARK    6  A    between atoms: C_5  and  C_6
REMARK    7  A    between atoms: C_9  and  C_10
REMARK    8  A    between atoms: C_10  and  O_11
REMARK    9  A    between atoms: O_11  and  C_12
REMARK   10  A    between atoms: C_12  and  C_13
REMARK                            x       y       z     vdW  Elec       q    Type
REMARK                         _______ _______ _______ _____ _____    ______ ____
ROOT
ATOM      1  N   UNL     1      48.680   6.276  14.428  0.00  0.00    +0.000 NA
ATOM      2  H   UNL     1      48.127   5.445  14.664  0.00  0.00    +0.000 HD
ENDROOT
BRANCH   1   3
ATOM      3  C   UNL     1      49.090   6.936  15.681  0.00  0.00    +0.000 C 
BRANCH   3   4
ATOM      4  C   UNL     1      48.701   6.025  16.839  0.00  0.00    +0.000 A 
ATOM      5  C   UNL     1      48.642   4.639  16.790  0.00  0.00    +0.000 A 
ATOM      6  S   UNL     1      48.202   3.924  18.277  0.00  0.00    +0.000 S 
ATOM      7  C   UNL     1      48.118   5.441  19.047  0.00  0.00    +0.000 A 
ATOM      8  N   UNL     1      47.815   5.547  20.368  0.00  0.00    +0.000 NA
ATOM      9  C   UNL     1      47.817   6.759  20.816  0.00  0.00    +0.000 A 
ATOM     10  N   UNL     1      48.086   7.875  20.062  0.00  0.00    +0.000 N 
ATOM     11  C   UNL     1      48.385   7.820  18.720  0.00  0.00    +0.000 A 
ATOM     12  O   UNL     1      48.620   8.833  18.069  0.00  0.00    +0.000 OA
ATOM     13  C   UNL     1      48.402   6.475  18.177  0.00  0.00    +0.000 A 
ATOM     14  H   UNL     1      48.073   8.795  20.475  0.00  0.00    +0.000 HD
ENDBRANCH   3   4
BRANCH   3  15
ATOM     15  C   UNL     1      50.614   7.285  15.739  0.00  0.00    +0.000 C 
BRANCH  15  16
ATOM     16  N   UNL     1      50.913   8.722  15.810  0.00  0.00    +0.000 NA
ATOM     17  H   UNL     1      51.542   8.989  15.058  0.00  0.00    +0.000 HD
ATOM     18  H   UNL     1      51.374   8.916  16.699  0.00  0.00    +0.000 HD
ENDBRANCH  15  16
ENDBRANCH   3  15
ENDBRANCH   1   3
BRANCH   1  19
ATOM     19  C   UNL     1      47.812   7.120  13.602  0.00  0.00    +0.000 C 
BRANCH  19  20
ATOM     20  C   UNL     1      46.864   6.278  12.773  0.00  0.00    +0.000 A 
ATOM     21  C   UNL     1      46.615   6.607  11.442  0.00  0.00    +0.000 A 
ATOM     22  C   UNL     1      45.740   5.815  10.704  0.00  0.00    +0.000 A 
ATOM     23  C   UNL     1      45.134   4.714  11.308  0.00  0.00    +0.000 A 
ATOM     24  C   UNL     1      45.447   4.460  12.641  0.00  0.00    +0.000 A 
ATOM     25  N   UNL     1      46.289   5.211  13.384  0.00  0.00    +0.000 NA
BRANCH  23  26
ATOM     26  C   UNL     1      44.164   3.837  10.576  0.00  0.00    +0.000 C 
BRANCH  26  27
ATOM     27  O   UNL     1      44.819   2.598  10.354  0.00  0.00    +0.000 OA
BRANCH  27  28
ATOM     28  C   UNL     1      44.467   2.002   9.110  0.00  0.00    +0.000 C 
BRANCH  28  29
ATOM     29  C   UNL     1      45.669   2.098   8.247  0.00  0.00    +0.000 A 
ATOM     30  C   UNL     1      46.243   3.126   7.524  0.00  0.00    +0.000 A 
ATOM     31  C   UNL     1      47.387   2.585   6.894  0.00  0.00    +0.000 A 
ATOM     32  C   UNL     1      47.444   1.264   7.270  0.00  0.00    +0.000 A 
ATOM     33  O   UNL     1      46.404   0.956   8.093  0.00  0.00    +0.000 OA
ENDBRANCH  28  29
ENDBRANCH  27  28
ENDBRANCH  26  27
ENDBRANCH  23  26
ENDBRANCH  19  20
ENDBRANCH   1  19
TORSDOF 10
ENDMDL
MODEL 7
REMARK VINA RESULT:    -6.573      3.881      8.529
REMARK INTER + INTRA:         -11.059
REMARK INTER:                  -9.609
REMARK INTRA:                  -1.450
REMARK UNBOUND:                -0.837
REMARK  Name = 
REMARK  10 active torsions:
REMARK  status: ('A' for Active; 'I' for Inactive)
REMARK    1  A    between atoms: N_1  and  C_2
REMARK    2  A    between atoms: C_2  and  C_3
REMARK    3  A    between atoms: C_3  and  N_4
REMARK    4  A    between atoms: C_3  and  C_20
REMARK    5  A    between atoms: N_4  and  C_5
REMARK    6  A    between atoms: C_5  and  C_6
REMARK    7  A    between atoms: C_9  and  C_10
REMARK    8  A    between atoms: C_10  and  O_11
REMARK    9  A    between atoms: O_11  and  C_12
REMARK   10  A    between atoms: C_12  and  C_13
REMARK                            x       y       z     vdW  Elec       q    Type
REMARK                         _______ _______ _______ _____ _____    ______ ____
ROOT
ATOM      1  N   UNL     1      46.790   7.235  11.541  0.00  0.00    +0.000 NA
ATOM      2  H   UNL     1      47.398   7.274  10.717  0.00  0.00    +0.000 HD
ENDROOT
BRANCH   1   3
ATOM      3  C   UNL     1      45.387   7.315  11.092  0.00  0.00    +0.000 C 
BRANCH   3   4
ATOM      4  C   UNL     1      44.703   6.004  11.460  0.00  0.00    +0.000 A 
ATOM      5  C   UNL     1      43.918   5.792  12.585  0.00  0.00    +0.000 A 
ATOM      6  S   UNL     1      43.273   4.214  12.678  0.00  0.00    +0.000 S 
ATOM      7  C   UNL     1      43.984   3.775  11.194  0.00  0.00    +0.000 A 
ATOM      8  N   UNL     1      43.799   2.539  10.660  0.00  0.00    +0.000 NA
ATOM      9  C   UNL     1      44.377   2.363   9.518  0.00  0.00    +0.000 A 
ATOM     10  N   UNL     1      45.130   3.308   8.865  0.00  0.00    +0.000 N 
ATOM     11  C   UNL     1      45.356   4.567   9.370  0.00  0.00    +0.000 A 
ATOM     12  O   UNL     1      46.034   5.393   8.766  0.00  0.00    +0.000 OA
ATOM     13  C   UNL     1      44.717   4.811  10.650  0.00  0.00    +0.000 A 
ATOM     14  H   UNL     1      45.553   3.106   7.972  0.00  0.00    +0.000 HD
ENDBRANCH   3   4
BRANCH   3  15
ATOM     15  C   UNL     1      44.606   8.534  11.684  0.00  0.00    +0.000 C 
BRANCH  15  16
ATOM     16  N   UNL     1      43.441   8.958  10.895  0.00  0.00    +0.000 NA
ATOM     17  H   UNL     1      43.663   9.793  10.360  0.00  0.00    +0.000 HD
ATOM     18  H   UNL     1      42.676   9.179  11.534  0.00  0.00    +0.000 HD
ENDBRANCH  15  16
ENDBRANCH   3  15
ENDBRANCH   1   3
BRANCH   1  19
ATOM     19  C   UNL     1      47.178   8.368  12.386  0.00  0.00    +0.000 C 
BRANCH  19  20
ATOM     20  C   UNL     1      47.941   7.899  13.607  0.00  0.00    +0.000 A 
ATOM     21  C   UNL     1      47.916   6.556  13.977  0.00  0.00    +0.000 A 
ATOM     22  C   UNL     1      48.626   6.153  15.104  0.00  0.00    +0.000 A 
ATOM     23  C   UNL     1      49.346   7.096  15.836  0.00  0.00    +0.000 A 
ATOM     24  C   UNL     1      49.317   8.415  15.389  0.00  0.00    +0.000 A 
ATOM     25  N   UNL     1      48.635   8.837  14.301  0.00  0.00    +0.000 NA
BRANCH  23  26
ATOM     26  C   UNL     1      50.110   6.732  17.072  0.00  0.00    +0.000 C 
BRANCH  26  27
ATOM     27  O   UNL     1      50.825   5.543  16.777  0.00  0.00    +0.000 OA
BRANCH  27  28
ATOM     28  C   UNL     1      50.753   4.580  17.822  0.00  0.00    +0.000 C 
BRANCH  28  29
ATOM     29  C   UNL     1      49.496   3.823  17.606  0.00  0.00    +0.000 A 
ATOM     30  C   UNL     1      48.295   3.756  18.287  0.00  0.00    +0.000 A 
ATOM     31  C   UNL     1      47.483   2.841  17.581  0.00  0.00    +0.000 A 
ATOM     32  C   UNL     1      48.232   2.406  16.513  0.00  0.00    +0.000 A 
ATOM     33  O   UNL     1      49.459   2.997  16.518  0.00  0.00    +0.000 OA
ENDBRANCH  28  29
ENDBRANCH  27  28
ENDBRANCH  26  27
ENDBRANCH  23  26
ENDBRANCH  19  20
ENDBRANCH   1  19
TORSDOF 10
ENDMDL
MODEL 8
REMARK VINA RESULT:    -6.365      2.203      3.323
REMARK INTER + INTRA:         -10.737
REMARK INTER:                  -9.431
REMARK INTRA:                  -1.305
REMARK UNBOUND:                -0.837
REMARK  Name = 
REMARK  10 active torsions:
REMARK  status: ('A' for Active; 'I' for Inactive)
REMARK    1  A    between atoms: N_1  and  C_2
REMARK    2  A    between atoms: C_2  and  C_3
REMARK    3  A    between atoms: C_3  and  N_4
REMARK    4  A    between atoms: C_3  and  C_20
REMARK    5  A    between atoms: N_4  and  C_5
REMARK    6  A    between atoms: C_5  and  C_6
REMARK    7  A    between atoms: C_9  and  C_10
REMARK    8  A    between atoms: C_10  and  O_11
REMARK    9  A    between atoms: O_11  and  C_12
REMARK   10  A    between atoms: C_12  and  C_13
REMARK                            x       y       z     vdW  Elec       q    Type
REMARK                         _______ _______ _______ _____ _____    ______ ____
ROOT
ATOM      1  N   UNL     1      50.177   7.802  14.827  0.00  0.00    +0.000 NA
ATOM      2  H   UNL     1      50.508   6.914  14.436  0.00  0.00    +0.000 HD
ENDROOT
BRANCH   1   3
ATOM      3  C   UNL     1      49.151   7.511  15.846  0.00  0.00    +0.000 C 
BRANCH   3   4
ATOM      4  C   UNL     1      49.628   6.316  16.662  0.00  0.00    +0.000 A 
ATOM      5  C   UNL     1      50.750   6.295  17.480  0.00  0.00    +0.000 A 
ATOM      6  S   UNL     1      50.980   4.804  18.280  0.00  0.00    +0.000 S 
ATOM      7  C   UNL     1      49.565   4.153  17.594  0.00  0.00    +0.000 A 
ATOM      8  N   UNL     1      49.149   2.893  17.893  0.00  0.00    +0.000 NA
ATOM      9  C   UNL     1      48.044   2.549  17.319  0.00  0.00    +0.000 A 
ATOM     10  N   UNL     1      47.320   3.347  16.467  0.00  0.00    +0.000 N 
ATOM     11  C   UNL     1      47.705   4.622  16.124  0.00  0.00    +0.000 A 
ATOM     12  O   UNL     1      47.040   5.314  15.359  0.00  0.00    +0.000 OA
ATOM     13  C   UNL     1      48.939   5.052  16.754  0.00  0.00    +0.000 A 
ATOM     14  H   UNL     1      46.461   3.017  16.053  0.00  0.00    +0.000 HD
ENDBRANCH   3   4
BRANCH   3  15
ATOM     15  C   UNL     1      48.828   8.726  16.778  0.00  0.00    +0.000 C 
BRANCH  15  16
ATOM     16  N   UNL     1      47.588   9.441  16.445  0.00  0.00    +0.000 NA
ATOM     17  H   UNL     1      47.737  10.053  15.648  0.00  0.00    +0.000 HD
ATOM     18  H   UNL     1      47.318  10.015  17.245  0.00  0.00    +0.000 HD
ENDBRANCH  15  16
ENDBRANCH   3  15
ENDBRANCH   1   3
BRANCH   1  19
ATOM     19  C   UNL     1      49.648   8.571  13.696  0.00  0.00    +0.000 C 
BRANCH  19  20
ATOM     20  C   UNL     1      48.348   7.976  13.195  0.00  0.00    +0.000 A 
ATOM     21  C   UNL     1      48.347   6.753  12.530  0.00  0.00    +0.000 A 
ATOM     22  C   UNL     1      47.137   6.230  12.081  0.00  0.00    +0.000 A 
ATOM     23  C   UNL     1      45.958   6.938  12.305  0.00  0.00    +0.000 A 
ATOM     24  C   UNL     1      46.056   8.151  12.983  0.00  0.00    +0.000 A 
ATOM     25  N   UNL     1      47.214   8.685  13.429  0.00  0.00    +0.000 NA
BRANCH  23  26
ATOM     26  C   UNL     1      44.627   6.443  11.826  0.00  0.00    +0.000 C 
BRANCH  26  27
ATOM     27  O   UNL     1      44.829   5.123  11.349  0.00  0.00    +0.000 OA
BRANCH  27  28
ATOM     28  C   UNL     1      43.936   4.772  10.297  0.00  0.00    +0.000 C 
BRANCH  28  29
ATOM     29  C   UNL     1      44.696   3.886   9.382  0.00  0.00    +0.000 A 
ATOM     30  C   UNL     1      45.001   2.539   9.395  0.00  0.00    +0.000 A 
ATOM     31  C   UNL     1      45.769   2.289   8.236  0.00  0.00    +0.000 A 
ATOM     32  C   UNL     1      45.883   3.494   7.584  0.00  0.00    +0.000 A 
ATOM     33  O   UNL     1      45.235   4.473   8.272  0.00  0.00    +0.000 OA
ENDBRANCH  28  29
ENDBRANCH  27  28
ENDBRANCH  26  27
ENDBRANCH  23  26
ENDBRANCH  19  20
ENDBRANCH   1  19
TORSDOF 10
ENDMDL
MODEL 9
REMARK VINA RESULT:    -6.326      2.945      3.695
REMARK INTER + INTRA:         -10.676
REMARK INTER:                  -9.406
REMARK INTRA:                  -1.270
REMARK UNBOUND:                -0.837
REMARK  Name = 
REMARK  10 active torsions:
REMARK  status: ('A' for Active; 'I' for Inactive)
REMARK    1  A    between atoms: N_1  and  C_2
REMARK    2  A    between atoms: C_2  and  C_3
REMARK    3  A    between atoms: C_3  and  N_4
REMARK    4  A    between atoms: C_3  and  C_20
REMARK    5  A    between atoms: N_4  and  C_5
REMARK    6  A    between atoms: C_5  and  C_6
REMARK    7  A    between atoms: C_9  and  C_10
REMARK    8  A    between atoms: C_10  and  O_11
REMARK    9  A    between atoms: O_11  and  C_12
REMARK   10  A    between atoms: C_12  and  C_13
REMARK                            x       y       z     vdW  Elec       q    Type
REMARK                         _______ _______ _______ _____ _____    ______ ____
ROOT
ATOM      1  N   UNL     1      49.136   2.939  16.780  0.00  0.00    +0.000 NA
ATOM      2  H   UNL     1      49.206   1.934  16.592  0.00  0.00    +0.000 HD
ENDROOT
BRANCH   1   3
ATOM      3  C   UNL     1      49.626   3.194  18.148  0.00  0.00    +0.000 C 
BRANCH   3   4
ATOM      4  C   UNL     1      51.061   3.698  18.045  0.00  0.00    +0.000 A 
ATOM      5  C   UNL     1      51.467   5.015  18.213  0.00  0.00    +0.000 A 
ATOM      6  S   UNL     1      53.154   5.230  18.064  0.00  0.00    +0.000 S 
ATOM      7  C   UNL     1      53.402   3.565  17.812  0.00  0.00    +0.000 A 
ATOM      8  N   UNL     1      54.651   3.054  17.642  0.00  0.00    +0.000 NA
ATOM      9  C   UNL     1      54.682   1.771  17.491  0.00  0.00    +0.000 A 
ATOM     10  N   UNL     1      53.578   0.953  17.486  0.00  0.00    +0.000 N 
ATOM     11  C   UNL     1      52.295   1.424  17.641  0.00  0.00    +0.000 A 
ATOM     12  O   UNL     1      51.326   0.671  17.632  0.00  0.00    +0.000 OA
ATOM     13  C   UNL     1      52.215   2.861  17.823  0.00  0.00    +0.000 A 
ATOM     14  H   UNL     1      53.673  -0.044  17.365  0.00  0.00    +0.000 HD
ENDBRANCH   3   4
BRANCH   3  15
ATOM     15  C   UNL     1      48.742   4.201  18.955  0.00  0.00    +0.000 C 
BRANCH  15  16
ATOM     16  N   UNL     1      48.566   3.862  20.375  0.00  0.00    +0.000 NA
ATOM     17  H   UNL     1      49.301   4.288  20.932  0.00  0.00    +0.000 HD
ATOM     18  H   UNL     1      48.630   2.849  20.478  0.00  0.00    +0.000 HD
ENDBRANCH  15  16
ENDBRANCH   3  15
ENDBRANCH   1   3
BRANCH   1  19
ATOM     19  C   UNL     1      47.722   3.287  16.612  0.00  0.00    +0.000 C 
BRANCH  19  20
ATOM     20  C   UNL     1      47.520   4.169  15.398  0.00  0.00    +0.000 A 
ATOM     21  C   UNL     1      47.933   5.499  15.423  0.00  0.00    +0.000 A 
ATOM     22  C   UNL     1      47.735   6.288  14.292  0.00  0.00    +0.000 A 
ATOM     23  C   UNL     1      47.130   5.733  13.165  0.00  0.00    +0.000 A 
ATOM     24  C   UNL     1      46.755   4.393  13.232  0.00  0.00    +0.000 A 
ATOM     25  N   UNL     1      46.931   3.604  14.314  0.00  0.00    +0.000 NA
BRANCH  23  26
ATOM     26  C   UNL     1      46.866   6.533  11.926  0.00  0.00    +0.000 C 
BRANCH  26  27
ATOM     27  O   UNL     1      45.838   7.457  12.247  0.00  0.00    +0.000 OA
BRANCH  27  28
ATOM     28  C   UNL     1      44.749   7.412  11.331  0.00  0.00    +0.000 C 
BRANCH  28  29
ATOM     29  C   UNL     1      44.055   6.124  11.571  0.00  0.00    +0.000 A 
ATOM     30  C   UNL     1      43.737   5.048  10.764  0.00  0.00    +0.000 A 
ATOM     31  C   UNL     1      43.061   4.116  11.583  0.00  0.00    +0.000 A 
ATOM     32  C   UNL     1      43.009   4.675  12.838  0.00  0.00    +0.000 A 
ATOM     33  O   UNL     1      43.610   5.896  12.843  0.00  0.00    +0.000 OA
ENDBRANCH  28  29
ENDBRANCH  27  28
ENDBRANCH  26  27
ENDBRANCH  23  26
ENDBRANCH  19  20
ENDBRANCH   1  19
TORSDOF 10
ENDMDL
