MODEL 1
REMARK VINA RESULT:    -7.461      0.000      0.000
REMARK INTER + INTRA:          -9.897
REMARK INTER:                  -9.424
REMARK INTRA:                  -0.473
REMARK UNBOUND:                -0.473
REMARK  Name = 
REMARK  5 active torsions:
REMARK  status: ('A' for Active; 'I' for Inactive)
REMARK    1  A    between atoms: N_1  and  C_2
REMARK    2  A    between atoms: C_2  and  C_3
REMARK    3  A    between atoms: C_6  and  O_7
REMARK    4  A    between atoms: O_7  and  C_8
REMARK    5  A    between atoms: C_8  and  C_9
REMARK                            x       y       z     vdW  Elec       q    Type
REMARK                         _______ _______ _______ _____ _____    ______ ____
ROOT
ATOM      1  C   UNL     1      46.566   2.251   7.589  0.00  0.00    +0.000 A 
ATOM      2  C   UNL     1      45.748   1.461   8.410  0.00  0.00    +0.000 A 
ATOM      3  C   UNL     1      44.784   2.050   9.233  0.00  0.00    +0.000 A 
ATOM      4  C   UNL     1      44.632   3.435   9.256  0.00  0.00    +0.000 A 
ATOM      5  C   UNL     1      45.405   4.224   8.404  0.00  0.00    +0.000 A 
ATOM      6  C   UNL     1      46.373   3.638   7.585  0.00  0.00    +0.000 A 
ENDROOT
BRANCH   1   7
ATOM      7  C   UNL     1      47.653   1.632   6.751  0.00  0.00    +0.000 C 
BRANCH   7   8
ATOM      8  N   UNL     1      48.653   2.611   6.350  0.00  0.00    +0.000 NA
ATOM      9  H   UNL     1      48.290   3.153   5.569  0.00  0.00    +0.000 HD
ATOM     10  H   UNL     1      49.473   2.115   6.001  0.00  0.00    +0.000 HD
ENDBRANCH   7   8
ENDBRANCH   1   7
BRANCH   4  11
ATOM     11  O   UNL     1      43.707   3.913  10.143  0.00  0.00    +0.000 OA
BRANCH  11  12
ATOM     12  C   UNL     1      43.795   3.368  11.463  0.00  0.00    +0.000 C 
BRANCH  12  13
ATOM     13  C   UNL     1      44.916   4.039  12.223  0.00  0.00    +0.000 A 
ATOM     14  C   UNL     1      44.994   5.434  12.258  0.00  0.00    +0.000 A 
ATOM     15  C   UNL     1      46.003   6.035  13.008  0.00  0.00    +0.000 A 
ATOM     16  C   UNL     1      46.893   5.227  13.697  0.00  0.00    +0.000 A 
ATOM     17  F   UNL     1      47.873   5.772  14.428  0.00  0.00    +0.000 F 
ATOM     18  C   UNL     1      46.749   3.854  13.622  0.00  0.00    +0.000 A 
ATOM     19  N   UNL     1      45.776   3.240  12.908  0.00  0.00    +0.000 NA
ENDBRANCH  12  13
ENDBRANCH  11  12
ENDBRANCH   4  11
TORSDOF 5
ENDMDL
MODEL 2
REMARK VINA RESULT:    -7.029      2.816      6.021
REMARK INTER + INTRA:          -9.351
REMARK INTER:                  -8.953
REMARK INTRA:                  -0.398
REMARK UNBOUND:                -0.473
REMARK  Name = 
REMARK  5 active torsions:
REMARK  status: ('A' for Active; 'I' for Inactive)
REMARK    1  A    between atoms: N_1  and  C_2
REMARK    2  A    between atoms: C_2  and  C_3
REMARK    3  A    between atoms: C_6  and  O_7
REMARK    4  A    between atoms: O_7  and  C_8
REMARK    5  A    between atoms: C_8  and  C_9
REMARK                            x       y       z     vdW  Elec       q    Type
REMARK                         _______ _______ _______ _____ _____    ______ ____
ROOT
ATOM      1  C   UNL     1      46.823   5.736  12.947  0.00  0.00    +0.000 A 
ATOM      2  C   UNL     1      46.615   6.395  11.727  0.00  0.00    +0.000 A 
ATOM      3  C   UNL     1      45.742   5.866  10.772  0.00  0.00    +0.000 A 
ATOM      4  C   UNL     1      45.076   4.666  11.017  0.00  0.00    +0.000 A 
ATOM      5  C   UNL     1      45.237   4.032  12.249  0.00  0.00    +0.000 A 
ATOM      6  C   UNL     1      46.113   4.556  13.203  0.00  0.00    +0.000 A 
ENDROOT
BRANCH   1   7
ATOM      7  C   UNL     1      47.812   6.262  13.954  0.00  0.00    +0.000 C 
BRANCH   7   8
ATOM      8  N   UNL     1      47.773   5.507  15.198  0.00  0.00    +0.000 NA
ATOM      9  H   UNL     1      46.946   5.780  15.724  0.00  0.00    +0.000 HD
ATOM     10  H   UNL     1      48.577   5.772  15.766  0.00  0.00    +0.000 HD
ENDBRANCH   7   8
ENDBRANCH   1   7
BRANCH   4  11
ATOM     11  O   UNL     1      44.298   4.202   9.993  0.00  0.00    +0.000 OA
BRANCH  11  12
ATOM     12  C   UNL     1      44.429   2.804   9.717  0.00  0.00    +0.000 C 
BRANCH  12  13
ATOM     13  C   UNL     1      45.411   2.592   8.587  0.00  0.00    +0.000 A 
ATOM     14  C   UNL     1      45.724   3.651   7.731  0.00  0.00    +0.000 A 
ATOM     15  C   UNL     1      46.671   3.451   6.729  0.00  0.00    +0.000 A 
ATOM     16  C   UNL     1      47.272   2.207   6.617  0.00  0.00    +0.000 A 
ATOM     17  F   UNL     1      48.187   1.982   5.667  0.00  0.00    +0.000 F 
ATOM     18  C   UNL     1      46.917   1.209   7.506  0.00  0.00    +0.000 A 
ATOM     19  N   UNL     1      46.006   1.374   8.494  0.00  0.00    +0.000 NA
ENDBRANCH  12  13
ENDBRANCH  11  12
ENDBRANCH   4  11
TORSDOF 5
ENDMDL
MODEL 3
REMARK VINA RESULT:    -6.341      3.161      6.091
REMARK INTER + INTRA:          -8.482
REMARK INTER:                  -8.060
REMARK INTRA:                  -0.422
REMARK UNBOUND:                -0.473
REMARK  Name = 
REMARK  5 active torsions:
REMARK  status: ('A' for Active; 'I' for Inactive)
REMARK    1  A    between atoms: N_1  and  C_2
REMARK    2  A    between atoms: C_2  and  C_3
REMARK    3  A    between atoms: C_6  and  O_7
REMARK    4  A    between atoms: O_7  and  C_8
REMARK    5  A    between atoms: C_8  and  C_9
REMARK                            x       y       z     vdW  Elec       q    Type
REMARK                         _______ _______ _______ _____ _____    ______ ____
ROOT
ATOM      1  C   UNL     1      45.349   7.305  12.381  0.00  0.00    +0.000 A 
ATOM      2  C   UNL     1      46.214   6.308  12.854  0.00  0.00    +0.000 A 
ATOM      3  C   UNL     1      46.092   4.990  12.407  0.00  0.00    +0.000 A 
ATOM      4  C   UNL     1      45.098   4.647  11.492  0.00  0.00    +0.000 A 
ATOM      5  C   UNL     1      44.267   5.642  10.978  0.00  0.00    +0.000 A 
ATOM      6  C   UNL     1      44.383   6.960  11.428  0.00  0.00    +0.000 A 
ENDROOT
BRANCH   1   7
ATOM      7  C   UNL     1      45.427   8.714  12.908  0.00  0.00    +0.000 C 
BRANCH   7   8
ATOM      8  N   UNL     1      45.261   9.699  11.849  0.00  0.00    +0.000 NA
ATOM      9  H   UNL     1      44.799   9.259  11.057  0.00  0.00    +0.000 HD
ATOM     10  H   UNL     1      46.184   9.985  11.522  0.00  0.00    +0.000 HD
ENDBRANCH   7   8
ENDBRANCH   1   7
BRANCH   4  11
ATOM     11  O   UNL     1      45.023   3.320  11.171  0.00  0.00    +0.000 OA
BRANCH  11  12
ATOM     12  C   UNL     1      44.318   3.028   9.960  0.00  0.00    +0.000 C 
BRANCH  12  13
ATOM     13  C   UNL     1      45.300   2.751   8.847  0.00  0.00    +0.000 A 
ATOM     14  C   UNL     1      45.722   3.793   8.017  0.00  0.00    +0.000 A 
ATOM     15  C   UNL     1      46.669   3.528   7.029  0.00  0.00    +0.000 A 
ATOM     16  C   UNL     1      47.162   2.239   6.905  0.00  0.00    +0.000 A 
ATOM     17  F   UNL     1      48.073   1.952   5.968  0.00  0.00    +0.000 F 
ATOM     18  C   UNL     1      46.703   1.260   7.768  0.00  0.00    +0.000 A 
ATOM     19  N   UNL     1      45.789   1.487   8.741  0.00  0.00    +0.000 NA
ENDBRANCH  12  13
ENDBRANCH  11  12
ENDBRANCH   4  11
TORSDOF 5
ENDMDL
MODEL 4
REMARK VINA RESULT:    -5.777      1.349      2.000
REMARK INTER + INTRA:          -7.770
REMARK INTER:                  -7.404
REMARK INTRA:                  -0.365
REMARK UNBOUND:                -0.473
REMARK  Name = 
REMARK  5 active torsions:
REMARK  status: ('A' for Active; 'I' for Inactive)
REMARK    1  A    between atoms: N_1  and  C_2
REMARK    2  A    between atoms: C_2  and  C_3
REMARK    3  A    between atoms: C_6  and  O_7
REMARK    4  A    between atoms: O_7  and  C_8
REMARK    5  A    between atoms: C_8  and  C_9
REMARK                            x       y       z     vdW  Elec       q    Type
REMARK                         _______ _______ _______ _____ _____    ______ ____
ROOT
ATOM      1  C   UNL     1      45.849   3.100   7.926  0.00  0.00    +0.000 A 
ATOM      2  C   UNL     1      45.889   4.455   8.283  0.00  0.00    +0.000 A 
ATOM      3  C   UNL     1      45.235   4.908   9.433  0.00  0.00    +0.000 A 
ATOM      4  C   UNL     1      44.523   4.016  10.233  0.00  0.00    +0.000 A 
ATOM      5  C   UNL     1      44.522   2.659   9.913  0.00  0.00    +0.000 A 
ATOM      6  C   UNL     1      45.170   2.205   8.761  0.00  0.00    +0.000 A 
ENDROOT
BRANCH   1   7
ATOM      7  C   UNL     1      46.492   2.614   6.654  0.00  0.00    +0.000 C 
BRANCH   7   8
ATOM      8  N   UNL     1      47.916   2.915   6.616  0.00  0.00    +0.000 NA
ATOM      9  H   UNL     1      48.187   3.108   5.654  0.00  0.00    +0.000 HD
ATOM     10  H   UNL     1      48.433   2.082   6.899  0.00  0.00    +0.000 HD
ENDBRANCH   7   8
ENDBRANCH   1   7
BRANCH   4  11
ATOM     11  O   UNL     1      43.866   4.571  11.296  0.00  0.00    +0.000 OA
BRANCH  11  12
ATOM     12  C   UNL     1      44.482   4.357  12.569  0.00  0.00    +0.000 C 
BRANCH  12  13
ATOM     13  C   UNL     1      45.485   5.452  12.847  0.00  0.00    +0.000 A 
ATOM     14  C   UNL     1      45.127   6.789  12.652  0.00  0.00    +0.000 A 
ATOM     15  C   UNL     1      46.048   7.787  12.964  0.00  0.00    +0.000 A 
ATOM     16  C   UNL     1      47.288   7.419  13.460  0.00  0.00    +0.000 A 
ATOM     17  F   UNL     1      48.194   8.353  13.771  0.00  0.00    +0.000 F 
ATOM     18  C   UNL     1      47.569   6.076  13.634  0.00  0.00    +0.000 A 
ATOM     19  N   UNL     1      46.694   5.084  13.347  0.00  0.00    +0.000 NA
ENDBRANCH  12  13
ENDBRANCH  11  12
ENDBRANCH   4  11
TORSDOF 5
ENDMDL
MODEL 5
REMARK VINA RESULT:    -5.389      3.040      4.206
REMARK INTER + INTRA:          -7.279
REMARK INTER:                  -6.997
REMARK INTRA:                  -0.283
REMARK UNBOUND:                -0.473
REMARK  Name = 
REMARK  5 active torsions:
REMARK  status: ('A' for Active; 'I' for Inactive)
REMARK    1  A    between atoms: N_1  and  C_2
REMARK    2  A    between atoms: C_2  and  C_3
REMARK    3  A    between atoms: C_6  and  O_7
REMARK    4  A    between atoms: O_7  and  C_8
REMARK    5  A    between atoms: C_8  and  C_9
REMARK                            x       y       z     vdW  Elec       q    Type
REMARK                         _______ _______ _______ _____ _____    ______ ____
ROOT
ATOM      1  C   UNL     1      44.992   4.203   9.821  0.00  0.00    +0.000 A 
ATOM      2  C   UNL     1      44.681   3.242  10.794  0.00  0.00    +0.000 A 
ATOM      3  C   UNL     1      44.986   3.467  12.139  0.00  0.00    +0.000 A 
ATOM      4  C   UNL     1      45.616   4.647  12.529  0.00  0.00    +0.000 A 
ATOM      5  C   UNL     1      45.882   5.629  11.576  0.00  0.00    +0.000 A 
ATOM      6  C   UNL     1      45.584   5.405  10.229  0.00  0.00    +0.000 A 
ENDROOT
BRANCH   1   7
ATOM      7  C   UNL     1      44.731   3.942   8.361  0.00  0.00    +0.000 C 
BRANCH   7   8
ATOM      8  N   UNL     1      45.949   4.020   7.569  0.00  0.00    +0.000 NA
ATOM      9  H   UNL     1      46.608   4.639   8.036  0.00  0.00    +0.000 HD
ATOM     10  H   UNL     1      45.729   4.455   6.673  0.00  0.00    +0.000 HD
ENDBRANCH   7   8
ENDBRANCH   1   7
BRANCH   4  11
ATOM     11  O   UNL     1      45.930   4.738  13.857  0.00  0.00    +0.000 OA
BRANCH  11  12
ATOM     12  C   UNL     1      47.165   5.400  14.145  0.00  0.00    +0.000 C 
BRANCH  12  13
ATOM     13  C   UNL     1      47.684   4.960  15.494  0.00  0.00    +0.000 A 
ATOM     14  C   UNL     1      47.064   3.902  16.165  0.00  0.00    +0.000 A 
ATOM     15  C   UNL     1      47.589   3.476  17.383  0.00  0.00    +0.000 A 
ATOM     16  C   UNL     1      48.711   4.115  17.886  0.00  0.00    +0.000 A 
ATOM     17  F   UNL     1      49.242   3.729  19.053  0.00  0.00    +0.000 F 
ATOM     18  C   UNL     1      49.275   5.149  17.162  0.00  0.00    +0.000 A 
ATOM     19  N   UNL     1      48.793   5.582  15.973  0.00  0.00    +0.000 NA
ENDBRANCH  12  13
ENDBRANCH  11  12
ENDBRANCH   4  11
TORSDOF 5
ENDMDL
MODEL 6
REMARK VINA RESULT:    -5.354      4.283      6.013
REMARK INTER + INTRA:          -7.235
REMARK INTER:                  -7.002
REMARK INTRA:                  -0.233
REMARK UNBOUND:                -0.473
REMARK  Name = 
REMARK  5 active torsions:
REMARK  status: ('A' for Active; 'I' for Inactive)
REMARK    1  A    between atoms: N_1  and  C_2
REMARK    2  A    between atoms: C_2  and  C_3
REMARK    3  A    between atoms: C_6  and  O_7
REMARK    4  A    between atoms: O_7  and  C_8
REMARK    5  A    between atoms: C_8  and  C_9
REMARK                            x       y       z     vdW  Elec       q    Type
REMARK                         _______ _______ _______ _____ _____    ______ ____
ROOT
ATOM      1  C   UNL     1      44.258   5.034  11.809  0.00  0.00    +0.000 A 
ATOM      2  C   UNL     1      44.983   5.951  12.584  0.00  0.00    +0.000 A 
ATOM      3  C   UNL     1      46.054   5.525  13.373  0.00  0.00    +0.000 A 
ATOM      4  C   UNL     1      46.409   4.177  13.409  0.00  0.00    +0.000 A 
ATOM      5  C   UNL     1      45.726   3.268  12.602  0.00  0.00    +0.000 A 
ATOM      6  C   UNL     1      44.651   3.690  11.816  0.00  0.00    +0.000 A 
ENDROOT
BRANCH   1   7
ATOM      7  C   UNL     1      43.059   5.471  11.009  0.00  0.00    +0.000 C 
BRANCH   7   8
ATOM      8  N   UNL     1      42.143   6.280  11.801  0.00  0.00    +0.000 NA
ATOM      9  H   UNL     1      42.063   5.874  12.731  0.00  0.00    +0.000 HD
ATOM     10  H   UNL     1      41.215   6.226  11.382  0.00  0.00    +0.000 HD
ENDBRANCH   7   8
ENDBRANCH   1   7
BRANCH   4  11
ATOM     11  O   UNL     1      47.428   3.857  14.263  0.00  0.00    +0.000 OA
BRANCH  11  12
ATOM     12  C   UNL     1      47.194   4.185  15.636  0.00  0.00    +0.000 C 
BRANCH  12  13
ATOM     13  C   UNL     1      48.444   3.932  16.446  0.00  0.00    +0.000 A 
ATOM     14  C   UNL     1      48.797   2.624  16.789  0.00  0.00    +0.000 A 
ATOM     15  C   UNL     1      49.982   2.407  17.491  0.00  0.00    +0.000 A 
ATOM     16  C   UNL     1      50.770   3.497  17.822  0.00  0.00    +0.000 A 
ATOM     17  F   UNL     1      51.915   3.323  18.494  0.00  0.00    +0.000 F 
ATOM     18  C   UNL     1      50.360   4.762  17.442  0.00  0.00    +0.000 A 
ATOM     19  N   UNL     1      49.219   5.005  16.755  0.00  0.00    +0.000 NA
ENDBRANCH  12  13
ENDBRANCH  11  12
ENDBRANCH   4  11
TORSDOF 5
ENDMDL
MODEL 7
REMARK VINA RESULT:    -5.231      3.126      5.840
REMARK INTER + INTRA:          -7.080
REMARK INTER:                  -6.655
REMARK INTRA:                  -0.425
REMARK UNBOUND:                -0.473
REMARK  Name = 
REMARK  5 active torsions:
REMARK  status: ('A' for Active; 'I' for Inactive)
REMARK    1  A    between atoms: N_1  and  C_2
REMARK    2  A    between atoms: C_2  and  C_3
REMARK    3  A    between atoms: C_6  and  O_7
REMARK    4  A    between atoms: O_7  and  C_8
REMARK    5  A    between atoms: C_8  and  C_9
REMARK                            x       y       z     vdW  Elec       q    Type
REMARK                         _______ _______ _______ _____ _____    ______ ____
ROOT
ATOM      1  C   UNL     1      47.953   7.756  12.986  0.00  0.00    +0.000 A 
ATOM      2  C   UNL     1      47.800   6.365  12.910  0.00  0.00    +0.000 A 
ATOM      3  C   UNL     1      46.536   5.797  12.727  0.00  0.00    +0.000 A 
ATOM      4  C   UNL     1      45.407   6.610  12.630  0.00  0.00    +0.000 A 
ATOM      5  C   UNL     1      45.558   7.996  12.652  0.00  0.00    +0.000 A 
ATOM      6  C   UNL     1      46.820   8.566  12.841  0.00  0.00    +0.000 A 
ENDROOT
BRANCH   1   7
ATOM      7  C   UNL     1      49.300   8.375  13.252  0.00  0.00    +0.000 C 
BRANCH   7   8
ATOM      8  N   UNL     1      50.389   7.521  12.800  0.00  0.00    +0.000 NA
ATOM      9  H   UNL     1      50.198   7.219  11.847  0.00  0.00    +0.000 HD
ATOM     10  H   UNL     1      50.401   6.677  13.372  0.00  0.00    +0.000 HD
ENDBRANCH   7   8
ENDBRANCH   1   7
BRANCH   4  11
ATOM     11  O   UNL     1      44.213   5.953  12.518  0.00  0.00    +0.000 OA
BRANCH  11  12
ATOM     12  C   UNL     1      43.650   5.938  11.203  0.00  0.00    +0.000 C 
BRANCH  12  13
ATOM     13  C   UNL     1      44.067   4.679  10.478  0.00  0.00    +0.000 A 
ATOM     14  C   UNL     1      44.891   4.766   9.353  0.00  0.00    +0.000 A 
ATOM     15  C   UNL     1      45.308   3.591   8.731  0.00  0.00    +0.000 A 
ATOM     16  C   UNL     1      44.892   2.376   9.251  0.00  0.00    +0.000 A 
ATOM     17  F   UNL     1      45.276   1.229   8.677  0.00  0.00    +0.000 F 
ATOM     18  C   UNL     1      44.082   2.368  10.372  0.00  0.00    +0.000 A 
ATOM     19  N   UNL     1      43.666   3.491  11.003  0.00  0.00    +0.000 NA
ENDBRANCH  12  13
ENDBRANCH  11  12
ENDBRANCH   4  11
TORSDOF 5
ENDMDL
MODEL 8
REMARK VINA RESULT:    -5.050      4.441      5.908
REMARK INTER + INTRA:          -6.852
REMARK INTER:                  -6.528
REMARK INTRA:                  -0.324
REMARK UNBOUND:                -0.473
REMARK  Name = 
REMARK  5 active torsions:
REMARK  status: ('A' for Active; 'I' for Inactive)
REMARK    1  A    between atoms: N_1  and  C_2
REMARK    2  A    between atoms: C_2  and  C_3
REMARK    3  A    between atoms: C_6  and  O_7
REMARK    4  A    between atoms: O_7  and  C_8
REMARK    5  A    between atoms: C_8  and  C_9
REMARK                            x       y       z     vdW  Elec       q    Type
REMARK                         _______ _______ _______ _____ _____    ______ ____
ROOT
ATOM      1  C   UNL     1      44.070   5.495  12.036  0.00  0.00    +0.000 A 
ATOM      2  C   UNL     1      44.930   6.452  12.595  0.00  0.00    +0.000 A 
ATOM      3  C   UNL     1      46.090   6.060  13.267  0.00  0.00    +0.000 A 
ATOM      4  C   UNL     1      46.402   4.707  13.400  0.00  0.00    +0.000 A 
ATOM      5  C   UNL     1      45.580   3.752  12.803  0.00  0.00    +0.000 A 
ATOM      6  C   UNL     1      44.416   4.142  12.136  0.00  0.00    +0.000 A 
ENDROOT
BRANCH   1   7
ATOM      7  C   UNL     1      42.782   5.903  11.371  0.00  0.00    +0.000 C 
BRANCH   7   8
ATOM      8  N   UNL     1      42.744   7.332  11.093  0.00  0.00    +0.000 NA
ATOM      9  H   UNL     1      42.977   7.484  10.114  0.00  0.00    +0.000 HD
ATOM     10  H   UNL     1      43.474   7.790  11.638  0.00  0.00    +0.000 HD
ENDBRANCH   7   8
ENDBRANCH   1   7
BRANCH   4  11
ATOM     11  O   UNL     1      47.524   4.429  14.132  0.00  0.00    +0.000 OA
BRANCH  11  12
ATOM     12  C   UNL     1      47.397   3.334  15.043  0.00  0.00    +0.000 C 
BRANCH  12  13
ATOM     13  C   UNL     1      47.981   3.710  16.385  0.00  0.00    +0.000 A 
ATOM     14  C   UNL     1      47.265   4.550  17.243  0.00  0.00    +0.000 A 
ATOM     15  C   UNL     1      47.795   4.842  18.498  0.00  0.00    +0.000 A 
ATOM     16  C   UNL     1      49.015   4.289  18.853  0.00  0.00    +0.000 A 
ATOM     17  F   UNL     1      49.552   4.549  20.051  0.00  0.00    +0.000 F 
ATOM     18  C   UNL     1      49.663   3.461  17.954  0.00  0.00    +0.000 A 
ATOM     19  N   UNL     1      49.170   3.152  16.731  0.00  0.00    +0.000 NA
ENDBRANCH  12  13
ENDBRANCH  11  12
ENDBRANCH   4  11
TORSDOF 5
ENDMDL
MODEL 9
REMARK VINA RESULT:    -4.685      3.715      5.383
REMARK INTER + INTRA:          -6.391
REMARK INTER:                  -6.032
REMARK INTRA:                  -0.360
REMARK UNBOUND:                -0.473
REMARK  Name = 
REMARK  5 active torsions:
REMARK  status: ('A' for Active; 'I' for Inactive)
REMARK    1  A    between atoms: N_1  and  C_2
REMARK    2  A    between atoms: C_2  and  C_3
REMARK    3  A    between atoms: C_6  and  O_7
REMARK    4  A    between atoms: O_7  and  C_8
REMARK    5  A    between atoms: C_8  and  C_9
REMARK                            x       y       z     vdW  Elec       q    Type
REMARK                         _______ _______ _______ _____ _____    ______ ____
ROOT
ATOM      1  C   UNL     1      44.408   4.164  11.179  0.00  0.00    +0.000 A 
ATOM      2  C   UNL     1      45.246   4.973  10.399  0.00  0.00    +0.000 A 
ATOM      3  C   UNL     1      45.646   6.232  10.856  0.00  0.00    +0.000 A 
ATOM      4  C   UNL     1      45.204   6.704  12.091  0.00  0.00    +0.000 A 
ATOM      5  C   UNL     1      44.412   5.885  12.895  0.00  0.00    +0.000 A 
ATOM      6  C   UNL     1      44.006   4.628  12.438  0.00  0.00    +0.000 A 
ENDROOT
BRANCH   1   7
ATOM      7  C   UNL     1      43.916   2.835  10.667  0.00  0.00    +0.000 C 
BRANCH   7   8
ATOM      8  N   UNL     1      43.043   2.173  11.626  0.00  0.00    +0.000 NA
ATOM      9  H   UNL     1      42.547   1.419  11.156  0.00  0.00    +0.000 HD
ATOM     10  H   UNL     1      42.334   2.838  11.934  0.00  0.00    +0.000 HD
ENDBRANCH   7   8
ENDBRANCH   1   7
BRANCH   4  11
ATOM     11  O   UNL     1      45.598   7.973  12.413  0.00  0.00    +0.000 OA
BRANCH  11  12
ATOM     12  C   UNL     1      46.689   8.053  13.336  0.00  0.00    +0.000 C 
BRANCH  12  13
ATOM     13  C   UNL     1      47.967   8.377  12.597  0.00  0.00    +0.000 A 
ATOM     14  C   UNL     1      48.142   9.645  12.037  0.00  0.00    +0.000 A 
ATOM     15  C   UNL     1      49.348   9.942  11.405  0.00  0.00    +0.000 A 
ATOM     16  C   UNL     1      50.334   8.969  11.357  0.00  0.00    +0.000 A 
ATOM     17  F   UNL     1      51.504   9.223  10.760  0.00  0.00    +0.000 F 
ATOM     18  C   UNL     1      50.091   7.739  11.941  0.00  0.00    +0.000 A 
ATOM     19  N   UNL     1      48.933   7.422  12.567  0.00  0.00    +0.000 NA
ENDBRANCH  12  13
ENDBRANCH  11  12
ENDBRANCH   4  11
TORSDOF 5
ENDMDL
