MODEL 1
REMARK VINA RESULT:    -8.419      0.000      0.000
REMARK INTER + INTRA:         -11.799
REMARK INTER:                 -10.881
REMARK INTRA:                  -0.919
REMARK UNBOUND:                -0.919
REMARK  Name = 
REMARK  5 active torsions:
REMARK  status: ('A' for Active; 'I' for Inactive)
REMARK    1  A    between atoms: C_2  and  C_4
REMARK    2  A    between atoms: C_7  and  O_8
REMARK    3  A    between atoms: O_8  and  C_9
REMARK    4  A    between atoms: C_9  and  C_10
REMARK    5  A    between atoms: C_14  and  C_15
REMARK                            x       y       z     vdW  Elec       q    Type
REMARK                         _______ _______ _______ _____ _____    ______ ____
ROOT
ATOM      1  C   UNL     1      43.615   4.095  11.331  0.00  0.00    +0.000 C 
ENDROOT
BRANCH   1   2
ATOM      2  C   UNL     1      44.745   4.720  12.120  0.00  0.00    +0.000 A 
ATOM      3  C   UNL     1      45.672   3.900  12.778  0.00  0.00    +0.000 A 
ATOM      4  C   UNL     1      46.711   4.462  13.518  0.00  0.00    +0.000 A 
ATOM      5  C   UNL     1      46.844   5.848  13.598  0.00  0.00    +0.000 A 
ATOM      6  C   UNL     1      45.936   6.690  12.943  0.00  0.00    +0.000 A 
ATOM      7  C   UNL     1      44.871   6.112  12.237  0.00  0.00    +0.000 A 
BRANCH   6   8
ATOM      8  C   UNL     1      46.130   8.193  12.886  0.00  0.00    +0.000 C 
ATOM      9  C   UNL     1      45.096   8.830  11.944  0.00  0.00    +0.000 C 
ATOM     10  C   UNL     1      45.304  10.332  11.863  0.00  0.00    +0.000 C 
ATOM     11  O   UNL     1      46.640  10.635  11.464  0.00  0.00    +0.000 OA
ATOM     12  C   UNL     1      47.607  10.147  12.395  0.00  0.00    +0.000 C 
ATOM     13  C   UNL     1      47.547   8.628  12.496  0.00  0.00    +0.000 C 
ENDBRANCH   6   8
ENDBRANCH   1   2
BRANCH   1  14
ATOM     14  O   UNL     1      43.654   4.543   9.973  0.00  0.00    +0.000 OA
BRANCH  14  18
ATOM     15  C   UNL     1      46.381   2.437   7.730  0.00  0.00    +0.000 A 
ATOM     16  C   UNL     1      45.576   1.765   8.652  0.00  0.00    +0.000 A 
ATOM     17  C   UNL     1      44.661   2.492   9.410  0.00  0.00    +0.000 A 
ATOM     18  C   UNL     1      44.583   3.865   9.217  0.00  0.00    +0.000 A 
ATOM     19  N   UNL     1      45.354   4.543   8.343  0.00  0.00    +0.000 NA
ATOM     20  C   UNL     1      46.244   3.815   7.625  0.00  0.00    +0.000 A 
BRANCH  15  22
ATOM     21  N   UNL     1      48.461   2.492   6.476  0.00  0.00    +0.000 N 
ATOM     22  C   UNL     1      47.371   1.766   6.868  0.00  0.00    +0.000 C 
ATOM     23  O   UNL     1      47.250   0.590   6.548  0.00  0.00    +0.000 OA
ATOM     24  H   UNL     1      49.186   1.979   5.987  0.00  0.00    +0.000 HD
ATOM     25  H   UNL     1      48.726   3.360   6.922  0.00  0.00    +0.000 HD
ENDBRANCH  15  22
ENDBRANCH  14  18
ENDBRANCH   1  14
TORSDOF 5
ENDMDL
MODEL 2
REMARK VINA RESULT:    -8.238      1.037      1.390
REMARK INTER + INTRA:         -11.565
REMARK INTER:                 -10.752
REMARK INTRA:                  -0.813
REMARK UNBOUND:                -0.919
REMARK  Name = 
REMARK  5 active torsions:
REMARK  status: ('A' for Active; 'I' for Inactive)
REMARK    1  A    between atoms: C_2  and  C_4
REMARK    2  A    between atoms: C_7  and  O_8
REMARK    3  A    between atoms: O_8  and  C_9
REMARK    4  A    between atoms: C_9  and  C_10
REMARK    5  A    between atoms: C_14  and  C_15
REMARK                            x       y       z     vdW  Elec       q    Type
REMARK                         _______ _______ _______ _____ _____    ______ ____
ROOT
ATOM      1  C   UNL     1      43.710   4.142  11.249  0.00  0.00    +0.000 C 
ENDROOT
BRANCH   1   2
ATOM      2  C   UNL     1      44.935   4.618  11.998  0.00  0.00    +0.000 A 
ATOM      3  C   UNL     1      45.588   3.753  12.886  0.00  0.00    +0.000 A 
ATOM      4  C   UNL     1      46.712   4.181  13.592  0.00  0.00    +0.000 A 
ATOM      5  C   UNL     1      47.204   5.473  13.408  0.00  0.00    +0.000 A 
ATOM      6  C   UNL     1      46.574   6.355  12.520  0.00  0.00    +0.000 A 
ATOM      7  C   UNL     1      45.420   5.925  11.849  0.00  0.00    +0.000 A 
BRANCH   6   8
ATOM      8  C   UNL     1      47.160   7.713  12.185  0.00  0.00    +0.000 C 
ATOM      9  C   UNL     1      48.633   7.572  11.772  0.00  0.00    +0.000 C 
ATOM     10  C   UNL     1      49.231   8.934  11.462  0.00  0.00    +0.000 C 
ATOM     11  O   UNL     1      49.076   9.817  12.571  0.00  0.00    +0.000 OA
ATOM     12  C   UNL     1      47.703  10.048  12.892  0.00  0.00    +0.000 C 
ATOM     13  C   UNL     1      47.016   8.751  13.304  0.00  0.00    +0.000 C 
ENDBRANCH   6   8
ENDBRANCH   1   2
BRANCH   1  14
ATOM     14  O   UNL     1      43.753   4.595   9.893  0.00  0.00    +0.000 OA
BRANCH  14  18
ATOM     15  C   UNL     1      46.480   2.497   7.643  0.00  0.00    +0.000 A 
ATOM     16  C   UNL     1      45.592   1.809   8.472  0.00  0.00    +0.000 A 
ATOM     17  C   UNL     1      44.677   2.533   9.234  0.00  0.00    +0.000 A 
ATOM     18  C   UNL     1      44.683   3.919   9.137  0.00  0.00    +0.000 A 
ATOM     19  N   UNL     1      45.536   4.610   8.355  0.00  0.00    +0.000 NA
ATOM     20  C   UNL     1      46.423   3.884   7.631  0.00  0.00    +0.000 A 
BRANCH  15  22
ATOM     21  N   UNL     1      48.527   2.584   6.338  0.00  0.00    +0.000 N 
ATOM     22  C   UNL     1      47.478   1.832   6.785  0.00  0.00    +0.000 C 
ATOM     23  O   UNL     1      47.399   0.640   6.516  0.00  0.00    +0.000 OA
ATOM     24  H   UNL     1      49.262   2.082   5.853  0.00  0.00    +0.000 HD
ATOM     25  H   UNL     1      48.766   3.480   6.742  0.00  0.00    +0.000 HD
ENDBRANCH  15  22
ENDBRANCH  14  18
ENDBRANCH   1  14
TORSDOF 5
ENDMDL
MODEL 3
REMARK VINA RESULT:    -8.142      2.457      3.922
REMARK INTER + INTRA:         -11.441
REMARK INTER:                 -10.755
REMARK INTRA:                  -0.686
REMARK UNBOUND:                -0.919
REMARK  Name = 
REMARK  5 active torsions:
REMARK  status: ('A' for Active; 'I' for Inactive)
REMARK    1  A    between atoms: C_2  and  C_4
REMARK    2  A    between atoms: C_7  and  O_8
REMARK    3  A    between atoms: O_8  and  C_9
REMARK    4  A    between atoms: C_9  and  C_10
REMARK    5  A    between atoms: C_14  and  C_15
REMARK                            x       y       z     vdW  Elec       q    Type
REMARK                         _______ _______ _______ _____ _____    ______ ____
ROOT
ATOM      1  C   UNL     1      43.856   4.174  11.446  0.00  0.00    +0.000 C 
ENDROOT
BRANCH   1   2
ATOM      2  C   UNL     1      44.991   4.941  12.089  0.00  0.00    +0.000 A 
ATOM      3  C   UNL     1      45.458   6.121  11.497  0.00  0.00    +0.000 A 
ATOM      4  C   UNL     1      46.510   6.832  12.073  0.00  0.00    +0.000 A 
ATOM      5  C   UNL     1      47.098   6.378  13.254  0.00  0.00    +0.000 A 
ATOM      6  C   UNL     1      46.644   5.205  13.870  0.00  0.00    +0.000 A 
ATOM      7  C   UNL     1      45.613   4.478  13.258  0.00  0.00    +0.000 A 
BRANCH   6   8
ATOM      8  C   UNL     1      47.158   4.759  15.226  0.00  0.00    +0.000 C 
ATOM      9  C   UNL     1      48.289   5.685  15.700  0.00  0.00    +0.000 C 
ATOM     10  C   UNL     1      48.824   5.224  17.045  0.00  0.00    +0.000 C 
ATOM     11  O   UNL     1      49.247   3.863  16.980  0.00  0.00    +0.000 OA
ATOM     12  C   UNL     1      48.175   2.978  16.653  0.00  0.00    +0.000 C 
ATOM     13  C   UNL     1      47.610   3.295  15.274  0.00  0.00    +0.000 C 
ENDBRANCH   6   8
ENDBRANCH   1   2
BRANCH   1  14
ATOM     14  O   UNL     1      43.781   4.481  10.050  0.00  0.00    +0.000 OA
BRANCH  14  18
ATOM     15  C   UNL     1      46.394   2.273   7.769  0.00  0.00    +0.000 A 
ATOM     16  C   UNL     1      46.337   3.659   7.611  0.00  0.00    +0.000 A 
ATOM     17  C   UNL     1      45.442   4.395   8.385  0.00  0.00    +0.000 A 
ATOM     18  C   UNL     1      44.638   3.716   9.292  0.00  0.00    +0.000 A 
ATOM     19  N   UNL     1      44.662   2.378   9.459  0.00  0.00    +0.000 NA
ATOM     20  C   UNL     1      45.533   1.685   8.687  0.00  0.00    +0.000 A 
BRANCH  15  22
ATOM     21  N   UNL     1      48.389   1.989   6.413  0.00  0.00    +0.000 N 
ATOM     22  C   UNL     1      47.311   1.401   7.013  0.00  0.00    +0.000 C 
ATOM     23  O   UNL     1      47.143   0.190   6.957  0.00  0.00    +0.000 OA
ATOM     24  H   UNL     1      49.069   1.360   6.002  0.00  0.00    +0.000 HD
ATOM     25  H   UNL     1      48.703   2.921   6.649  0.00  0.00    +0.000 HD
ENDBRANCH  15  22
ENDBRANCH  14  18
ENDBRANCH   1  14
TORSDOF 5
ENDMDL
MODEL 4
REMARK VINA RESULT:    -6.914      3.775      7.452
REMARK INTER + INTRA:          -9.854
REMARK INTER:                  -9.146
REMARK INTRA:                  -0.708
REMARK UNBOUND:                -0.919
REMARK  Name = 
REMARK  5 active torsions:
REMARK  status: ('A' for Active; 'I' for Inactive)
REMARK    1  A    between atoms: C_2  and  C_4
REMARK    2  A    between atoms: C_7  and  O_8
REMARK    3  A    between atoms: O_8  and  C_9
REMARK    4  A    between atoms: C_9  and  C_10
REMARK    5  A    between atoms: C_14  and  C_15
REMARK                            x       y       z     vdW  Elec       q    Type
REMARK                         _______ _______ _______ _____ _____    ______ ____
ROOT
ATOM      1  C   UNL     1      46.318   7.085  12.216  0.00  0.00    +0.000 C 
ENDROOT
BRANCH   1   2
ATOM      2  C   UNL     1      45.304   6.181  11.550  0.00  0.00    +0.000 A 
ATOM      3  C   UNL     1      43.961   6.226  11.949  0.00  0.00    +0.000 A 
ATOM      4  C   UNL     1      43.018   5.390  11.352  0.00  0.00    +0.000 A 
ATOM      5  C   UNL     1      43.404   4.509  10.341  0.00  0.00    +0.000 A 
ATOM      6  C   UNL     1      44.738   4.451   9.918  0.00  0.00    +0.000 A 
ATOM      7  C   UNL     1      45.683   5.267  10.557  0.00  0.00    +0.000 A 
BRANCH   6   8
ATOM      8  C   UNL     1      45.168   3.615   8.728  0.00  0.00    +0.000 C 
ATOM      9  C   UNL     1      45.602   2.214   9.188  0.00  0.00    +0.000 C 
ATOM     10  C   UNL     1      46.059   1.383   8.002  0.00  0.00    +0.000 C 
ATOM     11  O   UNL     1      47.099   2.051   7.289  0.00  0.00    +0.000 OA
ATOM     12  C   UNL     1      46.671   3.305   6.756  0.00  0.00    +0.000 C 
ATOM     13  C   UNL     1      46.264   4.259   7.873  0.00  0.00    +0.000 C 
ENDBRANCH   6   8
ENDBRANCH   1   2
BRANCH   1  14
ATOM     14  O   UNL     1      47.551   6.387  12.411  0.00  0.00    +0.000 OA
BRANCH  14  18
ATOM     15  C   UNL     1      48.020   5.036  16.266  0.00  0.00    +0.000 A 
ATOM     16  C   UNL     1      47.110   4.404  15.417  0.00  0.00    +0.000 A 
ATOM     17  C   UNL     1      46.956   4.876  14.115  0.00  0.00    +0.000 A 
ATOM     18  C   UNL     1      47.720   5.963  13.710  0.00  0.00    +0.000 A 
ATOM     19  N   UNL     1      48.597   6.601  14.510  0.00  0.00    +0.000 NA
ATOM     20  C   UNL     1      48.721   6.129  15.775  0.00  0.00    +0.000 A 
BRANCH  15  22
ATOM     21  N   UNL     1      47.191   4.489  18.483  0.00  0.00    +0.000 N 
ATOM     22  C   UNL     1      48.272   4.612  17.655  0.00  0.00    +0.000 C 
ATOM     23  O   UNL     1      49.399   4.336  18.047  0.00  0.00    +0.000 OA
ATOM     24  H   UNL     1      47.371   4.082  19.394  0.00  0.00    +0.000 HD
ATOM     25  H   UNL     1      46.242   4.451  18.137  0.00  0.00    +0.000 HD
ENDBRANCH  15  22
ENDBRANCH  14  18
ENDBRANCH   1  14
TORSDOF 5
ENDMDL
MODEL 5
REMARK VINA RESULT:    -6.731      3.129      7.271
REMARK INTER + INTRA:          -9.618
REMARK INTER:                  -8.949
REMARK INTRA:                  -0.668
REMARK UNBOUND:                -0.919
REMARK  Name = 
REMARK  5 active torsions:
REMARK  status: ('A' for Active; 'I' for Inactive)
REMARK    1  A    between atoms: C_2  and  C_4
REMARK    2  A    between atoms: C_7  and  O_8
REMARK    3  A    between atoms: O_8  and  C_9
REMARK    4  A    between atoms: C_9  and  C_10
REMARK    5  A    between atoms: C_14  and  C_15
REMARK                            x       y       z     vdW  Elec       q    Type
REMARK                         _______ _______ _______ _____ _____    ______ ____
ROOT
ATOM      1  C   UNL     1      44.927   6.436  11.393  0.00  0.00    +0.000 C 
ENDROOT
BRANCH   1   2
ATOM      2  C   UNL     1      44.654   5.021  10.932  0.00  0.00    +0.000 A 
ATOM      3  C   UNL     1      43.786   4.204  11.669  0.00  0.00    +0.000 A 
ATOM      4  C   UNL     1      43.534   2.894  11.262  0.00  0.00    +0.000 A 
ATOM      5  C   UNL     1      44.136   2.391  10.109  0.00  0.00    +0.000 A 
ATOM      6  C   UNL     1      45.001   3.190   9.351  0.00  0.00    +0.000 A 
ATOM      7  C   UNL     1      45.279   4.491   9.795  0.00  0.00    +0.000 A 
BRANCH   6   8
ATOM      8  C   UNL     1      45.560   2.729   8.018  0.00  0.00    +0.000 C 
ATOM      9  C   UNL     1      46.383   1.444   8.199  0.00  0.00    +0.000 C 
ATOM     10  C   UNL     1      46.966   0.995   6.870  0.00  0.00    +0.000 C 
ATOM     11  O   UNL     1      47.739   2.039   6.280  0.00  0.00    +0.000 OA
ATOM     12  C   UNL     1      46.956   3.201   6.000  0.00  0.00    +0.000 C 
ATOM     13  C   UNL     1      46.384   3.792   7.283  0.00  0.00    +0.000 C 
ENDBRANCH   6   8
ENDBRANCH   1   2
BRANCH   1  14
ATOM     14  O   UNL     1      46.222   6.857  10.956  0.00  0.00    +0.000 OA
BRANCH  14  18
ATOM     15  C   UNL     1      49.008   7.032  13.975  0.00  0.00    +0.000 A 
ATOM     16  C   UNL     1      49.239   7.716  12.780  0.00  0.00    +0.000 A 
ATOM     17  C   UNL     1      48.289   7.643  11.762  0.00  0.00    +0.000 A 
ATOM     18  C   UNL     1      47.143   6.889  11.979  0.00  0.00    +0.000 A 
ATOM     19  N   UNL     1      46.898   6.209  13.117  0.00  0.00    +0.000 NA
ATOM     20  C   UNL     1      47.841   6.288  14.087  0.00  0.00    +0.000 A 
BRANCH  15  22
ATOM     21  N   UNL     1      50.799   8.108  15.214  0.00  0.00    +0.000 N 
ATOM     22  C   UNL     1      49.937   7.052  15.120  0.00  0.00    +0.000 C 
ATOM     23  O   UNL     1      49.912   6.181  15.980  0.00  0.00    +0.000 OA
ATOM     24  H   UNL     1      51.343   8.165  16.068  0.00  0.00    +0.000 HD
ATOM     25  H   UNL     1      50.676   8.961  14.685  0.00  0.00    +0.000 HD
ENDBRANCH  15  22
ENDBRANCH  14  18
ENDBRANCH   1  14
TORSDOF 5
ENDMDL
MODEL 6
REMARK VINA RESULT:    -6.584      5.524      7.967
REMARK INTER + INTRA:          -9.428
REMARK INTER:                  -8.659
REMARK INTRA:                  -0.769
REMARK UNBOUND:                -0.919
REMARK  Name = 
REMARK  5 active torsions:
REMARK  status: ('A' for Active; 'I' for Inactive)
REMARK    1  A    between atoms: C_2  and  C_4
REMARK    2  A    between atoms: C_7  and  O_8
REMARK    3  A    between atoms: O_8  and  C_9
REMARK    4  A    between atoms: C_9  and  C_10
REMARK    5  A    between atoms: C_14  and  C_15
REMARK                            x       y       z     vdW  Elec       q    Type
REMARK                         _______ _______ _______ _____ _____    ______ ____
ROOT
ATOM      1  C   UNL     1      47.470   4.797  16.187  0.00  0.00    +0.000 C 
ENDROOT
BRANCH   1   2
ATOM      2  C   UNL     1      47.290   5.326  14.781  0.00  0.00    +0.000 A 
ATOM      3  C   UNL     1      48.220   6.231  14.253  0.00  0.00    +0.000 A 
ATOM      4  C   UNL     1      48.061   6.735  12.963  0.00  0.00    +0.000 A 
ATOM      5  C   UNL     1      46.979   6.331  12.181  0.00  0.00    +0.000 A 
ATOM      6  C   UNL     1      46.040   5.420  12.683  0.00  0.00    +0.000 A 
ATOM      7  C   UNL     1      46.189   4.953  13.997  0.00  0.00    +0.000 A 
BRANCH   6   8
ATOM      8  C   UNL     1      44.935   4.847  11.817  0.00  0.00    +0.000 C 
ATOM      9  C   UNL     1      44.584   3.421  12.272  0.00  0.00    +0.000 C 
ATOM     10  C   UNL     1      43.496   2.834  11.389  0.00  0.00    +0.000 C 
ATOM     11  O   UNL     1      43.886   2.870  10.017  0.00  0.00    +0.000 OA
ATOM     12  C   UNL     1      44.102   4.202   9.550  0.00  0.00    +0.000 C 
ATOM     13  C   UNL     1      45.240   4.868  10.315  0.00  0.00    +0.000 C 
ENDBRANCH   6   8
ENDBRANCH   1   2
BRANCH   1  14
ATOM     14  O   UNL     1      47.586   3.371  16.168  0.00  0.00    +0.000 OA
BRANCH  14  18
ATOM     15  C   UNL     1      51.282   2.126  17.469  0.00  0.00    +0.000 A 
ATOM     16  C   UNL     1      50.776   3.355  17.896  0.00  0.00    +0.000 A 
ATOM     17  C   UNL     1      49.525   3.768  17.442  0.00  0.00    +0.000 A 
ATOM     18  C   UNL     1      48.825   2.934  16.579  0.00  0.00    +0.000 A 
ATOM     19  N   UNL     1      49.293   1.749  16.140  0.00  0.00    +0.000 NA
ATOM     20  C   UNL     1      50.516   1.374  16.587  0.00  0.00    +0.000 A 
BRANCH  15  22
ATOM     21  N   UNL     1      52.650   0.255  18.196  0.00  0.00    +0.000 N 
ATOM     22  C   UNL     1      52.586   1.587  17.896  0.00  0.00    +0.000 C 
ATOM     23  O   UNL     1      53.587   2.290  17.940  0.00  0.00    +0.000 OA
ATOM     24  H   UNL     1      53.576  -0.120  18.370  0.00  0.00    +0.000 HD
ATOM     25  H   UNL     1      51.928  -0.400  17.926  0.00  0.00    +0.000 HD
ENDBRANCH  15  22
ENDBRANCH  14  18
ENDBRANCH   1  14
TORSDOF 5
ENDMDL
MODEL 7
REMARK VINA RESULT:    -6.439      4.829      8.239
REMARK INTER + INTRA:          -9.240
REMARK INTER:                  -8.574
REMARK INTRA:                  -0.666
REMARK UNBOUND:                -0.919
REMARK  Name = 
REMARK  5 active torsions:
REMARK  status: ('A' for Active; 'I' for Inactive)
REMARK    1  A    between atoms: C_2  and  C_4
REMARK    2  A    between atoms: C_7  and  O_8
REMARK    3  A    between atoms: O_8  and  C_9
REMARK    4  A    between atoms: C_9  and  C_10
REMARK    5  A    between atoms: C_14  and  C_15
REMARK                            x       y       z     vdW  Elec       q    Type
REMARK                         _______ _______ _______ _____ _____    ______ ____
ROOT
ATOM      1  C   UNL     1      47.947   6.324  13.830  0.00  0.00    +0.000 C 
ENDROOT
BRANCH   1   2
ATOM      2  C   UNL     1      46.782   6.600  12.905  0.00  0.00    +0.000 A 
ATOM      3  C   UNL     1      46.166   7.859  12.915  0.00  0.00    +0.000 A 
ATOM      4  C   UNL     1      45.084   8.123  12.076  0.00  0.00    +0.000 A 
ATOM      5  C   UNL     1      44.613   7.137  11.209  0.00  0.00    +0.000 A 
ATOM      6  C   UNL     1      45.216   5.873  11.174  0.00  0.00    +0.000 A 
ATOM      7  C   UNL     1      46.276   5.607  12.053  0.00  0.00    +0.000 A 
BRANCH   6   8
ATOM      8  C   UNL     1      44.829   4.826  10.148  0.00  0.00    +0.000 C 
ATOM      9  C   UNL     1      44.807   3.430  10.790  0.00  0.00    +0.000 C 
ATOM     10  C   UNL     1      44.446   2.375   9.758  0.00  0.00    +0.000 C 
ATOM     11  O   UNL     1      45.338   2.432   8.646  0.00  0.00    +0.000 OA
ATOM     12  C   UNL     1      45.281   3.688   7.969  0.00  0.00    +0.000 C 
ATOM     13  C   UNL     1      45.708   4.823   8.892  0.00  0.00    +0.000 C 
ENDBRANCH   6   8
ENDBRANCH   1   2
BRANCH   1  14
ATOM     14  O   UNL     1      47.820   5.023  14.411  0.00  0.00    +0.000 OA
BRANCH  14  18
ATOM     15  C   UNL     1      48.291   4.964  18.495  0.00  0.00    +0.000 A 
ATOM     16  C   UNL     1      47.544   3.963  17.870  0.00  0.00    +0.000 A 
ATOM     17  C   UNL     1      47.387   3.999  16.485  0.00  0.00    +0.000 A 
ATOM     18  C   UNL     1      47.985   5.034  15.777  0.00  0.00    +0.000 A 
ATOM     19  N   UNL     1      48.700   6.020  16.355  0.00  0.00    +0.000 NA
ATOM     20  C   UNL     1      48.830   5.969  17.703  0.00  0.00    +0.000 A 
BRANCH  15  22
ATOM     21  N   UNL     1      48.513   3.833  20.633  0.00  0.00    +0.000 N 
ATOM     22  C   UNL     1      48.531   5.016  19.948  0.00  0.00    +0.000 C 
ATOM     23  O   UNL     1      48.782   6.069  20.519  0.00  0.00    +0.000 OA
ATOM     24  H   UNL     1      48.799   3.875  21.605  0.00  0.00    +0.000 HD
ATOM     25  H   UNL     1      48.571   2.935  20.172  0.00  0.00    +0.000 HD
ENDBRANCH  15  22
ENDBRANCH  14  18
ENDBRANCH   1  14
TORSDOF 5
ENDMDL
MODEL 8
REMARK VINA RESULT:    -6.278      5.720      7.776
REMARK INTER + INTRA:          -9.032
REMARK INTER:                  -8.453
REMARK INTRA:                  -0.579
REMARK UNBOUND:                -0.919
REMARK  Name = 
REMARK  5 active torsions:
REMARK  status: ('A' for Active; 'I' for Inactive)
REMARK    1  A    between atoms: C_2  and  C_4
REMARK    2  A    between atoms: C_7  and  O_8
REMARK    3  A    between atoms: O_8  and  C_9
REMARK    4  A    between atoms: C_9  and  C_10
REMARK    5  A    between atoms: C_14  and  C_15
REMARK                            x       y       z     vdW  Elec       q    Type
REMARK                         _______ _______ _______ _____ _____    ______ ____
ROOT
ATOM      1  C   UNL     1      47.182   4.338  16.045  0.00  0.00    +0.000 C 
ENDROOT
BRANCH   1   2
ATOM      2  C   UNL     1      48.233   4.458  17.128  0.00  0.00    +0.000 A 
ATOM      3  C   UNL     1      47.955   5.189  18.290  0.00  0.00    +0.000 A 
ATOM      4  C   UNL     1      48.917   5.318  19.291  0.00  0.00    +0.000 A 
ATOM      5  C   UNL     1      50.163   4.707  19.147  0.00  0.00    +0.000 A 
ATOM      6  C   UNL     1      50.463   3.964  17.998  0.00  0.00    +0.000 A 
ATOM      7  C   UNL     1      49.501   3.878  16.981  0.00  0.00    +0.000 A 
BRANCH   6   8
ATOM      8  C   UNL     1      51.747   3.168  17.868  0.00  0.00    +0.000 C 
ATOM      9  C   UNL     1      51.433   1.684  17.620  0.00  0.00    +0.000 C 
ATOM     10  C   UNL     1      52.717   0.879  17.517  0.00  0.00    +0.000 C 
ATOM     11  O   UNL     1      53.522   1.062  18.681  0.00  0.00    +0.000 OA
ATOM     12  C   UNL     1      53.917   2.423  18.858  0.00  0.00    +0.000 C 
ATOM     13  C   UNL     1      52.702   3.320  19.058  0.00  0.00    +0.000 C 
ENDBRANCH   6   8
ENDBRANCH   1   2
BRANCH   1  14
ATOM     14  O   UNL     1      47.652   4.934  14.832  0.00  0.00    +0.000 OA
BRANCH  14  18
ATOM     15  C   UNL     1      45.168   4.327  11.613  0.00  0.00    +0.000 A 
ATOM     16  C   UNL     1      45.647   5.610  11.885  0.00  0.00    +0.000 A 
ATOM     17  C   UNL     1      46.484   5.803  12.983  0.00  0.00    +0.000 A 
ATOM     18  C   UNL     1      46.810   4.704  13.768  0.00  0.00    +0.000 A 
ATOM     19  N   UNL     1      46.353   3.457  13.537  0.00  0.00    +0.000 NA
ATOM     20  C   UNL     1      45.534   3.297  12.469  0.00  0.00    +0.000 A 
BRANCH  15  22
ATOM     21  N   UNL     1      44.496   4.693   9.307  0.00  0.00    +0.000 N 
ATOM     22  C   UNL     1      44.290   4.009  10.472  0.00  0.00    +0.000 C 
ATOM     23  O   UNL     1      43.436   3.134  10.546  0.00  0.00    +0.000 OA
ATOM     24  H   UNL     1      43.966   4.376   8.503  0.00  0.00    +0.000 HD
ATOM     25  H   UNL     1      45.340   5.220   9.127  0.00  0.00    +0.000 HD
ENDBRANCH  15  22
ENDBRANCH  14  18
ENDBRANCH   1  14
TORSDOF 5
ENDMDL
MODEL 9
REMARK VINA RESULT:    -6.054      5.001      8.546
REMARK INTER + INTRA:          -8.743
REMARK INTER:                  -8.004
REMARK INTRA:                  -0.739
REMARK UNBOUND:                -0.919
REMARK  Name = 
REMARK  5 active torsions:
REMARK  status: ('A' for Active; 'I' for Inactive)
REMARK    1  A    between atoms: C_2  and  C_4
REMARK    2  A    between atoms: C_7  and  O_8
REMARK    3  A    between atoms: O_8  and  C_9
REMARK    4  A    between atoms: C_9  and  C_10
REMARK    5  A    between atoms: C_14  and  C_15
REMARK                            x       y       z     vdW  Elec       q    Type
REMARK                         _______ _______ _______ _____ _____    ______ ____
ROOT
ATOM      1  C   UNL     1      48.713   7.612  14.372  0.00  0.00    +0.000 C 
ENDROOT
BRANCH   1   2
ATOM      2  C   UNL     1      47.408   7.495  13.617  0.00  0.00    +0.000 A 
ATOM      3  C   UNL     1      46.696   8.652  13.272  0.00  0.00    +0.000 A 
ATOM      4  C   UNL     1      45.486   8.558  12.586  0.00  0.00    +0.000 A 
ATOM      5  C   UNL     1      44.980   7.310  12.225  0.00  0.00    +0.000 A 
ATOM      6  C   UNL     1      45.676   6.139  12.551  0.00  0.00    +0.000 A 
ATOM      7  C   UNL     1      46.871   6.245  13.278  0.00  0.00    +0.000 A 
BRANCH   6   8
ATOM      8  C   UNL     1      45.235   4.776  12.052  0.00  0.00    +0.000 C 
ATOM      9  C   UNL     1      45.017   4.809  10.531  0.00  0.00    +0.000 C 
ATOM     10  C   UNL     1      44.549   3.453  10.031  0.00  0.00    +0.000 C 
ATOM     11  O   UNL     1      43.372   3.039  10.725  0.00  0.00    +0.000 OA
ATOM     12  C   UNL     1      43.594   2.893  12.128  0.00  0.00    +0.000 C 
ATOM     13  C   UNL     1      43.991   4.223  12.757  0.00  0.00    +0.000 C 
ENDBRANCH   6   8
ENDBRANCH   1   2
BRANCH   1  14
ATOM     14  O   UNL     1      49.174   6.317  14.767  0.00  0.00    +0.000 OA
BRANCH  14  18
ATOM     15  C   UNL     1      48.475   5.630  18.760  0.00  0.00    +0.000 A 
ATOM     16  C   UNL     1      48.639   6.938  18.301  0.00  0.00    +0.000 A 
ATOM     17  C   UNL     1      48.882   7.157  16.946  0.00  0.00    +0.000 A 
ATOM     18  C   UNL     1      48.950   6.057  16.100  0.00  0.00    +0.000 A 
ATOM     19  N   UNL     1      48.808   4.783  16.516  0.00  0.00    +0.000 NA
ATOM     20  C   UNL     1      48.582   4.596  17.839  0.00  0.00    +0.000 A 
BRANCH  15  22
ATOM     21  N   UNL     1      47.060   5.789  20.729  0.00  0.00    +0.000 N 
ATOM     22  C   UNL     1      48.201   5.287  20.167  0.00  0.00    +0.000 C 
ATOM     23  O   UNL     1      48.940   4.545  20.801  0.00  0.00    +0.000 OA
ATOM     24  H   UNL     1      46.829   5.445  21.653  0.00  0.00    +0.000 HD
ATOM     25  H   UNL     1      46.307   6.178  20.177  0.00  0.00    +0.000 HD
ENDBRANCH  15  22
ENDBRANCH  14  18
ENDBRANCH   1  14
TORSDOF 5
ENDMDL
