MODEL 1
REMARK VINA RESULT:    -8.362      0.000      0.000
REMARK INTER + INTRA:         -12.352
REMARK INTER:                 -11.295
REMARK INTRA:                  -1.057
REMARK UNBOUND:                -1.057
REMARK  Name = 
REMARK  7 active torsions:
REMARK  status: ('A' for Active; 'I' for Inactive)
REMARK    1  A    between atoms: C_1  and  S_2
REMARK    2  A    between atoms: S_2  and  C_5
REMARK    3  A    between atoms: N_9  and  C_10
REMARK    4  A    between atoms: C_10  and  C_11
REMARK    5  A    between atoms: C_11  and  C_14
REMARK    6  A    between atoms: C_18  and  O_19
REMARK    7  A    between atoms: O_19  and  C_20
REMARK                            x       y       z     vdW  Elec       q    Type
REMARK                         _______ _______ _______ _____ _____    ______ ____
ROOT
ATOM      1  C   UNL     1      43.563   4.925  12.778  0.00  0.00    +0.000 C 
ATOM      2  F   UNL     1      42.705   5.854  13.294  0.00  0.00    +0.000 F 
ATOM      3  F   UNL     1      43.339   3.787  13.501  0.00  0.00    +0.000 F 
ENDROOT
BRANCH   1   4
ATOM      4  C   UNL     1      45.010   5.379  12.857  0.00  0.00    +0.000 A 
ATOM      5  C   UNL     1      45.525   6.306  11.939  0.00  0.00    +0.000 A 
ATOM      6  C   UNL     1      46.861   6.708  12.017  0.00  0.00    +0.000 A 
ATOM      7  C   UNL     1      47.706   6.183  13.003  0.00  0.00    +0.000 A 
ATOM      8  C   UNL     1      47.211   5.246  13.906  0.00  0.00    +0.000 A 
ATOM      9  C   UNL     1      45.870   4.857  13.835  0.00  0.00    +0.000 A 
BRANCH   8  10
ATOM     10  O   UNL     1      47.921   4.669  14.929  0.00  0.00    +0.000 OA
BRANCH  10  11
ATOM     11  C   UNL     1      47.228   3.994  16.002  0.00  0.00    +0.000 C 
ATOM     12  C   UNL     1      47.297   4.611  17.417  0.00  0.00    +0.000 C 
ATOM     13  N   UNL     1      47.555   3.266  17.979  0.00  0.00    +0.000 NA
ATOM     14  C   UNL     1      48.015   2.825  16.645  0.00  0.00    +0.000 C 
ATOM     15  H   UNL     1      46.714   2.783  18.297  0.00  0.00    +0.000 HD
ENDBRANCH  10  11
ENDBRANCH   8  10
ENDBRANCH   1   4
BRANCH   1  16
ATOM     16  C   UNL     1      43.176   4.659  11.303  0.00  0.00    +0.000 C 
BRANCH  16  21
ATOM     17  C   UNL     1      46.214   2.447   7.826  0.00  0.00    +0.000 A 
ATOM     18  C   UNL     1      45.996   3.782   8.128  0.00  0.00    +0.000 A 
ATOM     19  C   UNL     1      45.086   4.095   9.137  0.00  0.00    +0.000 A 
ATOM     20  C   UNL     1      44.411   3.080   9.811  0.00  0.00    +0.000 A 
ATOM     21  N   UNL     1      43.507   3.322  10.810  0.00  0.00    +0.000 N 
ATOM     22  N   UNL     1      44.618   1.783   9.504  0.00  0.00    +0.000 NA
ATOM     23  C   UNL     1      45.500   1.487   8.513  0.00  0.00    +0.000 A 
ATOM     24  H   UNL     1      43.079   2.503  11.224  0.00  0.00    +0.000 HD
BRANCH  17  26
ATOM     25  C   UNL     1      46.779   2.926   5.155  0.00  0.00    +0.000 C 
ATOM     26  S   UNL     1      47.340   1.988   6.553  0.00  0.00    +0.000 S 
ATOM     27  O   UNL     1      47.119   0.584   6.267  0.00  0.00    +0.000 OA
ATOM     28  O   UNL     1      48.651   2.476   6.929  0.00  0.00    +0.000 OA
ENDBRANCH  17  26
ENDBRANCH  16  21
ENDBRANCH   1  16
TORSDOF 6
ENDMDL
MODEL 2
REMARK VINA RESULT:    -7.806      2.690      4.176
REMARK INTER + INTRA:         -11.601
REMARK INTER:                 -10.874
REMARK INTRA:                  -0.727
REMARK UNBOUND:                -1.057
REMARK  Name = 
REMARK  7 active torsions:
REMARK  status: ('A' for Active; 'I' for Inactive)
REMARK    1  A    between atoms: C_1  and  S_2
REMARK    2  A    between atoms: S_2  and  C_5
REMARK    3  A    between atoms: N_9  and  C_10
REMARK    4  A    between atoms: C_10  and  C_11
REMARK    5  A    between atoms: C_11  and  C_14
REMARK    6  A    between atoms: C_18  and  O_19
REMARK    7  A    between atoms: O_19  and  C_20
REMARK                            x       y       z     vdW  Elec       q    Type
REMARK                         _______ _______ _______ _____ _____    ______ ____
ROOT
ATOM      1  C   UNL     1      43.830   4.403  12.630  0.00  0.00    +0.000 C 
ATOM      2  F   UNL     1      42.872   4.628  13.578  0.00  0.00    +0.000 F 
ATOM      3  F   UNL     1      44.254   3.122  12.843  0.00  0.00    +0.000 F 
ENDROOT
BRANCH   1   4
ATOM      4  C   UNL     1      44.966   5.407  12.718  0.00  0.00    +0.000 A 
ATOM      5  C   UNL     1      46.299   4.980  12.807  0.00  0.00    +0.000 A 
ATOM      6  C   UNL     1      47.334   5.914  12.899  0.00  0.00    +0.000 A 
ATOM      7  C   UNL     1      47.055   7.286  12.914  0.00  0.00    +0.000 A 
ATOM      8  C   UNL     1      45.734   7.721  12.848  0.00  0.00    +0.000 A 
ATOM      9  C   UNL     1      44.702   6.785  12.742  0.00  0.00    +0.000 A 
BRANCH   8  10
ATOM     10  O   UNL     1      45.323   9.030  12.834  0.00  0.00    +0.000 OA
BRANCH  10  11
ATOM     11  C   UNL     1      45.367   9.791  11.607  0.00  0.00    +0.000 C 
ATOM     12  C   UNL     1      45.063  11.305  11.675  0.00  0.00    +0.000 C 
ATOM     13  N   UNL     1      44.200  11.175  10.479  0.00  0.00    +0.000 NA
ATOM     14  C   UNL     1      44.069   9.730  10.763  0.00  0.00    +0.000 C 
ATOM     15  H   UNL     1      44.681  11.372   9.601  0.00  0.00    +0.000 HD
ENDBRANCH  10  11
ENDBRANCH   8  10
ENDBRANCH   1   4
BRANCH   1  16
ATOM     16  C   UNL     1      43.169   4.480  11.232  0.00  0.00    +0.000 C 
BRANCH  16  21
ATOM     17  C   UNL     1      46.377   2.641   7.693  0.00  0.00    +0.000 A 
ATOM     18  C   UNL     1      45.648   2.000   8.682  0.00  0.00    +0.000 A 
ATOM     19  C   UNL     1      44.851   2.773   9.525  0.00  0.00    +0.000 A 
ATOM     20  C   UNL     1      44.804   4.157   9.370  0.00  0.00    +0.000 A 
ATOM     21  N   UNL     1      44.041   4.970  10.165  0.00  0.00    +0.000 N 
ATOM     22  N   UNL     1      45.526   4.776   8.414  0.00  0.00    +0.000 NA
ATOM     23  C   UNL     1      46.309   4.016   7.603  0.00  0.00    +0.000 A 
ATOM     24  H   UNL     1      44.091   5.960   9.958  0.00  0.00    +0.000 HD
BRANCH  17  26
ATOM     25  C   UNL     1      47.082   2.441   5.018  0.00  0.00    +0.000 C 
ATOM     26  S   UNL     1      47.414   1.722   6.606  0.00  0.00    +0.000 S 
ATOM     27  O   UNL     1      46.921   0.358   6.592  0.00  0.00    +0.000 OA
ATOM     28  O   UNL     1      48.788   2.014   6.958  0.00  0.00    +0.000 OA
ENDBRANCH  17  26
ENDBRANCH  16  21
ENDBRANCH   1  16
TORSDOF 6
ENDMDL
MODEL 3
REMARK VINA RESULT:    -7.760      3.542      8.241
REMARK INTER + INTRA:         -11.540
REMARK INTER:                 -10.938
REMARK INTRA:                  -0.602
REMARK UNBOUND:                -1.057
REMARK  Name = 
REMARK  7 active torsions:
REMARK  status: ('A' for Active; 'I' for Inactive)
REMARK    1  A    between atoms: C_1  and  S_2
REMARK    2  A    between atoms: S_2  and  C_5
REMARK    3  A    between atoms: N_9  and  C_10
REMARK    4  A    between atoms: C_10  and  C_11
REMARK    5  A    between atoms: C_11  and  C_14
REMARK    6  A    between atoms: C_18  and  O_19
REMARK    7  A    between atoms: O_19  and  C_20
REMARK                            x       y       z     vdW  Elec       q    Type
REMARK                         _______ _______ _______ _____ _____    ______ ____
ROOT
ATOM      1  C   UNL     1      45.721   6.140  11.197  0.00  0.00    +0.000 C 
ATOM      2  F   UNL     1      44.929   7.224  10.941  0.00  0.00    +0.000 F 
ATOM      3  F   UNL     1      46.988   6.536  10.875  0.00  0.00    +0.000 F 
ENDROOT
BRANCH   1   4
ATOM      4  C   UNL     1      45.284   4.917  10.412  0.00  0.00    +0.000 A 
ATOM      5  C   UNL     1      44.490   3.925  11.005  0.00  0.00    +0.000 A 
ATOM      6  C   UNL     1      44.104   2.799  10.273  0.00  0.00    +0.000 A 
ATOM      7  C   UNL     1      44.512   2.640   8.943  0.00  0.00    +0.000 A 
ATOM      8  C   UNL     1      45.319   3.607   8.350  0.00  0.00    +0.000 A 
ATOM      9  C   UNL     1      45.692   4.740   9.080  0.00  0.00    +0.000 A 
BRANCH   8  10
ATOM     10  O   UNL     1      45.773   3.586   7.056  0.00  0.00    +0.000 OA
BRANCH  10  11
ATOM     11  C   UNL     1      47.144   3.228   6.775  0.00  0.00    +0.000 C 
ATOM     12  C   UNL     1      47.503   2.777   5.341  0.00  0.00    +0.000 C 
ATOM     13  N   UNL     1      48.296   1.660   5.901  0.00  0.00    +0.000 NA
ATOM     14  C   UNL     1      47.523   1.774   7.156  0.00  0.00    +0.000 C 
ATOM     15  H   UNL     1      49.287   1.875   6.016  0.00  0.00    +0.000 HD
ENDBRANCH  10  11
ENDBRANCH   8  10
ENDBRANCH   1   4
BRANCH   1  16
ATOM     16  C   UNL     1      45.667   5.837  12.715  0.00  0.00    +0.000 C 
BRANCH  16  21
ATOM     17  C   UNL     1      48.572   4.447  16.694  0.00  0.00    +0.000 A 
ATOM     18  C   UNL     1      47.466   3.841  16.117  0.00  0.00    +0.000 A 
ATOM     19  C   UNL     1      46.860   4.465  15.029  0.00  0.00    +0.000 A 
ATOM     20  C   UNL     1      47.358   5.674  14.547  0.00  0.00    +0.000 A 
ATOM     21  N   UNL     1      46.807   6.336  13.483  0.00  0.00    +0.000 N 
ATOM     22  N   UNL     1      48.426   6.265  15.122  0.00  0.00    +0.000 NA
ATOM     23  C   UNL     1      49.006   5.655  16.189  0.00  0.00    +0.000 A 
ATOM     24  H   UNL     1      47.256   7.208  13.227  0.00  0.00    +0.000 HD
BRANCH  17  26
ATOM     25  C   UNL     1      50.451   2.514  17.342  0.00  0.00    +0.000 C 
ATOM     26  S   UNL     1      49.373   3.715  18.081  0.00  0.00    +0.000 S 
ATOM     27  O   UNL     1      48.361   3.002  18.836  0.00  0.00    +0.000 OA
ATOM     28  O   UNL     1      50.190   4.734  18.705  0.00  0.00    +0.000 OA
ENDBRANCH  17  26
ENDBRANCH  16  21
ENDBRANCH   1  16
TORSDOF 6
ENDMDL
MODEL 4
REMARK VINA RESULT:    -6.803      3.929      8.564
REMARK INTER + INTRA:         -10.247
REMARK INTER:                  -9.501
REMARK INTRA:                  -0.745
REMARK UNBOUND:                -1.057
REMARK  Name = 
REMARK  7 active torsions:
REMARK  status: ('A' for Active; 'I' for Inactive)
REMARK    1  A    between atoms: C_1  and  S_2
REMARK    2  A    between atoms: S_2  and  C_5
REMARK    3  A    between atoms: N_9  and  C_10
REMARK    4  A    between atoms: C_10  and  C_11
REMARK    5  A    between atoms: C_11  and  C_14
REMARK    6  A    between atoms: C_18  and  O_19
REMARK    7  A    between atoms: O_19  and  C_20
REMARK                            x       y       z     vdW  Elec       q    Type
REMARK                         _______ _______ _______ _____ _____    ______ ____
ROOT
ATOM      1  C   UNL     1      45.249   6.128  11.392  0.00  0.00    +0.000 C 
ATOM      2  F   UNL     1      44.888   5.880  12.686  0.00  0.00    +0.000 F 
ATOM      3  F   UNL     1      44.478   7.185  10.999  0.00  0.00    +0.000 F 
ENDROOT
BRANCH   1   4
ATOM      4  C   UNL     1      45.054   4.913  10.503  0.00  0.00    +0.000 A 
ATOM      5  C   UNL     1      44.313   3.808  10.945  0.00  0.00    +0.000 A 
ATOM      6  C   UNL     1      44.150   2.692  10.121  0.00  0.00    +0.000 A 
ATOM      7  C   UNL     1      44.732   2.656   8.848  0.00  0.00    +0.000 A 
ATOM      8  C   UNL     1      45.488   3.739   8.406  0.00  0.00    +0.000 A 
ATOM      9  C   UNL     1      45.637   4.860   9.227  0.00  0.00    +0.000 A 
BRANCH   8  10
ATOM     10  O   UNL     1      46.095   3.843   7.180  0.00  0.00    +0.000 OA
BRANCH  10  11
ATOM     11  C   UNL     1      46.582   2.659   6.510  0.00  0.00    +0.000 C 
ATOM     12  C   UNL     1      47.930   2.061   6.973  0.00  0.00    +0.000 C 
ATOM     13  N   UNL     1      48.335   1.904   5.558  0.00  0.00    +0.000 NA
ATOM     14  C   UNL     1      47.340   2.933   5.186  0.00  0.00    +0.000 C 
ATOM     15  H   UNL     1      48.129   0.984   5.169  0.00  0.00    +0.000 HD
ENDBRANCH  10  11
ENDBRANCH   8  10
ENDBRANCH   1   4
BRANCH   1  16
ATOM     16  C   UNL     1      46.735   6.562  11.369  0.00  0.00    +0.000 C 
BRANCH  16  21
ATOM     17  C   UNL     1      48.769   7.483  15.976  0.00  0.00    +0.000 A 
ATOM     18  C   UNL     1      48.493   6.291  15.323  0.00  0.00    +0.000 A 
ATOM     19  C   UNL     1      47.917   6.347  14.055  0.00  0.00    +0.000 A 
ATOM     20  C   UNL     1      47.623   7.578  13.472  0.00  0.00    +0.000 A 
ATOM     21  N   UNL     1      47.058   7.699  12.231  0.00  0.00    +0.000 N 
ATOM     22  N   UNL     1      47.882   8.734  14.118  0.00  0.00    +0.000 NA
ATOM     23  C   UNL     1      48.434   8.670  15.358  0.00  0.00    +0.000 A 
ATOM     24  H   UNL     1      46.888   8.646  11.915  0.00  0.00    +0.000 HD
BRANCH  17  26
ATOM     25  C   UNL     1      50.298   9.052  17.675  0.00  0.00    +0.000 C 
ATOM     26  S   UNL     1      49.482   7.479  17.585  0.00  0.00    +0.000 S 
ATOM     27  O   UNL     1      50.500   6.446  17.603  0.00  0.00    +0.000 OA
ATOM     28  O   UNL     1      48.399   7.474  18.546  0.00  0.00    +0.000 OA
ENDBRANCH  17  26
ENDBRANCH  16  21
ENDBRANCH   1  16
TORSDOF 6
ENDMDL
MODEL 5
REMARK VINA RESULT:    -6.695      3.376      7.557
REMARK INTER + INTRA:         -10.100
REMARK INTER:                  -9.296
REMARK INTRA:                  -0.804
REMARK UNBOUND:                -1.057
REMARK  Name = 
REMARK  7 active torsions:
REMARK  status: ('A' for Active; 'I' for Inactive)
REMARK    1  A    between atoms: C_1  and  S_2
REMARK    2  A    between atoms: S_2  and  C_5
REMARK    3  A    between atoms: N_9  and  C_10
REMARK    4  A    between atoms: C_10  and  C_11
REMARK    5  A    between atoms: C_11  and  C_14
REMARK    6  A    between atoms: C_18  and  O_19
REMARK    7  A    between atoms: O_19  and  C_20
REMARK                            x       y       z     vdW  Elec       q    Type
REMARK                         _______ _______ _______ _____ _____    ______ ____
ROOT
ATOM      1  C   UNL     1      45.533   7.315  12.028  0.00  0.00    +0.000 C 
ATOM      2  F   UNL     1      45.328   8.025  13.177  0.00  0.00    +0.000 F 
ATOM      3  F   UNL     1      45.145   8.148  11.016  0.00  0.00    +0.000 F 
ENDROOT
BRANCH   1   4
ATOM      4  C   UNL     1      44.763   6.007  12.022  0.00  0.00    +0.000 A 
ATOM      5  C   UNL     1      43.649   5.822  12.853  0.00  0.00    +0.000 A 
ATOM      6  C   UNL     1      42.956   4.609  12.846  0.00  0.00    +0.000 A 
ATOM      7  C   UNL     1      43.369   3.558  12.017  0.00  0.00    +0.000 A 
ATOM      8  C   UNL     1      44.487   3.722  11.203  0.00  0.00    +0.000 A 
ATOM      9  C   UNL     1      45.170   4.942  11.202  0.00  0.00    +0.000 A 
BRANCH   8  10
ATOM     10  O   UNL     1      44.987   2.786  10.333  0.00  0.00    +0.000 OA
BRANCH  10  11
ATOM     11  C   UNL     1      45.705   3.205   9.152  0.00  0.00    +0.000 C 
ATOM     12  C   UNL     1      44.885   3.660   7.923  0.00  0.00    +0.000 C 
ATOM     13  N   UNL     1      45.770   2.857   7.049  0.00  0.00    +0.000 NA
ATOM     14  C   UNL     1      46.154   2.047   8.225  0.00  0.00    +0.000 C 
ATOM     15  H   UNL     1      46.547   3.385   6.651  0.00  0.00    +0.000 HD
ENDBRANCH  10  11
ENDBRANCH   8  10
ENDBRANCH   1   4
BRANCH   1  16
ATOM     16  C   UNL     1      47.048   7.033  11.884  0.00  0.00    +0.000 C 
BRANCH  16  21
ATOM     17  C   UNL     1      47.980   4.411  16.181  0.00  0.00    +0.000 A 
ATOM     18  C   UNL     1      47.155   4.129  15.103  0.00  0.00    +0.000 A 
ATOM     19  C   UNL     1      47.091   5.050  14.058  0.00  0.00    +0.000 A 
ATOM     20  C   UNL     1      47.838   6.225  14.114  0.00  0.00    +0.000 A 
ATOM     21  N   UNL     1      47.819   7.168  13.121  0.00  0.00    +0.000 N 
ATOM     22  N   UNL     1      48.629   6.499  15.172  0.00  0.00    +0.000 NA
ATOM     23  C   UNL     1      48.677   5.600  16.191  0.00  0.00    +0.000 A 
ATOM     24  H   UNL     1      48.402   7.981  13.275  0.00  0.00    +0.000 HD
BRANCH  17  26
ATOM     25  C   UNL     1      48.470   4.355  18.910  0.00  0.00    +0.000 C 
ATOM     26  S   UNL     1      48.091   3.294  17.538  0.00  0.00    +0.000 S 
ATOM     27  O   UNL     1      49.240   2.442  17.301  0.00  0.00    +0.000 OA
ATOM     28  O   UNL     1      46.775   2.729  17.752  0.00  0.00    +0.000 OA
ENDBRANCH  17  26
ENDBRANCH  16  21
ENDBRANCH   1  16
TORSDOF 6
ENDMDL
MODEL 6
REMARK VINA RESULT:    -6.458      4.100      5.963
REMARK INTER + INTRA:          -9.780
REMARK INTER:                  -8.551
REMARK INTRA:                  -1.229
REMARK UNBOUND:                -1.057
REMARK  Name = 
REMARK  7 active torsions:
REMARK  status: ('A' for Active; 'I' for Inactive)
REMARK    1  A    between atoms: C_1  and  S_2
REMARK    2  A    between atoms: S_2  and  C_5
REMARK    3  A    between atoms: N_9  and  C_10
REMARK    4  A    between atoms: C_10  and  C_11
REMARK    5  A    between atoms: C_11  and  C_14
REMARK    6  A    between atoms: C_18  and  O_19
REMARK    7  A    between atoms: O_19  and  C_20
REMARK                            x       y       z     vdW  Elec       q    Type
REMARK                         _______ _______ _______ _____ _____    ______ ____
ROOT
ATOM      1  C   UNL     1      49.038   8.460  15.791  0.00  0.00    +0.000 C 
ATOM      2  F   UNL     1      50.123   9.255  16.031  0.00  0.00    +0.000 F 
ATOM      3  F   UNL     1      48.080   9.298  15.295  0.00  0.00    +0.000 F 
ENDROOT
BRANCH   1   4
ATOM      4  C   UNL     1      48.575   7.735  17.042  0.00  0.00    +0.000 A 
ATOM      5  C   UNL     1      47.997   8.436  18.109  0.00  0.00    +0.000 A 
ATOM      6  C   UNL     1      47.585   7.758  19.259  0.00  0.00    +0.000 A 
ATOM      7  C   UNL     1      47.753   6.372  19.367  0.00  0.00    +0.000 A 
ATOM      8  C   UNL     1      48.346   5.667  18.322  0.00  0.00    +0.000 A 
ATOM      9  C   UNL     1      48.744   6.347  17.167  0.00  0.00    +0.000 A 
BRANCH   8  10
ATOM     10  O   UNL     1      48.553   4.311  18.289  0.00  0.00    +0.000 OA
BRANCH  10  11
ATOM     11  C   UNL     1      49.088   3.690  17.099  0.00  0.00    +0.000 C 
ATOM     12  C   UNL     1      48.230   2.621  16.385  0.00  0.00    +0.000 C 
ATOM     13  N   UNL     1      49.428   1.761  16.254  0.00  0.00    +0.000 NA
ATOM     14  C   UNL     1      50.053   2.507  17.367  0.00  0.00    +0.000 C 
ATOM     15  H   UNL     1      49.920   1.871  15.367  0.00  0.00    +0.000 HD
ENDBRANCH  10  11
ENDBRANCH   8  10
ENDBRANCH   1   4
BRANCH   1  16
ATOM     16  C   UNL     1      49.413   7.431  14.696  0.00  0.00    +0.000 C 
BRANCH  16  21
ATOM     17  C   UNL     1      45.622   4.890  12.377  0.00  0.00    +0.000 A 
ATOM     18  C   UNL     1      46.310   4.627  13.551  0.00  0.00    +0.000 A 
ATOM     19  C   UNL     1      47.321   5.505  13.939  0.00  0.00    +0.000 A 
ATOM     20  C   UNL     1      47.628   6.612  13.151  0.00  0.00    +0.000 A 
ATOM     21  N   UNL     1      48.608   7.510  13.477  0.00  0.00    +0.000 N 
ATOM     22  N   UNL     1      46.963   6.854  12.002  0.00  0.00    +0.000 NA
ATOM     23  C   UNL     1      45.986   5.988  11.626  0.00  0.00    +0.000 A 
ATOM     24  H   UNL     1      48.741   8.273  12.824  0.00  0.00    +0.000 HD
BRANCH  17  26
ATOM     25  C   UNL     1      43.012   4.917  11.440  0.00  0.00    +0.000 C 
ATOM     26  S   UNL     1      44.344   3.810  11.826  0.00  0.00    +0.000 S 
ATOM     27  O   UNL     1      43.941   3.005  12.963  0.00  0.00    +0.000 OA
ATOM     28  O   UNL     1      44.792   3.192  10.596  0.00  0.00    +0.000 OA
ENDBRANCH  17  26
ENDBRANCH  16  21
ENDBRANCH   1  16
TORSDOF 6
ENDMDL
MODEL 7
REMARK VINA RESULT:    -6.053      3.809      8.543
REMARK INTER + INTRA:          -9.233
REMARK INTER:                  -8.512
REMARK INTRA:                  -0.722
REMARK UNBOUND:                -1.057
REMARK  Name = 
REMARK  7 active torsions:
REMARK  status: ('A' for Active; 'I' for Inactive)
REMARK    1  A    between atoms: C_1  and  S_2
REMARK    2  A    between atoms: S_2  and  C_5
REMARK    3  A    between atoms: N_9  and  C_10
REMARK    4  A    between atoms: C_10  and  C_11
REMARK    5  A    between atoms: C_11  and  C_14
REMARK    6  A    between atoms: C_18  and  O_19
REMARK    7  A    between atoms: O_19  and  C_20
REMARK                            x       y       z     vdW  Elec       q    Type
REMARK                         _______ _______ _______ _____ _____    ______ ____
ROOT
ATOM      1  C   UNL     1      46.430   5.468  13.131  0.00  0.00    +0.000 C 
ATOM      2  F   UNL     1      46.474   6.813  13.369  0.00  0.00    +0.000 F 
ATOM      3  F   UNL     1      47.719   5.109  12.855  0.00  0.00    +0.000 F 
ENDROOT
BRANCH   1   4
ATOM      4  C   UNL     1      45.481   5.121  11.998  0.00  0.00    +0.000 A 
ATOM      5  C   UNL     1      44.130   4.845  12.248  0.00  0.00    +0.000 A 
ATOM      6  C   UNL     1      43.270   4.516  11.197  0.00  0.00    +0.000 A 
ATOM      7  C   UNL     1      43.747   4.447   9.882  0.00  0.00    +0.000 A 
ATOM      8  C   UNL     1      45.093   4.698   9.624  0.00  0.00    +0.000 A 
ATOM      9  C   UNL     1      45.947   5.040  10.676  0.00  0.00    +0.000 A 
BRANCH   8  10
ATOM     10  O   UNL     1      45.686   4.683   8.387  0.00  0.00    +0.000 OA
BRANCH  10  11
ATOM     11  C   UNL     1      45.703   3.467   7.606  0.00  0.00    +0.000 C 
ATOM     12  C   UNL     1      45.947   2.130   8.342  0.00  0.00    +0.000 C 
ATOM     13  N   UNL     1      46.897   1.731   7.280  0.00  0.00    +0.000 NA
ATOM     14  C   UNL     1      47.059   3.157   6.924  0.00  0.00    +0.000 C 
ATOM     15  H   UNL     1      46.475   1.174   6.536  0.00  0.00    +0.000 HD
ENDBRANCH  10  11
ENDBRANCH   8  10
ENDBRANCH   1   4
BRANCH   1  16
ATOM     16  C   UNL     1      45.982   4.752  14.429  0.00  0.00    +0.000 C 
BRANCH  16  21
ATOM     17  C   UNL     1      49.658   4.589  17.989  0.00  0.00    +0.000 A 
ATOM     18  C   UNL     1      48.842   5.628  17.569  0.00  0.00    +0.000 A 
ATOM     19  C   UNL     1      47.920   5.379  16.552  0.00  0.00    +0.000 A 
ATOM     20  C   UNL     1      47.838   4.113  15.976  0.00  0.00    +0.000 A 
ATOM     21  N   UNL     1      46.955   3.806  14.976  0.00  0.00    +0.000 N 
ATOM     22  N   UNL     1      48.644   3.110  16.381  0.00  0.00    +0.000 NA
ATOM     23  C   UNL     1      49.546   3.364  17.365  0.00  0.00    +0.000 A 
ATOM     24  H   UNL     1      46.991   2.853  14.635  0.00  0.00    +0.000 HD
BRANCH  17  26
ATOM     25  C   UNL     1      51.355   6.529  19.011  0.00  0.00    +0.000 C 
ATOM     26  S   UNL     1      50.851   4.845  19.258  0.00  0.00    +0.000 S 
ATOM     27  O   UNL     1      51.985   3.991  18.962  0.00  0.00    +0.000 OA
ATOM     28  O   UNL     1      50.164   4.760  20.530  0.00  0.00    +0.000 OA
ENDBRANCH  17  26
ENDBRANCH  16  21
ENDBRANCH   1  16
TORSDOF 6
ENDMDL
MODEL 8
REMARK VINA RESULT:    -6.048      4.094      7.865
REMARK INTER + INTRA:          -9.227
REMARK INTER:                  -8.278
REMARK INTRA:                  -0.949
REMARK UNBOUND:                -1.057
REMARK  Name = 
REMARK  7 active torsions:
REMARK  status: ('A' for Active; 'I' for Inactive)
REMARK    1  A    between atoms: C_1  and  S_2
REMARK    2  A    between atoms: S_2  and  C_5
REMARK    3  A    between atoms: N_9  and  C_10
REMARK    4  A    between atoms: C_10  and  C_11
REMARK    5  A    between atoms: C_11  and  C_14
REMARK    6  A    between atoms: C_18  and  O_19
REMARK    7  A    between atoms: O_19  and  C_20
REMARK                            x       y       z     vdW  Elec       q    Type
REMARK                         _______ _______ _______ _____ _____    ______ ____
ROOT
ATOM      1  C   UNL     1      49.094   8.268  12.331  0.00  0.00    +0.000 C 
ATOM      2  F   UNL     1      49.573   9.117  11.373  0.00  0.00    +0.000 F 
ATOM      3  F   UNL     1      49.873   7.149  12.243  0.00  0.00    +0.000 F 
ENDROOT
BRANCH   1   4
ATOM      4  C   UNL     1      47.621   7.957  12.132  0.00  0.00    +0.000 A 
ATOM      5  C   UNL     1      46.631   8.852  12.564  0.00  0.00    +0.000 A 
ATOM      6  C   UNL     1      45.279   8.550  12.384  0.00  0.00    +0.000 A 
ATOM      7  C   UNL     1      44.893   7.346  11.782  0.00  0.00    +0.000 A 
ATOM      8  C   UNL     1      45.866   6.439  11.370  0.00  0.00    +0.000 A 
ATOM      9  C   UNL     1      47.218   6.751  11.538  0.00  0.00    +0.000 A 
BRANCH   8  10
ATOM     10  O   UNL     1      45.629   5.237  10.752  0.00  0.00    +0.000 OA
BRANCH  10  11
ATOM     11  C   UNL     1      44.395   4.527  10.999  0.00  0.00    +0.000 C 
ATOM     12  C   UNL     1      44.393   3.421  12.078  0.00  0.00    +0.000 C 
ATOM     13  N   UNL     1      43.637   2.540  11.159  0.00  0.00    +0.000 NA
ATOM     14  C   UNL     1      44.119   3.355  10.023  0.00  0.00    +0.000 C 
ATOM     15  H   UNL     1      42.625   2.582  11.285  0.00  0.00    +0.000 HD
ENDBRANCH  10  11
ENDBRANCH   8  10
ENDBRANCH   1   4
BRANCH   1  16
ATOM     16  C   UNL     1      49.311   8.916  13.720  0.00  0.00    +0.000 C 
BRANCH  16  21
ATOM     17  C   UNL     1      48.680   4.811  16.713  0.00  0.00    +0.000 A 
ATOM     18  C   UNL     1      47.789   5.485  15.891  0.00  0.00    +0.000 A 
ATOM     19  C   UNL     1      48.247   6.599  15.189  0.00  0.00    +0.000 A 
ATOM     20  C   UNL     1      49.569   7.019  15.327  0.00  0.00    +0.000 A 
ATOM     21  N   UNL     1      50.078   8.104  14.665  0.00  0.00    +0.000 N 
ATOM     22  N   UNL     1      50.426   6.366  16.138  0.00  0.00    +0.000 NA
ATOM     23  C   UNL     1      49.969   5.287  16.826  0.00  0.00    +0.000 A 
ATOM     24  H   UNL     1      51.052   8.313  14.847  0.00  0.00    +0.000 HD
BRANCH  17  26
ATOM     25  C   UNL     1      49.113   2.082  16.941  0.00  0.00    +0.000 C 
ATOM     26  S   UNL     1      48.157   3.406  17.637  0.00  0.00    +0.000 S 
ATOM     27  O   UNL     1      46.764   3.170  17.312  0.00  0.00    +0.000 OA
ATOM     28  O   UNL     1      48.581   3.599  19.008  0.00  0.00    +0.000 OA
ENDBRANCH  17  26
ENDBRANCH  16  21
ENDBRANCH   1  16
TORSDOF 6
ENDMDL
MODEL 9
REMARK VINA RESULT:    -5.939      4.082      5.720
REMARK INTER + INTRA:          -9.079
REMARK INTER:                  -8.374
REMARK INTRA:                  -0.705
REMARK UNBOUND:                -1.057
REMARK  Name = 
REMARK  7 active torsions:
REMARK  status: ('A' for Active; 'I' for Inactive)
REMARK    1  A    between atoms: C_1  and  S_2
REMARK    2  A    between atoms: S_2  and  C_5
REMARK    3  A    between atoms: N_9  and  C_10
REMARK    4  A    between atoms: C_10  and  C_11
REMARK    5  A    between atoms: C_11  and  C_14
REMARK    6  A    between atoms: C_18  and  O_19
REMARK    7  A    between atoms: O_19  and  C_20
REMARK                            x       y       z     vdW  Elec       q    Type
REMARK                         _______ _______ _______ _____ _____    ______ ____
ROOT
ATOM      1  C   UNL     1      49.676   7.881  14.464  0.00  0.00    +0.000 C 
ATOM      2  F   UNL     1      49.918   7.362  13.224  0.00  0.00    +0.000 F 
ATOM      3  F   UNL     1      50.207   9.140  14.438  0.00  0.00    +0.000 F 
ENDROOT
BRANCH   1   4
ATOM      4  C   UNL     1      50.277   7.027  15.567  0.00  0.00    +0.000 A 
ATOM      5  C   UNL     1      51.655   7.051  15.825  0.00  0.00    +0.000 A 
ATOM      6  C   UNL     1      52.197   6.252  16.836  0.00  0.00    +0.000 A 
ATOM      7  C   UNL     1      51.375   5.410  17.595  0.00  0.00    +0.000 A 
ATOM      8  C   UNL     1      50.008   5.362  17.332  0.00  0.00    +0.000 A 
ATOM      9  C   UNL     1      49.467   6.173  16.330  0.00  0.00    +0.000 A 
BRANCH   8  10
ATOM     10  O   UNL     1      49.090   4.599  18.009  0.00  0.00    +0.000 OA
BRANCH  10  11
ATOM     11  C   UNL     1      48.994   3.181  17.749  0.00  0.00    +0.000 C 
ATOM     12  C   UNL     1      50.219   2.467  17.132  0.00  0.00    +0.000 C 
ATOM     13  N   UNL     1      49.320   1.761  16.191  0.00  0.00    +0.000 NA
ATOM     14  C   UNL     1      48.306   2.815  16.410  0.00  0.00    +0.000 C 
ATOM     15  H   UNL     1      49.023   0.841  16.516  0.00  0.00    +0.000 HD
ENDBRANCH  10  11
ENDBRANCH   8  10
ENDBRANCH   1   4
BRANCH   1  16
ATOM     16  C   UNL     1      48.145   7.993  14.663  0.00  0.00    +0.000 C 
BRANCH  16  21
ATOM     17  C   UNL     1      45.252   5.087  11.599  0.00  0.00    +0.000 A 
ATOM     18  C   UNL     1      45.965   4.772  12.745  0.00  0.00    +0.000 A 
ATOM     19  C   UNL     1      46.685   5.785  13.377  0.00  0.00    +0.000 A 
ATOM     20  C   UNL     1      46.685   7.076  12.853  0.00  0.00    +0.000 A 
ATOM     21  N   UNL     1      47.371   8.113  13.427  0.00  0.00    +0.000 N 
ATOM     22  N   UNL     1      45.999   7.372  11.730  0.00  0.00    +0.000 NA
ATOM     23  C   UNL     1      45.308   6.377  11.115  0.00  0.00    +0.000 A 
ATOM     24  H   UNL     1      47.297   9.005  12.953  0.00  0.00    +0.000 HD
BRANCH  17  26
ATOM     25  C   UNL     1      43.461   3.018  12.050  0.00  0.00    +0.000 C 
ATOM     26  S   UNL     1      44.335   3.848  10.747  0.00  0.00    +0.000 S 
ATOM     27  O   UNL     1      45.291   2.914  10.184  0.00  0.00    +0.000 OA
ATOM     28  O   UNL     1      43.365   4.519   9.907  0.00  0.00    +0.000 OA
ENDBRANCH  17  26
ENDBRANCH  16  21
ENDBRANCH   1  16
TORSDOF 6
ENDMDL
