MODEL 1
REMARK VINA RESULT:    -8.935      0.000      0.000
REMARK INTER + INTRA:         -13.604
REMARK INTER:                 -12.592
REMARK INTRA:                  -1.012
REMARK UNBOUND:                -1.012
REMARK  Name = 
REMARK  8 active torsions:
REMARK  status: ('A' for Active; 'I' for Inactive)
REMARK    1  A    between atoms: C_1  and  C_2
REMARK    2  A    between atoms: C_4  and  C_5
REMARK    3  A    between atoms: C_5  and  N_6
REMARK    4  A    between atoms: C_7  and  C_9
REMARK    5  A    between atoms: C_21  and  C_22
REMARK    6  A    between atoms: C_22  and  N_23
REMARK    7  A    between atoms: N_23  and  C_24
REMARK    8  A    between atoms: C_24  and  C_25
REMARK                            x       y       z     vdW  Elec       q    Type
REMARK                         _______ _______ _______ _____ _____    ______ ____
ROOT
ATOM      1  C   UNL     1      43.154   4.613  13.171  0.00  0.00    +0.000 C 
ATOM      2  C   UNL     1      44.259   5.275  12.393  0.00  0.00    +0.000 A 
ATOM      3  C   UNL     1      44.983   6.313  13.011  0.00  0.00    +0.000 A 
ATOM      4  C   UNL     1      46.052   6.948  12.368  0.00  0.00    +0.000 A 
ATOM      5  C   UNL     1      46.373   6.561  11.064  0.00  0.00    +0.000 A 
ATOM      6  C   UNL     1      45.648   5.548  10.426  0.00  0.00    +0.000 A 
ATOM      7  C   UNL     1      44.583   4.893  11.072  0.00  0.00    +0.000 A 
ENDROOT
BRANCH   4   8
ATOM      8  C   UNL     1      46.809   8.046  13.066  0.00  0.00    +0.000 C 
BRANCH   8   9
ATOM      9  N   UNL     1      47.326   7.602  14.336  0.00  0.00    +0.000 N 
ATOM     10  C   UNL     1      48.396   6.746  14.404  0.00  0.00    +0.000 C 
ATOM     11  O   UNL     1      48.986   6.362  13.398  0.00  0.00    +0.000 OA
ATOM     12  H   UNL     1      46.722   7.715  15.144  0.00  0.00    +0.000 HD
BRANCH  10  13
ATOM     13  C   UNL     1      48.847   6.359  15.748  0.00  0.00    +0.000 A 
ATOM     14  C   UNL     1      49.788   7.140  16.406  0.00  0.00    +0.000 A 
ATOM     15  S   UNL     1      50.164   6.586  17.974  0.00  0.00    +0.000 S 
ATOM     16  C   UNL     1      49.125   5.249  17.810  0.00  0.00    +0.000 A 
ATOM     17  N   UNL     1      48.995   4.337  18.811  0.00  0.00    +0.000 NA
ATOM     18  C   UNL     1      48.193   3.361  18.544  0.00  0.00    +0.000 A 
ATOM     19  N   UNL     1      47.508   3.214  17.365  0.00  0.00    +0.000 N 
ATOM     20  C   UNL     1      47.592   4.122  16.335  0.00  0.00    +0.000 A 
ATOM     21  O   UNL     1      46.942   3.977  15.304  0.00  0.00    +0.000 OA
ATOM     22  C   UNL     1      48.484   5.237  16.582  0.00  0.00    +0.000 A 
ATOM     23  H   UNL     1      46.893   2.430  17.217  0.00  0.00    +0.000 HD
ENDBRANCH  10  13
ENDBRANCH   8   9
ENDBRANCH   4   8
BRANCH   7  24
ATOM     24  C   UNL     1      43.835   3.798  10.329  0.00  0.00    +0.000 C 
BRANCH  24  25
ATOM     25  N   UNL     1      44.553   2.526  10.392  0.00  0.00    +0.000 NA
ATOM     26  H   UNL     1      44.163   1.966  11.149  0.00  0.00    +0.000 HD
BRANCH  25  27
ATOM     27  C   UNL     1      44.433   1.762   9.144  0.00  0.00    +0.000 C 
BRANCH  27  28
ATOM     28  C   UNL     1      45.612   2.017   8.218  0.00  0.00    +0.000 A 
ATOM     29  C   UNL     1      45.753   3.256   7.593  0.00  0.00    +0.000 A 
ATOM     30  C   UNL     1      46.857   3.481   6.775  0.00  0.00    +0.000 A 
ATOM     31  C   UNL     1      47.785   2.464   6.593  0.00  0.00    +0.000 A 
ATOM     32  C   UNL     1      47.568   1.260   7.241  0.00  0.00    +0.000 A 
ATOM     33  N   UNL     1      46.511   1.013   8.048  0.00  0.00    +0.000 NA
ENDBRANCH  27  28
ENDBRANCH  25  27
ENDBRANCH  24  25
ENDBRANCH   7  24
TORSDOF 7
ENDMDL
MODEL 2
REMARK VINA RESULT:    -8.261      1.262      1.585
REMARK INTER + INTRA:         -12.653
REMARK INTER:                 -11.523
REMARK INTRA:                  -1.131
REMARK UNBOUND:                -1.012
REMARK  Name = 
REMARK  8 active torsions:
REMARK  status: ('A' for Active; 'I' for Inactive)
REMARK    1  A    between atoms: C_1  and  C_2
REMARK    2  A    between atoms: C_4  and  C_5
REMARK    3  A    between atoms: C_5  and  N_6
REMARK    4  A    between atoms: C_7  and  C_9
REMARK    5  A    between atoms: C_21  and  C_22
REMARK    6  A    between atoms: C_22  and  N_23
REMARK    7  A    between atoms: N_23  and  C_24
REMARK    8  A    between atoms: C_24  and  C_25
REMARK                            x       y       z     vdW  Elec       q    Type
REMARK                         _______ _______ _______ _____ _____    ______ ____
ROOT
ATOM      1  C   UNL     1      42.996   6.138  11.378  0.00  0.00    +0.000 C 
ATOM      2  C   UNL     1      44.296   5.722  12.012  0.00  0.00    +0.000 A 
ATOM      3  C   UNL     1      45.191   6.728  12.422  0.00  0.00    +0.000 A 
ATOM      4  C   UNL     1      46.400   6.421  13.058  0.00  0.00    +0.000 A 
ATOM      5  C   UNL     1      46.734   5.077  13.248  0.00  0.00    +0.000 A 
ATOM      6  C   UNL     1      45.866   4.065  12.824  0.00  0.00    +0.000 A 
ATOM      7  C   UNL     1      44.641   4.365  12.200  0.00  0.00    +0.000 A 
ENDROOT
BRANCH   4   8
ATOM      8  C   UNL     1      47.327   7.526  13.492  0.00  0.00    +0.000 C 
BRANCH   8   9
ATOM      9  N   UNL     1      47.807   7.311  14.834  0.00  0.00    +0.000 N 
ATOM     10  C   UNL     1      49.131   7.044  15.077  0.00  0.00    +0.000 C 
ATOM     11  O   UNL     1      49.966   7.025  14.176  0.00  0.00    +0.000 OA
ATOM     12  H   UNL     1      47.114   7.093  15.542  0.00  0.00    +0.000 HD
BRANCH  10  13
ATOM     13  C   UNL     1      49.518   6.846  16.481  0.00  0.00    +0.000 A 
ATOM     14  C   UNL     1      50.498   7.654  17.041  0.00  0.00    +0.000 A 
ATOM     15  S   UNL     1      50.791   7.333  18.690  0.00  0.00    +0.000 S 
ATOM     16  C   UNL     1      49.659   6.063  18.700  0.00  0.00    +0.000 A 
ATOM     17  N   UNL     1      49.436   5.334  19.827  0.00  0.00    +0.000 NA
ATOM     18  C   UNL     1      48.569   4.387  19.688  0.00  0.00    +0.000 A 
ATOM     19  N   UNL     1      47.905   4.102  18.522  0.00  0.00    +0.000 N 
ATOM     20  C   UNL     1      48.082   4.826  17.366  0.00  0.00    +0.000 A 
ATOM     21  O   UNL     1      47.450   4.563  16.348  0.00  0.00    +0.000 OA
ATOM     22  C   UNL     1      49.050   5.900  17.467  0.00  0.00    +0.000 A 
ATOM     23  H   UNL     1      47.236   3.350  18.477  0.00  0.00    +0.000 HD
ENDBRANCH  10  13
ENDBRANCH   8   9
ENDBRANCH   4   8
BRANCH   7  24
ATOM     24  C   UNL     1      43.738   3.221  11.765  0.00  0.00    +0.000 C 
BRANCH  24  25
ATOM     25  N   UNL     1      44.326   2.473  10.655  0.00  0.00    +0.000 NA
ATOM     26  H   UNL     1      43.836   1.583  10.563  0.00  0.00    +0.000 HD
BRANCH  25  27
ATOM     27  C   UNL     1      44.213   3.195   9.382  0.00  0.00    +0.000 C 
BRANCH  27  28
ATOM     28  C   UNL     1      45.387   2.894   8.464  0.00  0.00    +0.000 A 
ATOM     29  C   UNL     1      45.910   1.603   8.400  0.00  0.00    +0.000 A 
ATOM     30  C   UNL     1      46.964   1.339   7.529  0.00  0.00    +0.000 A 
ATOM     31  C   UNL     1      47.476   2.371   6.752  0.00  0.00    +0.000 A 
ATOM     32  C   UNL     1      46.908   3.628   6.881  0.00  0.00    +0.000 A 
ATOM     33  N   UNL     1      45.878   3.913   7.711  0.00  0.00    +0.000 NA
ENDBRANCH  27  28
ENDBRANCH  25  27
ENDBRANCH  24  25
ENDBRANCH   7  24
TORSDOF 7
ENDMDL
MODEL 3
REMARK VINA RESULT:    -7.943      2.321      2.902
REMARK INTER + INTRA:         -12.206
REMARK INTER:                 -11.204
REMARK INTRA:                  -1.001
REMARK UNBOUND:                -1.012
REMARK  Name = 
REMARK  8 active torsions:
REMARK  status: ('A' for Active; 'I' for Inactive)
REMARK    1  A    between atoms: C_1  and  C_2
REMARK    2  A    between atoms: C_4  and  C_5
REMARK    3  A    between atoms: C_5  and  N_6
REMARK    4  A    between atoms: C_7  and  C_9
REMARK    5  A    between atoms: C_21  and  C_22
REMARK    6  A    between atoms: C_22  and  N_23
REMARK    7  A    between atoms: N_23  and  C_24
REMARK    8  A    between atoms: C_24  and  C_25
REMARK                            x       y       z     vdW  Elec       q    Type
REMARK                         _______ _______ _______ _____ _____    ______ ____
ROOT
ATOM      1  C   UNL     1      44.488   7.696  11.061  0.00  0.00    +0.000 C 
ATOM      2  C   UNL     1      45.264   6.665  11.836  0.00  0.00    +0.000 A 
ATOM      3  C   UNL     1      46.386   7.088  12.573  0.00  0.00    +0.000 A 
ATOM      4  C   UNL     1      47.133   6.196  13.352  0.00  0.00    +0.000 A 
ATOM      5  C   UNL     1      46.768   4.847  13.357  0.00  0.00    +0.000 A 
ATOM      6  C   UNL     1      45.670   4.406  12.611  0.00  0.00    +0.000 A 
ATOM      7  C   UNL     1      44.904   5.299  11.839  0.00  0.00    +0.000 A 
ENDROOT
BRANCH   4   8
ATOM      8  C   UNL     1      48.321   6.688  14.136  0.00  0.00    +0.000 C 
BRANCH   8   9
ATOM      9  N   UNL     1      48.112   6.540  15.554  0.00  0.00    +0.000 N 
ATOM     10  C   UNL     1      49.155   6.249  16.396  0.00  0.00    +0.000 C 
ATOM     11  O   UNL     1      50.310   6.151  15.990  0.00  0.00    +0.000 OA
ATOM     12  H   UNL     1      47.158   6.386  15.865  0.00  0.00    +0.000 HD
BRANCH  10  13
ATOM     13  C   UNL     1      48.835   6.124  17.825  0.00  0.00    +0.000 A 
ATOM     14  C   UNL     1      49.055   4.915  18.471  0.00  0.00    +0.000 A 
ATOM     15  S   UNL     1      48.685   4.950  20.136  0.00  0.00    +0.000 S 
ATOM     16  C   UNL     1      48.164   6.567  20.041  0.00  0.00    +0.000 A 
ATOM     17  N   UNL     1      47.687   7.213  21.139  0.00  0.00    +0.000 NA
ATOM     18  C   UNL     1      47.304   8.426  20.920  0.00  0.00    +0.000 A 
ATOM     19  N   UNL     1      47.356   9.054  19.702  0.00  0.00    +0.000 N 
ATOM     20  C   UNL     1      47.851   8.447  18.571  0.00  0.00    +0.000 A 
ATOM     21  O   UNL     1      47.910   9.046  17.501  0.00  0.00    +0.000 OA
ATOM     22  C   UNL     1      48.291   7.079  18.761  0.00  0.00    +0.000 A 
ATOM     23  H   UNL     1      47.044  10.005  19.595  0.00  0.00    +0.000 HD
ENDBRANCH  10  13
ENDBRANCH   8   9
ENDBRANCH   4   8
BRANCH   7  24
ATOM     24  C   UNL     1      43.720   4.761  11.052  0.00  0.00    +0.000 C 
BRANCH  24  25
ATOM     25  N   UNL     1      44.116   4.358   9.704  0.00  0.00    +0.000 NA
ATOM     26  H   UNL     1      44.963   4.864   9.445  0.00  0.00    +0.000 HD
BRANCH  25  27
ATOM     27  C   UNL     1      44.396   2.918   9.619  0.00  0.00    +0.000 C 
BRANCH  27  28
ATOM     28  C   UNL     1      45.418   2.611   8.536  0.00  0.00    +0.000 A 
ATOM     29  C   UNL     1      45.778   3.597   7.617  0.00  0.00    +0.000 A 
ATOM     30  C   UNL     1      46.740   3.306   6.653  0.00  0.00    +0.000 A 
ATOM     31  C   UNL     1      47.310   2.040   6.624  0.00  0.00    +0.000 A 
ATOM     32  C   UNL     1      46.891   1.114   7.565  0.00  0.00    +0.000 A 
ATOM     33  N   UNL     1      45.965   1.368   8.518  0.00  0.00    +0.000 NA
ENDBRANCH  27  28
ENDBRANCH  25  27
ENDBRANCH  24  25
ENDBRANCH   7  24
TORSDOF 7
ENDMDL
MODEL 4
REMARK VINA RESULT:    -7.720      2.039      2.714
REMARK INTER + INTRA:         -11.891
REMARK INTER:                 -11.165
REMARK INTRA:                  -0.726
REMARK UNBOUND:                -1.012
REMARK  Name = 
REMARK  8 active torsions:
REMARK  status: ('A' for Active; 'I' for Inactive)
REMARK    1  A    between atoms: C_1  and  C_2
REMARK    2  A    between atoms: C_4  and  C_5
REMARK    3  A    between atoms: C_5  and  N_6
REMARK    4  A    between atoms: C_7  and  C_9
REMARK    5  A    between atoms: C_21  and  C_22
REMARK    6  A    between atoms: C_22  and  N_23
REMARK    7  A    between atoms: N_23  and  C_24
REMARK    8  A    between atoms: C_24  and  C_25
REMARK                            x       y       z     vdW  Elec       q    Type
REMARK                         _______ _______ _______ _____ _____    ______ ____
ROOT
ATOM      1  C   UNL     1      43.092   5.893  11.526  0.00  0.00    +0.000 C 
ATOM      2  C   UNL     1      44.313   5.228  12.102  0.00  0.00    +0.000 A 
ATOM      3  C   UNL     1      45.292   6.040  12.708  0.00  0.00    +0.000 A 
ATOM      4  C   UNL     1      46.434   5.492  13.304  0.00  0.00    +0.000 A 
ATOM      5  C   UNL     1      46.616   4.107  13.253  0.00  0.00    +0.000 A 
ATOM      6  C   UNL     1      45.664   3.289  12.633  0.00  0.00    +0.000 A 
ATOM      7  C   UNL     1      44.505   3.830  12.047  0.00  0.00    +0.000 A 
ENDROOT
BRANCH   4   8
ATOM      8  C   UNL     1      47.453   6.391  13.952  0.00  0.00    +0.000 C 
BRANCH   8   9
ATOM      9  N   UNL     1      47.898   5.856  15.214  0.00  0.00    +0.000 N 
ATOM     10  C   UNL     1      48.789   6.543  15.999  0.00  0.00    +0.000 C 
ATOM     11  O   UNL     1      49.206   7.656  15.688  0.00  0.00    +0.000 OA
ATOM     12  H   UNL     1      47.755   4.863  15.370  0.00  0.00    +0.000 HD
BRANCH  10  13
ATOM     13  C   UNL     1      49.175   5.911  17.269  0.00  0.00    +0.000 A 
ATOM     14  C   UNL     1      48.191   5.547  18.179  0.00  0.00    +0.000 A 
ATOM     15  S   UNL     1      48.798   4.778  19.574  0.00  0.00    +0.000 S 
ATOM     16  C   UNL     1      50.403   4.954  19.039  0.00  0.00    +0.000 A 
ATOM     17  N   UNL     1      51.444   4.516  19.796  0.00  0.00    +0.000 NA
ATOM     18  C   UNL     1      52.608   4.734  19.282  0.00  0.00    +0.000 A 
ATOM     19  N   UNL     1      52.826   5.351  18.076  0.00  0.00    +0.000 N 
ATOM     20  C   UNL     1      51.803   5.790  17.267  0.00  0.00    +0.000 A 
ATOM     21  O   UNL     1      52.031   6.312  16.181  0.00  0.00    +0.000 OA
ATOM     22  C   UNL     1      50.473   5.572  17.802  0.00  0.00    +0.000 A 
ATOM     23  H   UNL     1      53.760   5.490  17.726  0.00  0.00    +0.000 HD
ENDBRANCH  10  13
ENDBRANCH   8   9
ENDBRANCH   4   8
BRANCH   7  24
ATOM     24  C   UNL     1      43.506   2.890  11.391  0.00  0.00    +0.000 C 
BRANCH  24  25
ATOM     25  N   UNL     1      44.039   2.328  10.151  0.00  0.00    +0.000 NA
ATOM     26  H   UNL     1      43.316   1.762   9.710  0.00  0.00    +0.000 HD
BRANCH  25  27
ATOM     27  C   UNL     1      44.448   3.373   9.204  0.00  0.00    +0.000 C 
BRANCH  27  28
ATOM     28  C   UNL     1      45.489   2.860   8.222  0.00  0.00    +0.000 A 
ATOM     29  C   UNL     1      46.032   1.585   8.383  0.00  0.00    +0.000 A 
ATOM     30  C   UNL     1      46.959   1.120   7.455  0.00  0.00    +0.000 A 
ATOM     31  C   UNL     1      47.329   1.940   6.396  0.00  0.00    +0.000 A 
ATOM     32  C   UNL     1      46.752   3.196   6.312  0.00  0.00    +0.000 A 
ATOM     33  N   UNL     1      45.842   3.673   7.193  0.00  0.00    +0.000 NA
ENDBRANCH  27  28
ENDBRANCH  25  27
ENDBRANCH  24  25
ENDBRANCH   7  24
TORSDOF 7
ENDMDL
MODEL 5
REMARK VINA RESULT:    -7.252      3.045      7.844
REMARK INTER + INTRA:         -11.232
REMARK INTER:                  -9.688
REMARK INTRA:                  -1.544
REMARK UNBOUND:                -1.012
REMARK  Name = 
REMARK  8 active torsions:
REMARK  status: ('A' for Active; 'I' for Inactive)
REMARK    1  A    between atoms: C_1  and  C_2
REMARK    2  A    between atoms: C_4  and  C_5
REMARK    3  A    between atoms: C_5  and  N_6
REMARK    4  A    between atoms: C_7  and  C_9
REMARK    5  A    between atoms: C_21  and  C_22
REMARK    6  A    between atoms: C_22  and  N_23
REMARK    7  A    between atoms: N_23  and  C_24
REMARK    8  A    between atoms: C_24  and  C_25
REMARK                            x       y       z     vdW  Elec       q    Type
REMARK                         _______ _______ _______ _____ _____    ______ ____
ROOT
ATOM      1  C   UNL     1      48.189  10.196  16.714  0.00  0.00    +0.000 C 
ATOM      2  C   UNL     1      48.353   8.959  15.873  0.00  0.00    +0.000 A 
ATOM      3  C   UNL     1      48.201   9.076  14.478  0.00  0.00    +0.000 A 
ATOM      4  C   UNL     1      48.380   7.980  13.625  0.00  0.00    +0.000 A 
ATOM      5  C   UNL     1      48.678   6.736  14.188  0.00  0.00    +0.000 A 
ATOM      6  C   UNL     1      48.808   6.598  15.575  0.00  0.00    +0.000 A 
ATOM      7  C   UNL     1      48.646   7.698  16.437  0.00  0.00    +0.000 A 
ENDROOT
BRANCH   4   8
ATOM      8  C   UNL     1      48.220   8.146  12.137  0.00  0.00    +0.000 C 
BRANCH   8   9
ATOM      9  N   UNL     1      47.555   7.011  11.550  0.00  0.00    +0.000 N 
ATOM     10  C   UNL     1      46.189   6.978  11.427  0.00  0.00    +0.000 C 
ATOM     11  O   UNL     1      45.483   7.925  11.764  0.00  0.00    +0.000 OA
ATOM     12  H   UNL     1      48.085   6.148  11.488  0.00  0.00    +0.000 HD
BRANCH  10  13
ATOM     13  C   UNL     1      45.610   5.776  10.811  0.00  0.00    +0.000 A 
ATOM     14  C   UNL     1      45.790   5.550   9.452  0.00  0.00    +0.000 A 
ATOM     15  S   UNL     1      45.105   4.087   8.905  0.00  0.00    +0.000 S 
ATOM     16  C   UNL     1      44.494   3.730  10.452  0.00  0.00    +0.000 A 
ATOM     17  N   UNL     1      43.768   2.602  10.673  0.00  0.00    +0.000 NA
ATOM     18  C   UNL     1      43.346   2.468  11.886  0.00  0.00    +0.000 A 
ATOM     19  N   UNL     1      43.584   3.361  12.899  0.00  0.00    +0.000 N 
ATOM     20  C   UNL     1      44.331   4.504  12.726  0.00  0.00    +0.000 A 
ATOM     21  O   UNL     1      44.551   5.268  13.660  0.00  0.00    +0.000 OA
ATOM     22  C   UNL     1      44.826   4.704  11.379  0.00  0.00    +0.000 A 
ATOM     23  H   UNL     1      43.230   3.199  13.828  0.00  0.00    +0.000 HD
ENDBRANCH  10  13
ENDBRANCH   8   9
ENDBRANCH   4   8
BRANCH   7  24
ATOM     24  C   UNL     1      48.804   7.487  17.935  0.00  0.00    +0.000 C 
BRANCH  24  25
ATOM     25  N   UNL     1      47.630   6.827  18.505  0.00  0.00    +0.000 NA
ATOM     26  H   UNL     1      47.018   6.532  17.746  0.00  0.00    +0.000 HD
BRANCH  25  27
ATOM     27  C   UNL     1      47.992   5.641  19.292  0.00  0.00    +0.000 C 
BRANCH  27  28
ATOM     28  C   UNL     1      48.368   4.471  18.397  0.00  0.00    +0.000 A 
ATOM     29  C   UNL     1      47.418   3.912  17.543  0.00  0.00    +0.000 A 
ATOM     30  C   UNL     1      47.790   2.863  16.707  0.00  0.00    +0.000 A 
ATOM     31  C   UNL     1      49.097   2.392  16.751  0.00  0.00    +0.000 A 
ATOM     32  C   UNL     1      49.978   2.994  17.633  0.00  0.00    +0.000 A 
ATOM     33  N   UNL     1      49.649   4.020  18.451  0.00  0.00    +0.000 NA
ENDBRANCH  27  28
ENDBRANCH  25  27
ENDBRANCH  24  25
ENDBRANCH   7  24
TORSDOF 7
ENDMDL
MODEL 6
REMARK VINA RESULT:    -7.188      2.116      2.618
REMARK INTER + INTRA:         -11.142
REMARK INTER:                 -10.071
REMARK INTRA:                  -1.071
REMARK UNBOUND:                -1.012
REMARK  Name = 
REMARK  8 active torsions:
REMARK  status: ('A' for Active; 'I' for Inactive)
REMARK    1  A    between atoms: C_1  and  C_2
REMARK    2  A    between atoms: C_4  and  C_5
REMARK    3  A    between atoms: C_5  and  N_6
REMARK    4  A    between atoms: C_7  and  C_9
REMARK    5  A    between atoms: C_21  and  C_22
REMARK    6  A    between atoms: C_22  and  N_23
REMARK    7  A    between atoms: N_23  and  C_24
REMARK    8  A    between atoms: C_24  and  C_25
REMARK                            x       y       z     vdW  Elec       q    Type
REMARK                         _______ _______ _______ _____ _____    ______ ____
ROOT
ATOM      1  C   UNL     1      46.494   3.871  13.264  0.00  0.00    +0.000 C 
ATOM      2  C   UNL     1      46.528   5.360  13.047  0.00  0.00    +0.000 A 
ATOM      3  C   UNL     1      47.484   6.115  13.753  0.00  0.00    +0.000 A 
ATOM      4  C   UNL     1      47.606   7.498  13.573  0.00  0.00    +0.000 A 
ATOM      5  C   UNL     1      46.724   8.139  12.698  0.00  0.00    +0.000 A 
ATOM      6  C   UNL     1      45.753   7.406  12.007  0.00  0.00    +0.000 A 
ATOM      7  C   UNL     1      45.634   6.013  12.170  0.00  0.00    +0.000 A 
ENDROOT
BRANCH   4   8
ATOM      8  C   UNL     1      48.649   8.271  14.337  0.00  0.00    +0.000 C 
BRANCH   8   9
ATOM      9  N   UNL     1      49.624   7.391  14.930  0.00  0.00    +0.000 N 
ATOM     10  C   UNL     1      50.156   7.656  16.166  0.00  0.00    +0.000 C 
ATOM     11  O   UNL     1      49.793   8.619  16.837  0.00  0.00    +0.000 OA
ATOM     12  H   UNL     1      50.097   6.742  14.309  0.00  0.00    +0.000 HD
BRANCH  10  13
ATOM     13  C   UNL     1      51.140   6.694  16.682  0.00  0.00    +0.000 A 
ATOM     14  C   UNL     1      52.460   7.089  16.851  0.00  0.00    +0.000 A 
ATOM     15  S   UNL     1      53.460   5.874  17.508  0.00  0.00    +0.000 S 
ATOM     16  C   UNL     1      52.178   4.758  17.539  0.00  0.00    +0.000 A 
ATOM     17  N   UNL     1      52.369   3.485  17.980  0.00  0.00    +0.000 NA
ATOM     18  C   UNL     1      51.317   2.738  17.926  0.00  0.00    +0.000 A 
ATOM     19  N   UNL     1      50.090   3.148  17.472  0.00  0.00    +0.000 N 
ATOM     20  C   UNL     1      49.845   4.431  17.038  0.00  0.00    +0.000 A 
ATOM     21  O   UNL     1      48.728   4.774  16.665  0.00  0.00    +0.000 OA
ATOM     22  C   UNL     1      50.996   5.311  17.073  0.00  0.00    +0.000 A 
ATOM     23  H   UNL     1      49.305   2.517  17.457  0.00  0.00    +0.000 HD
ENDBRANCH  10  13
ENDBRANCH   8   9
ENDBRANCH   4   8
BRANCH   7  24
ATOM     24  C   UNL     1      44.561   5.271  11.390  0.00  0.00    +0.000 C 
BRANCH  24  25
ATOM     25  N   UNL     1      44.818   5.322   9.952  0.00  0.00    +0.000 NA
ATOM     26  H   UNL     1      45.826   5.321   9.798  0.00  0.00    +0.000 HD
BRANCH  25  27
ATOM     27  C   UNL     1      44.242   4.169   9.247  0.00  0.00    +0.000 C 
BRANCH  27  28
ATOM     28  C   UNL     1      45.305   3.392   8.487  0.00  0.00    +0.000 A 
ATOM     29  C   UNL     1      45.482   2.031   8.730  0.00  0.00    +0.000 A 
ATOM     30  C   UNL     1      46.438   1.330   8.000  0.00  0.00    +0.000 A 
ATOM     31  C   UNL     1      47.200   2.005   7.056  0.00  0.00    +0.000 A 
ATOM     32  C   UNL     1      46.971   3.360   6.881  0.00  0.00    +0.000 A 
ATOM     33  N   UNL     1      46.044   4.067   7.568  0.00  0.00    +0.000 NA
ENDBRANCH  27  28
ENDBRANCH  25  27
ENDBRANCH  24  25
ENDBRANCH   7  24
TORSDOF 7
ENDMDL
MODEL 7
REMARK VINA RESULT:    -7.087      2.739      8.398
REMARK INTER + INTRA:         -10.999
REMARK INTER:                  -9.497
REMARK INTRA:                  -1.503
REMARK UNBOUND:                -1.012
REMARK  Name = 
REMARK  8 active torsions:
REMARK  status: ('A' for Active; 'I' for Inactive)
REMARK    1  A    between atoms: C_1  and  C_2
REMARK    2  A    between atoms: C_4  and  C_5
REMARK    3  A    between atoms: C_5  and  N_6
REMARK    4  A    between atoms: C_7  and  C_9
REMARK    5  A    between atoms: C_21  and  C_22
REMARK    6  A    between atoms: C_22  and  N_23
REMARK    7  A    between atoms: N_23  and  C_24
REMARK    8  A    between atoms: C_24  and  C_25
REMARK                            x       y       z     vdW  Elec       q    Type
REMARK                         _______ _______ _______ _____ _____    ______ ____
ROOT
ATOM      1  C   UNL     1      48.840  10.498  16.072  0.00  0.00    +0.000 C 
ATOM      2  C   UNL     1      48.675   9.144  15.436  0.00  0.00    +0.000 A 
ATOM      3  C   UNL     1      48.131   9.077  14.138  0.00  0.00    +0.000 A 
ATOM      4  C   UNL     1      47.986   7.859  13.464  0.00  0.00    +0.000 A 
ATOM      5  C   UNL     1      48.357   6.682  14.122  0.00  0.00    +0.000 A 
ATOM      6  C   UNL     1      48.877   6.729  15.420  0.00  0.00    +0.000 A 
ATOM      7  C   UNL     1      49.041   7.951  16.098  0.00  0.00    +0.000 A 
ENDROOT
BRANCH   4   8
ATOM      8  C   UNL     1      47.411   7.829  12.073  0.00  0.00    +0.000 C 
BRANCH   8   9
ATOM      9  N   UNL     1      46.764   6.571  11.799  0.00  0.00    +0.000 N 
ATOM     10  C   UNL     1      45.396   6.465  11.793  0.00  0.00    +0.000 C 
ATOM     11  O   UNL     1      44.668   7.439  11.970  0.00  0.00    +0.000 OA
ATOM     12  H   UNL     1      47.331   5.733  11.885  0.00  0.00    +0.000 HD
BRANCH  10  13
ATOM     13  C   UNL     1      44.837   5.139  11.498  0.00  0.00    +0.000 A 
ATOM     14  C   UNL     1      44.110   4.470  12.474  0.00  0.00    +0.000 A 
ATOM     15  S   UNL     1      43.484   2.971  11.957  0.00  0.00    +0.000 S 
ATOM     16  C   UNL     1      44.210   3.134  10.428  0.00  0.00    +0.000 A 
ATOM     17  N   UNL     1      44.084   2.160   9.486  0.00  0.00    +0.000 NA
ATOM     18  C   UNL     1      44.705   2.401   8.381  0.00  0.00    +0.000 A 
ATOM     19  N   UNL     1      45.443   3.530   8.130  0.00  0.00    +0.000 N 
ATOM     20  C   UNL     1      45.580   4.550   9.044  0.00  0.00    +0.000 A 
ATOM     21  O   UNL     1      46.222   5.561   8.777  0.00  0.00    +0.000 OA
ATOM     22  C   UNL     1      44.904   4.326  10.306  0.00  0.00    +0.000 A 
ATOM     23  H   UNL     1      45.903   3.663   7.244  0.00  0.00    +0.000 HD
ENDBRANCH  10  13
ENDBRANCH   8   9
ENDBRANCH   4   8
BRANCH   7  24
ATOM     24  C   UNL     1      49.614   7.939  17.507  0.00  0.00    +0.000 C 
BRANCH  24  25
ATOM     25  N   UNL     1      48.571   7.700  18.503  0.00  0.00    +0.000 NA
ATOM     26  H   UNL     1      47.683   7.561  18.022  0.00  0.00    +0.000 HD
BRANCH  25  27
ATOM     27  C   UNL     1      48.847   6.507  19.314  0.00  0.00    +0.000 C 
BRANCH  27  28
ATOM     28  C   UNL     1      48.616   5.229  18.523  0.00  0.00    +0.000 A 
ATOM     29  C   UNL     1      49.678   4.358  18.280  0.00  0.00    +0.000 A 
ATOM     30  C   UNL     1      49.440   3.177  17.582  0.00  0.00    +0.000 A 
ATOM     31  C   UNL     1      48.153   2.900  17.136  0.00  0.00    +0.000 A 
ATOM     32  C   UNL     1      47.156   3.820  17.410  0.00  0.00    +0.000 A 
ATOM     33  N   UNL     1      47.354   4.972  18.092  0.00  0.00    +0.000 NA
ENDBRANCH  27  28
ENDBRANCH  25  27
ENDBRANCH  24  25
ENDBRANCH   7  24
TORSDOF 7
ENDMDL
MODEL 8
REMARK VINA RESULT:    -7.083      3.174      4.626
REMARK INTER + INTRA:         -10.993
REMARK INTER:                 -10.059
REMARK INTRA:                  -0.935
REMARK UNBOUND:                -1.012
REMARK  Name = 
REMARK  8 active torsions:
REMARK  status: ('A' for Active; 'I' for Inactive)
REMARK    1  A    between atoms: C_1  and  C_2
REMARK    2  A    between atoms: C_4  and  C_5
REMARK    3  A    between atoms: C_5  and  N_6
REMARK    4  A    between atoms: C_7  and  C_9
REMARK    5  A    between atoms: C_21  and  C_22
REMARK    6  A    between atoms: C_22  and  N_23
REMARK    7  A    between atoms: N_23  and  C_24
REMARK    8  A    between atoms: C_24  and  C_25
REMARK                            x       y       z     vdW  Elec       q    Type
REMARK                         _______ _______ _______ _____ _____    ______ ____
ROOT
ATOM      1  C   UNL     1      47.849   6.800  12.863  0.00  0.00    +0.000 C 
ATOM      2  C   UNL     1      47.810   6.010  14.143  0.00  0.00    +0.000 A 
ATOM      3  C   UNL     1      48.592   6.456  15.226  0.00  0.00    +0.000 A 
ATOM      4  C   UNL     1      48.576   5.799  16.463  0.00  0.00    +0.000 A 
ATOM      5  C   UNL     1      47.792   4.650  16.600  0.00  0.00    +0.000 A 
ATOM      6  C   UNL     1      47.027   4.181  15.526  0.00  0.00    +0.000 A 
ATOM      7  C   UNL     1      47.025   4.845  14.285  0.00  0.00    +0.000 A 
ENDROOT
BRANCH   4   8
ATOM      8  C   UNL     1      49.418   6.312  17.601  0.00  0.00    +0.000 C 
BRANCH   8   9
ATOM      9  N   UNL     1      50.386   5.331  18.022  0.00  0.00    +0.000 N 
ATOM     10  C   UNL     1      51.635   5.282  17.456  0.00  0.00    +0.000 C 
ATOM     11  O   UNL     1      51.997   6.094  16.609  0.00  0.00    +0.000 OA
ATOM     12  H   UNL     1      50.035   4.526  18.533  0.00  0.00    +0.000 HD
BRANCH  10  13
ATOM     13  C   UNL     1      52.548   4.247  17.960  0.00  0.00    +0.000 A 
ATOM     14  C   UNL     1      53.729   4.622  18.586  0.00  0.00    +0.000 A 
ATOM     15  S   UNL     1      54.649   3.306  19.161  0.00  0.00    +0.000 S 
ATOM     16  C   UNL     1      53.530   2.184  18.543  0.00  0.00    +0.000 A 
ATOM     17  N   UNL     1      53.735   0.846  18.676  0.00  0.00    +0.000 NA
ATOM     18  C   UNL     1      52.820   0.109  18.141  0.00  0.00    +0.000 A 
ATOM     19  N   UNL     1      51.717   0.589  17.483  0.00  0.00    +0.000 N 
ATOM     20  C   UNL     1      51.457   1.933  17.344  0.00  0.00    +0.000 A 
ATOM     21  O   UNL     1      50.445   2.330  16.776  0.00  0.00    +0.000 OA
ATOM     22  C   UNL     1      52.458   2.806  17.925  0.00  0.00    +0.000 A 
ATOM     23  H   UNL     1      51.035  -0.038  17.089  0.00  0.00    +0.000 HD
ENDBRANCH  10  13
ENDBRANCH   8   9
ENDBRANCH   4   8
BRANCH   7  24
ATOM     24  C   UNL     1      46.171   4.289  13.156  0.00  0.00    +0.000 C 
BRANCH  24  25
ATOM     25  N   UNL     1      44.969   5.096  12.951  0.00  0.00    +0.000 NA
ATOM     26  H   UNL     1      45.223   5.936  12.433  0.00  0.00    +0.000 HD
BRANCH  25  27
ATOM     27  C   UNL     1      43.944   4.374  12.186  0.00  0.00    +0.000 C 
BRANCH  27  28
ATOM     28  C   UNL     1      44.415   4.067  10.774  0.00  0.00    +0.000 A 
ATOM     29  C   UNL     1      45.164   5.008  10.068  0.00  0.00    +0.000 A 
ATOM     30  C   UNL     1      45.614   4.696   8.788  0.00  0.00    +0.000 A 
ATOM     31  C   UNL     1      45.298   3.458   8.241  0.00  0.00    +0.000 A 
ATOM     32  C   UNL     1      44.541   2.583   9.002  0.00  0.00    +0.000 A 
ATOM     33  N   UNL     1      44.097   2.854  10.251  0.00  0.00    +0.000 NA
ENDBRANCH  27  28
ENDBRANCH  25  27
ENDBRANCH  24  25
ENDBRANCH   7  24
TORSDOF 7
ENDMDL
MODEL 9
REMARK VINA RESULT:    -6.877      3.465      8.215
REMARK INTER + INTRA:         -10.703
REMARK INTER:                  -8.769
REMARK INTRA:                  -1.934
REMARK UNBOUND:                -1.012
REMARK  Name = 
REMARK  8 active torsions:
REMARK  status: ('A' for Active; 'I' for Inactive)
REMARK    1  A    between atoms: C_1  and  C_2
REMARK    2  A    between atoms: C_4  and  C_5
REMARK    3  A    between atoms: C_5  and  N_6
REMARK    4  A    between atoms: C_7  and  C_9
REMARK    5  A    between atoms: C_21  and  C_22
REMARK    6  A    between atoms: C_22  and  N_23
REMARK    7  A    between atoms: N_23  and  C_24
REMARK    8  A    between atoms: C_24  and  C_25
REMARK                            x       y       z     vdW  Elec       q    Type
REMARK                         _______ _______ _______ _____ _____    ______ ____
ROOT
ATOM      1  C   UNL     1      47.962   9.183  19.336  0.00  0.00    +0.000 C 
ATOM      2  C   UNL     1      48.686   8.508  18.202  0.00  0.00    +0.000 A 
ATOM      3  C   UNL     1      48.249   8.758  16.887  0.00  0.00    +0.000 A 
ATOM      4  C   UNL     1      48.899   8.202  15.779  0.00  0.00    +0.000 A 
ATOM      5  C   UNL     1      49.982   7.346  15.998  0.00  0.00    +0.000 A 
ATOM      6  C   UNL     1      50.414   7.068  17.300  0.00  0.00    +0.000 A 
ATOM      7  C   UNL     1      49.777   7.637  18.419  0.00  0.00    +0.000 A 
ENDROOT
BRANCH   4   8
ATOM      8  C   UNL     1      48.409   8.502  14.387  0.00  0.00    +0.000 C 
BRANCH   8   9
ATOM      9  N   UNL     1      47.364   7.591  13.990  0.00  0.00    +0.000 N 
ATOM     10  C   UNL     1      47.640   6.492  13.218  0.00  0.00    +0.000 C 
ATOM     11  O   UNL     1      48.785   6.210  12.873  0.00  0.00    +0.000 OA
ATOM     12  H   UNL     1      46.409   7.927  14.062  0.00  0.00    +0.000 HD
BRANCH  10  13
ATOM     13  C   UNL     1      46.505   5.625  12.873  0.00  0.00    +0.000 A 
ATOM     14  C   UNL     1      46.592   4.258  13.103  0.00  0.00    +0.000 A 
ATOM     15  S   UNL     1      45.173   3.403  12.701  0.00  0.00    +0.000 S 
ATOM     16  C   UNL     1      44.410   4.820  12.151  0.00  0.00    +0.000 A 
ATOM     17  N   UNL     1      43.150   4.782  11.640  0.00  0.00    +0.000 NA
ATOM     18  C   UNL     1      42.701   5.924  11.237  0.00  0.00    +0.000 A 
ATOM     19  N   UNL     1      43.400   7.103  11.300  0.00  0.00    +0.000 N 
ATOM     20  C   UNL     1      44.667   7.192  11.829  0.00  0.00    +0.000 A 
ATOM     21  O   UNL     1      45.253   8.268  11.897  0.00  0.00    +0.000 OA
ATOM     22  C   UNL     1      45.219   5.935  12.292  0.00  0.00    +0.000 A 
ATOM     23  H   UNL     1      42.994   7.964  10.973  0.00  0.00    +0.000 HD
ENDBRANCH  10  13
ENDBRANCH   8   9
ENDBRANCH   4   8
BRANCH   7  24
ATOM     24  C   UNL     1      50.294   7.300  19.809  0.00  0.00    +0.000 C 
BRANCH  24  25
ATOM     25  N   UNL     1      50.298   5.856  20.039  0.00  0.00    +0.000 NA
ATOM     26  H   UNL     1      50.773   5.665  20.920  0.00  0.00    +0.000 HD
BRANCH  25  27
ATOM     27  C   UNL     1      48.939   5.306  20.119  0.00  0.00    +0.000 C 
BRANCH  27  28
ATOM     28  C   UNL     1      48.570   4.542  18.858  0.00  0.00    +0.000 A 
ATOM     29  C   UNL     1      47.412   4.873  18.155  0.00  0.00    +0.000 A 
ATOM     30  C   UNL     1      47.110   4.183  16.984  0.00  0.00    +0.000 A 
ATOM     31  C   UNL     1      47.962   3.176  16.549  0.00  0.00    +0.000 A 
ATOM     32  C   UNL     1      49.087   2.901  17.309  0.00  0.00    +0.000 A 
ATOM     33  N   UNL     1      49.413   3.559  18.446  0.00  0.00    +0.000 NA
ENDBRANCH  27  28
ENDBRANCH  25  27
ENDBRANCH  24  25
ENDBRANCH   7  24
TORSDOF 7
ENDMDL
