MODEL 1
REMARK VINA RESULT:    -8.643      0.000      0.000
REMARK INTER + INTRA:         -11.080
REMARK INTER:                 -10.664
REMARK INTRA:                  -0.417
REMARK UNBOUND:                -0.417
REMARK  Name = 
REMARK  4 active torsions:
REMARK  status: ('A' for Active; 'I' for Inactive)
REMARK    1  A    between atoms: C_2  and  C_4
REMARK    2  A    between atoms: C_7  and  N_8
REMARK    3  A    between atoms: N_8  and  C_9
REMARK    4  A    between atoms: C_9  and  C_10
REMARK                            x       y       z     vdW  Elec       q    Type
REMARK                         _______ _______ _______ _____ _____    ______ ____
ROOT
ATOM      1  N   UNL     1      43.739   4.818   9.934  0.00  0.00    +0.000 N 
ATOM      2  H   UNL     1      42.796   4.759   9.556  0.00  0.00    +0.000 HD
ENDROOT
BRANCH   1   6
ATOM      3  C   UNL     1      46.342   2.286   7.778  0.00  0.00    +0.000 A 
ATOM      4  C   UNL     1      45.452   1.727   8.704  0.00  0.00    +0.000 A 
ATOM      5  C   UNL     1      44.595   2.553   9.445  0.00  0.00    +0.000 A 
ATOM      6  C   UNL     1      44.601   3.934   9.258  0.00  0.00    +0.000 A 
ATOM      7  C   UNL     1      45.495   4.483   8.327  0.00  0.00    +0.000 A 
ATOM      8  C   UNL     1      46.373   3.670   7.603  0.00  0.00    +0.000 A 
BRANCH   3  10
ATOM      9  N   UNL     1      48.399   2.066   6.490  0.00  0.00    +0.000 N 
ATOM     10  C   UNL     1      47.282   1.451   6.985  0.00  0.00    +0.000 C 
ATOM     11  O   UNL     1      47.093   0.256   6.813  0.00  0.00    +0.000 OA
ATOM     12  H   UNL     1      49.080   1.459   6.051  0.00  0.00    +0.000 HD
ATOM     13  H   UNL     1      48.718   2.959   6.832  0.00  0.00    +0.000 HD
ENDBRANCH   3  10
ENDBRANCH   1   6
BRANCH   1  14
ATOM     14  C   UNL     1      43.839   5.157  11.365  0.00  0.00    +0.000 C 
ATOM     15  C   UNL     1      42.999   4.260  12.271  0.00  0.00    +0.000 C 
ATOM     16  C   UNL     1      42.637   5.700  12.118  0.00  0.00    +0.000 C 
BRANCH  14  17
ATOM     17  C   UNL     1      45.239   5.504  11.873  0.00  0.00    +0.000 A 
ATOM     18  C   UNL     1      45.954   6.615  11.378  0.00  0.00    +0.000 A 
ATOM     19  C   UNL     1      47.199   6.978  11.898  0.00  0.00    +0.000 A 
ATOM     20  C   UNL     1      47.757   6.220  12.916  0.00  0.00    +0.000 A 
ATOM     21  F   UNL     1      48.941   6.577  13.432  0.00  0.00    +0.000 F 
ATOM     22  C   UNL     1      47.100   5.104  13.413  0.00  0.00    +0.000 A 
ATOM     23  C   UNL     1      45.851   4.750  12.893  0.00  0.00    +0.000 A 
ENDBRANCH  14  17
ENDBRANCH   1  14
TORSDOF 4
ENDMDL
MODEL 2
REMARK VINA RESULT:    -7.237      3.981      6.581
REMARK INTER + INTRA:          -9.346
REMARK INTER:                  -8.833
REMARK INTRA:                  -0.514
REMARK UNBOUND:                -0.417
REMARK  Name = 
REMARK  4 active torsions:
REMARK  status: ('A' for Active; 'I' for Inactive)
REMARK    1  A    between atoms: C_2  and  C_4
REMARK    2  A    between atoms: C_7  and  N_8
REMARK    3  A    between atoms: N_8  and  C_9
REMARK    4  A    between atoms: C_9  and  C_10
REMARK                            x       y       z     vdW  Elec       q    Type
REMARK                         _______ _______ _______ _____ _____    ______ ____
ROOT
ATOM      1  N   UNL     1      44.687   5.951  10.626  0.00  0.00    +0.000 N 
ATOM      2  H   UNL     1      44.631   6.381   9.705  0.00  0.00    +0.000 HD
ENDROOT
BRANCH   1   6
ATOM      3  C   UNL     1      47.090   8.338  13.149  0.00  0.00    +0.000 A 
ATOM      4  C   UNL     1      47.659   7.235  12.501  0.00  0.00    +0.000 A 
ATOM      5  C   UNL     1      46.873   6.418  11.677  0.00  0.00    +0.000 A 
ATOM      6  C   UNL     1      45.524   6.701  11.474  0.00  0.00    +0.000 A 
ATOM      7  C   UNL     1      44.964   7.809  12.126  0.00  0.00    +0.000 A 
ATOM      8  C   UNL     1      45.733   8.613  12.973  0.00  0.00    +0.000 A 
BRANCH   3  10
ATOM      9  N   UNL     1      47.617   9.142  15.389  0.00  0.00    +0.000 N 
ATOM     10  C   UNL     1      47.879   9.219  14.049  0.00  0.00    +0.000 C 
ATOM     11  O   UNL     1      48.756   9.955  13.620  0.00  0.00    +0.000 OA
ATOM     12  H   UNL     1      48.240   9.665  15.992  0.00  0.00    +0.000 HD
ATOM     13  H   UNL     1      47.108   8.372  15.794  0.00  0.00    +0.000 HD
ENDBRANCH   3  10
ENDBRANCH   1   6
BRANCH   1  14
ATOM     14  C   UNL     1      44.556   4.483  10.660  0.00  0.00    +0.000 C 
ATOM     15  C   UNL     1      43.187   3.997  11.130  0.00  0.00    +0.000 C 
ATOM     16  C   UNL     1      44.390   3.751  11.980  0.00  0.00    +0.000 C 
BRANCH  14  17
ATOM     17  C   UNL     1      45.167   3.731   9.477  0.00  0.00    +0.000 A 
ATOM     18  C   UNL     1      45.738   4.410   8.380  0.00  0.00    +0.000 A 
ATOM     19  C   UNL     1      46.367   3.724   7.338  0.00  0.00    +0.000 A 
ATOM     20  C   UNL     1      46.420   2.339   7.370  0.00  0.00    +0.000 A 
ATOM     21  F   UNL     1      47.040   1.679   6.384  0.00  0.00    +0.000 F 
ATOM     22  C   UNL     1      45.847   1.631   8.417  0.00  0.00    +0.000 A 
ATOM     23  C   UNL     1      45.225   2.324   9.461  0.00  0.00    +0.000 A 
ENDBRANCH  14  17
ENDBRANCH   1  14
TORSDOF 4
ENDMDL
MODEL 3
REMARK VINA RESULT:    -6.823      3.802      6.042
REMARK INTER + INTRA:          -8.835
REMARK INTER:                  -8.259
REMARK INTRA:                  -0.576
REMARK UNBOUND:                -0.417
REMARK  Name = 
REMARK  4 active torsions:
REMARK  status: ('A' for Active; 'I' for Inactive)
REMARK    1  A    between atoms: C_2  and  C_4
REMARK    2  A    between atoms: C_7  and  N_8
REMARK    3  A    between atoms: N_8  and  C_9
REMARK    4  A    between atoms: C_9  and  C_10
REMARK                            x       y       z     vdW  Elec       q    Type
REMARK                         _______ _______ _______ _____ _____    ______ ____
ROOT
ATOM      1  N   UNL     1      45.036   6.156  11.243  0.00  0.00    +0.000 N 
ATOM      2  H   UNL     1      44.960   6.808  10.466  0.00  0.00    +0.000 HD
ENDROOT
BRANCH   1   6
ATOM      3  C   UNL     1      48.644   6.911  13.304  0.00  0.00    +0.000 A 
ATOM      4  C   UNL     1      47.649   6.144  13.922  0.00  0.00    +0.000 A 
ATOM      5  C   UNL     1      46.435   5.900  13.263  0.00  0.00    +0.000 A 
ATOM      6  C   UNL     1      46.210   6.398  11.981  0.00  0.00    +0.000 A 
ATOM      7  C   UNL     1      47.215   7.164  11.371  0.00  0.00    +0.000 A 
ATOM      8  C   UNL     1      48.417   7.435  12.032  0.00  0.00    +0.000 A 
BRANCH   3  10
ATOM      9  N   UNL     1      50.911   7.803  13.217  0.00  0.00    +0.000 N 
ATOM     10  C   UNL     1      49.937   7.212  13.973  0.00  0.00    +0.000 C 
ATOM     11  O   UNL     1      50.116   6.981  15.160  0.00  0.00    +0.000 OA
ATOM     12  H   UNL     1      51.739   8.101  13.716  0.00  0.00    +0.000 HD
ATOM     13  H   UNL     1      50.711   8.245  12.333  0.00  0.00    +0.000 HD
ENDBRANCH   3  10
ENDBRANCH   1   6
BRANCH   1  14
ATOM     14  C   UNL     1      44.440   4.825  11.029  0.00  0.00    +0.000 C 
ATOM     15  C   UNL     1      42.926   4.789  11.221  0.00  0.00    +0.000 C 
ATOM     16  C   UNL     1      43.809   4.064  12.181  0.00  0.00    +0.000 C 
BRANCH  14  17
ATOM     17  C   UNL     1      44.987   4.032   9.840  0.00  0.00    +0.000 A 
ATOM     18  C   UNL     1      45.636   4.667   8.760  0.00  0.00    +0.000 A 
ATOM     19  C   UNL     1      46.205   3.937   7.714  0.00  0.00    +0.000 A 
ATOM     20  C   UNL     1      46.119   2.554   7.725  0.00  0.00    +0.000 A 
ATOM     21  F   UNL     1      46.682   1.849   6.735  0.00  0.00    +0.000 F 
ATOM     22  C   UNL     1      45.466   1.891   8.754  0.00  0.00    +0.000 A 
ATOM     23  C   UNL     1      44.905   2.627   9.803  0.00  0.00    +0.000 A 
ENDBRANCH  14  17
ENDBRANCH   1  14
TORSDOF 4
ENDMDL
MODEL 4
REMARK VINA RESULT:    -6.668      3.893      6.428
REMARK INTER + INTRA:          -8.643
REMARK INTER:                  -8.183
REMARK INTRA:                  -0.460
REMARK UNBOUND:                -0.417
REMARK  Name = 
REMARK  4 active torsions:
REMARK  status: ('A' for Active; 'I' for Inactive)
REMARK    1  A    between atoms: C_2  and  C_4
REMARK    2  A    between atoms: C_7  and  N_8
REMARK    3  A    between atoms: N_8  and  C_9
REMARK    4  A    between atoms: C_9  and  C_10
REMARK                            x       y       z     vdW  Elec       q    Type
REMARK                         _______ _______ _______ _____ _____    ______ ____
ROOT
ATOM      1  N   UNL     1      45.702   5.495  11.449  0.00  0.00    +0.000 N 
ATOM      2  H   UNL     1      46.371   5.959  10.839  0.00  0.00    +0.000 HD
ENDROOT
BRANCH   1   6
ATOM      3  C   UNL     1      47.545   4.825  15.191  0.00  0.00    +0.000 A 
ATOM      4  C   UNL     1      46.922   3.758  14.532  0.00  0.00    +0.000 A 
ATOM      5  C   UNL     1      46.286   3.965  13.299  0.00  0.00    +0.000 A 
ATOM      6  C   UNL     1      46.281   5.225  12.704  0.00  0.00    +0.000 A 
ATOM      7  C   UNL     1      46.910   6.286  13.372  0.00  0.00    +0.000 A 
ATOM      8  C   UNL     1      47.522   6.096  14.615  0.00  0.00    +0.000 A 
BRANCH   3  10
ATOM      9  N   UNL     1      47.410   4.604  17.614  0.00  0.00    +0.000 N 
ATOM     10  C   UNL     1      48.212   4.657  16.508  0.00  0.00    +0.000 C 
ATOM     11  O   UNL     1      49.424   4.530  16.603  0.00  0.00    +0.000 OA
ATOM     12  H   UNL     1      47.873   4.378  18.486  0.00  0.00    +0.000 HD
ATOM     13  H   UNL     1      46.418   4.435  17.552  0.00  0.00    +0.000 HD
ENDBRANCH   3  10
ENDBRANCH   1   6
BRANCH   1  14
ATOM     14  C   UNL     1      44.708   4.636  10.782  0.00  0.00    +0.000 C 
ATOM     15  C   UNL     1      43.342   5.295  10.608  0.00  0.00    +0.000 C 
ATOM     16  C   UNL     1      43.489   4.134  11.535  0.00  0.00    +0.000 C 
BRANCH  14  17
ATOM     17  C   UNL     1      45.220   3.823   9.592  0.00  0.00    +0.000 A 
ATOM     18  C   UNL     1      45.825   4.439   8.477  0.00  0.00    +0.000 A 
ATOM     19  C   UNL     1      46.364   3.692   7.427  0.00  0.00    +0.000 A 
ATOM     20  C   UNL     1      46.290   2.308   7.470  0.00  0.00    +0.000 A 
ATOM     21  F   UNL     1      46.824   1.587   6.476  0.00  0.00    +0.000 F 
ATOM     22  C   UNL     1      45.679   1.662   8.535  0.00  0.00    +0.000 A 
ATOM     23  C   UNL     1      45.149   2.416   9.587  0.00  0.00    +0.000 A 
ENDBRANCH  14  17
ENDBRANCH   1  14
TORSDOF 4
ENDMDL
MODEL 5
REMARK VINA RESULT:    -6.261      4.334      6.972
REMARK INTER + INTRA:          -8.141
REMARK INTER:                  -7.528
REMARK INTRA:                  -0.613
REMARK UNBOUND:                -0.417
REMARK  Name = 
REMARK  4 active torsions:
REMARK  status: ('A' for Active; 'I' for Inactive)
REMARK    1  A    between atoms: C_2  and  C_4
REMARK    2  A    between atoms: C_7  and  N_8
REMARK    3  A    between atoms: N_8  and  C_9
REMARK    4  A    between atoms: C_9  and  C_10
REMARK                            x       y       z     vdW  Elec       q    Type
REMARK                         _______ _______ _______ _____ _____    ______ ____
ROOT
ATOM      1  N   UNL     1      47.084   6.218  12.313  0.00  0.00    +0.000 N 
ATOM      2  H   UNL     1      47.774   5.883  11.644  0.00  0.00    +0.000 HD
ENDROOT
BRANCH   1   6
ATOM      3  C   UNL     1      48.027   5.030  16.256  0.00  0.00    +0.000 A 
ATOM      4  C   UNL     1      48.578   6.212  15.745  0.00  0.00    +0.000 A 
ATOM      5  C   UNL     1      48.294   6.612  14.431  0.00  0.00    +0.000 A 
ATOM      6  C   UNL     1      47.448   5.854  13.624  0.00  0.00    +0.000 A 
ATOM      7  C   UNL     1      46.900   4.673  14.146  0.00  0.00    +0.000 A 
ATOM      8  C   UNL     1      47.200   4.251  15.446  0.00  0.00    +0.000 A 
BRANCH   3  10
ATOM      9  N   UNL     1      47.336   4.724  18.573  0.00  0.00    +0.000 N 
ATOM     10  C   UNL     1      48.316   4.556  17.634  0.00  0.00    +0.000 C 
ATOM     11  O   UNL     1      49.369   4.002  17.916  0.00  0.00    +0.000 OA
ATOM     12  H   UNL     1      47.508   4.295  19.474  0.00  0.00    +0.000 HD
ATOM     13  H   UNL     1      46.379   4.922  18.322  0.00  0.00    +0.000 HD
ENDBRANCH   3  10
ENDBRANCH   1   6
BRANCH   1  14
ATOM     14  C   UNL     1      45.698   6.304  11.821  0.00  0.00    +0.000 C 
ATOM     15  C   UNL     1      45.269   7.716  11.431  0.00  0.00    +0.000 C 
ATOM     16  C   UNL     1      44.641   7.054  12.612  0.00  0.00    +0.000 C 
BRANCH  14  17
ATOM     17  C   UNL     1      45.251   5.181  10.883  0.00  0.00    +0.000 A 
ATOM     18  C   UNL     1      45.635   5.151   9.526  0.00  0.00    +0.000 A 
ATOM     19  C   UNL     1      45.293   4.085   8.690  0.00  0.00    +0.000 A 
ATOM     20  C   UNL     1      44.544   3.036   9.199  0.00  0.00    +0.000 A 
ATOM     21  F   UNL     1      44.233   2.002   8.406  0.00  0.00    +0.000 F 
ATOM     22  C   UNL     1      44.122   3.039  10.521  0.00  0.00    +0.000 A 
ATOM     23  C   UNL     1      44.474   4.105  11.354  0.00  0.00    +0.000 A 
ENDBRANCH  14  17
ENDBRANCH   1  14
TORSDOF 4
ENDMDL
MODEL 6
REMARK VINA RESULT:    -6.066      2.949      4.715
REMARK INTER + INTRA:          -7.901
REMARK INTER:                  -7.647
REMARK INTRA:                  -0.254
REMARK UNBOUND:                -0.417
REMARK  Name = 
REMARK  4 active torsions:
REMARK  status: ('A' for Active; 'I' for Inactive)
REMARK    1  A    between atoms: C_2  and  C_4
REMARK    2  A    between atoms: C_7  and  N_8
REMARK    3  A    between atoms: N_8  and  C_9
REMARK    4  A    between atoms: C_9  and  C_10
REMARK                            x       y       z     vdW  Elec       q    Type
REMARK                         _______ _______ _______ _____ _____    ______ ____
ROOT
ATOM      1  N   UNL     1      46.093   6.058  13.603  0.00  0.00    +0.000 N 
ATOM      2  H   UNL     1      45.382   5.970  14.325  0.00  0.00    +0.000 HD
ENDROOT
BRANCH   1   6
ATOM      3  C   UNL     1      45.014   3.765  10.224  0.00  0.00    +0.000 A 
ATOM      4  C   UNL     1      45.376   5.107  10.055  0.00  0.00    +0.000 A 
ATOM      5  C   UNL     1      45.716   5.891  11.167  0.00  0.00    +0.000 A 
ATOM      6  C   UNL     1      45.720   5.343  12.448  0.00  0.00    +0.000 A 
ATOM      7  C   UNL     1      45.358   3.997  12.606  0.00  0.00    +0.000 A 
ATOM      8  C   UNL     1      44.990   3.216  11.506  0.00  0.00    +0.000 A 
BRANCH   3  10
ATOM      9  N   UNL     1      44.331   3.526   7.896  0.00  0.00    +0.000 N 
ATOM     10  C   UNL     1      44.626   2.902   9.077  0.00  0.00    +0.000 C 
ATOM     11  O   UNL     1      44.607   1.683   9.167  0.00  0.00    +0.000 OA
ATOM     12  H   UNL     1      44.178   2.918   7.101  0.00  0.00    +0.000 HD
ATOM     13  H   UNL     1      44.592   4.482   7.713  0.00  0.00    +0.000 HD
ENDBRANCH   3  10
ENDBRANCH   1   6
BRANCH   1  14
ATOM     14  C   UNL     1      47.479   6.215  14.079  0.00  0.00    +0.000 C 
ATOM     15  C   UNL     1      48.013   7.640  13.964  0.00  0.00    +0.000 C 
ATOM     16  C   UNL     1      48.596   6.562  13.112  0.00  0.00    +0.000 C 
BRANCH  14  17
ATOM     17  C   UNL     1      47.831   5.466  15.366  0.00  0.00    +0.000 A 
ATOM     18  C   UNL     1      47.206   4.250  15.713  0.00  0.00    +0.000 A 
ATOM     19  C   UNL     1      47.584   3.527  16.847  0.00  0.00    +0.000 A 
ATOM     20  C   UNL     1      48.588   4.021  17.664  0.00  0.00    +0.000 A 
ATOM     21  F   UNL     1      48.968   3.321  18.741  0.00  0.00    +0.000 F 
ATOM     22  C   UNL     1      49.211   5.227  17.375  0.00  0.00    +0.000 A 
ATOM     23  C   UNL     1      48.833   5.942  16.234  0.00  0.00    +0.000 A 
ENDBRANCH  14  17
ENDBRANCH   1  14
TORSDOF 4
ENDMDL
MODEL 7
REMARK VINA RESULT:    -5.848      3.231      5.087
REMARK INTER + INTRA:          -7.633
REMARK INTER:                  -6.963
REMARK INTRA:                  -0.670
REMARK UNBOUND:                -0.417
REMARK  Name = 
REMARK  4 active torsions:
REMARK  status: ('A' for Active; 'I' for Inactive)
REMARK    1  A    between atoms: C_2  and  C_4
REMARK    2  A    between atoms: C_7  and  N_8
REMARK    3  A    between atoms: N_8  and  C_9
REMARK    4  A    between atoms: C_9  and  C_10
REMARK                            x       y       z     vdW  Elec       q    Type
REMARK                         _______ _______ _______ _____ _____    ______ ____
ROOT
ATOM      1  N   UNL     1      46.519   7.691  12.664  0.00  0.00    +0.000 N 
ATOM      2  H   UNL     1      45.884   8.269  13.211  0.00  0.00    +0.000 HD
ENDROOT
BRANCH   1   6
ATOM      3  C   UNL     1      44.627   4.091  11.524  0.00  0.00    +0.000 A 
ATOM      4  C   UNL     1      44.966   4.292  12.868  0.00  0.00    +0.000 A 
ATOM      5  C   UNL     1      45.614   5.472  13.263  0.00  0.00    +0.000 A 
ATOM      6  C   UNL     1      45.911   6.465  12.332  0.00  0.00    +0.000 A 
ATOM      7  C   UNL     1      45.566   6.253  10.989  0.00  0.00    +0.000 A 
ATOM      8  C   UNL     1      44.945   5.069  10.581  0.00  0.00    +0.000 A 
BRANCH   3  10
ATOM      9  N   UNL     1      44.502   2.215   9.972  0.00  0.00    +0.000 N 
ATOM     10  C   UNL     1      43.959   2.848  11.057  0.00  0.00    +0.000 C 
ATOM     11  O   UNL     1      42.990   2.382  11.637  0.00  0.00    +0.000 OA
ATOM     12  H   UNL     1      44.102   1.315   9.739  0.00  0.00    +0.000 HD
ATOM     13  H   UNL     1      45.434   2.413   9.644  0.00  0.00    +0.000 HD
ENDBRANCH   3  10
ENDBRANCH   1   6
BRANCH   1  14
ATOM     14  C   UNL     1      47.955   7.866  12.945  0.00  0.00    +0.000 C 
ATOM     15  C   UNL     1      48.641   8.885  12.038  0.00  0.00    +0.000 C 
ATOM     16  C   UNL     1      49.000   7.440  11.930  0.00  0.00    +0.000 C 
BRANCH  14  17
ATOM     17  C   UNL     1      48.345   7.911  14.424  0.00  0.00    +0.000 A 
ATOM     18  C   UNL     1      48.066   9.033  15.232  0.00  0.00    +0.000 A 
ATOM     19  C   UNL     1      48.351   9.041  16.599  0.00  0.00    +0.000 A 
ATOM     20  C   UNL     1      48.937   7.927  17.179  0.00  0.00    +0.000 A 
ATOM     21  F   UNL     1      49.192   7.923  18.494  0.00  0.00    +0.000 F 
ATOM     22  C   UNL     1      49.253   6.812  16.415  0.00  0.00    +0.000 A 
ATOM     23  C   UNL     1      48.959   6.807  15.048  0.00  0.00    +0.000 A 
ENDBRANCH  14  17
ENDBRANCH   1  14
TORSDOF 4
ENDMDL
