MODEL 1
REMARK VINA RESULT:    -8.413      0.000      0.000
REMARK INTER + INTRA:         -12.489
REMARK INTER:                 -11.364
REMARK INTRA:                  -1.124
REMARK UNBOUND:                -1.124
REMARK  Name = 
REMARK  6 active torsions:
REMARK  status: ('A' for Active; 'I' for Inactive)
REMARK    1  A    between atoms: C_2  and  C_20
REMARK    2  A    between atoms: N_3  and  C_4
REMARK    3  A    between atoms: C_4  and  C_5
REMARK    4  A    between atoms: C_8  and  O_9
REMARK    5  A    between atoms: O_9  and  C_10
REMARK    6  A    between atoms: C_10  and  C_11
REMARK                            x       y       z     vdW  Elec       q    Type
REMARK                         _______ _______ _______ _____ _____    ______ ____
ROOT
ATOM      1  C   UNL     1      46.924   7.921  13.198  0.00  0.00    +0.000 C 
ENDROOT
BRANCH   1   2
ATOM      2  C   UNL     1      46.106   6.975  12.355  0.00  0.00    +0.000 A 
ATOM      3  C   UNL     1      46.494   6.670  11.044  0.00  0.00    +0.000 A 
ATOM      4  C   UNL     1      45.759   5.764  10.267  0.00  0.00    +0.000 A 
ATOM      5  C   UNL     1      44.615   5.159  10.788  0.00  0.00    +0.000 A 
ATOM      6  C   UNL     1      44.191   5.505  12.073  0.00  0.00    +0.000 A 
ATOM      7  C   UNL     1      44.929   6.402  12.854  0.00  0.00    +0.000 A 
BRANCH   5   8
ATOM      8  O   UNL     1      43.814   4.261  10.135  0.00  0.00    +0.000 OA
BRANCH   8   9
ATOM      9  C   UNL     1      44.181   3.946   8.797  0.00  0.00    +0.000 C 
BRANCH   9  10
ATOM     10  C   UNL     1      44.908   2.598   8.716  0.00  0.00    +0.000 C 
ATOM     11  O   UNL     1      44.477   1.620   9.332  0.00  0.00    +0.000 OA
ATOM     12  N   UNL     1      46.003   2.496   7.886  0.00  0.00    +0.000 N 
ATOM     13  C   UNL     1      46.613   3.543   7.090  0.00  0.00    +0.000 C 
ATOM     14  C   UNL     1      47.257   2.774   5.949  0.00  0.00    +0.000 C 
ATOM     15  C   UNL     1      47.730   1.484   6.614  0.00  0.00    +0.000 C 
ATOM     16  C   UNL     1      46.715   1.241   7.729  0.00  0.00    +0.000 C 
ENDBRANCH   9  10
ENDBRANCH   8   9
ENDBRANCH   5   8
ENDBRANCH   1   2
BRANCH   1  19
ATOM     17  O   UNL     1      49.362   6.653  13.605  0.00  0.00    +0.000 OA
ATOM     18  C   UNL     1      48.596   6.759  14.557  0.00  0.00    +0.000 C 
ATOM     19  N   UNL     1      47.341   7.308  14.434  0.00  0.00    +0.000 N 
ATOM     20  H   UNL     1      46.833   7.575  15.268  0.00  0.00    +0.000 HD
BRANCH  18  21
ATOM     21  C   UNL     1      48.947   6.245  15.885  0.00  0.00    +0.000 A 
ATOM     22  C   UNL     1      49.875   6.917  16.671  0.00  0.00    +0.000 A 
ATOM     23  S   UNL     1      50.205   6.140  18.152  0.00  0.00    +0.000 S 
ATOM     24  C   UNL     1      49.078   4.907  17.819  0.00  0.00    +0.000 A 
ATOM     25  N   UNL     1      48.857   3.897  18.707  0.00  0.00    +0.000 NA
ATOM     26  C   UNL     1      47.945   3.059  18.342  0.00  0.00    +0.000 A 
ATOM     27  N   UNL     1      47.233   3.137  17.173  0.00  0.00    +0.000 N 
ATOM     28  C   UNL     1      47.442   4.122  16.231  0.00  0.00    +0.000 A 
ATOM     29  O   UNL     1      46.813   4.142  15.183  0.00  0.00    +0.000 OA
ATOM     30  C   UNL     1      48.462   5.087  16.596  0.00  0.00    +0.000 A 
ATOM     31  H   UNL     1      46.532   2.446  16.948  0.00  0.00    +0.000 HD
ENDBRANCH  18  21
ENDBRANCH   1  19
TORSDOF 6
ENDMDL
MODEL 2
REMARK VINA RESULT:    -8.070      1.391      1.737
REMARK INTER + INTRA:         -12.025
REMARK INTER:                 -11.141
REMARK INTRA:                  -0.884
REMARK UNBOUND:                -1.124
REMARK  Name = 
REMARK  6 active torsions:
REMARK  status: ('A' for Active; 'I' for Inactive)
REMARK    1  A    between atoms: C_2  and  C_20
REMARK    2  A    between atoms: N_3  and  C_4
REMARK    3  A    between atoms: C_4  and  C_5
REMARK    4  A    between atoms: C_8  and  O_9
REMARK    5  A    between atoms: O_9  and  C_10
REMARK    6  A    between atoms: C_10  and  C_11
REMARK                            x       y       z     vdW  Elec       q    Type
REMARK                         _______ _______ _______ _____ _____    ______ ____
ROOT
ATOM      1  C   UNL     1      48.123   6.918  13.417  0.00  0.00    +0.000 C 
ENDROOT
BRANCH   1   2
ATOM      2  C   UNL     1      47.043   6.175  12.672  0.00  0.00    +0.000 A 
ATOM      3  C   UNL     1      46.442   5.040  13.231  0.00  0.00    +0.000 A 
ATOM      4  C   UNL     1      45.412   4.365  12.561  0.00  0.00    +0.000 A 
ATOM      5  C   UNL     1      44.978   4.810  11.312  0.00  0.00    +0.000 A 
ATOM      6  C   UNL     1      45.615   5.905  10.724  0.00  0.00    +0.000 A 
ATOM      7  C   UNL     1      46.636   6.586  11.396  0.00  0.00    +0.000 A 
BRANCH   5   8
ATOM      8  O   UNL     1      43.986   4.242  10.558  0.00  0.00    +0.000 OA
BRANCH   8   9
ATOM      9  C   UNL     1      44.278   4.043   9.180  0.00  0.00    +0.000 C 
BRANCH   9  10
ATOM     10  C   UNL     1      44.946   2.684   8.938  0.00  0.00    +0.000 C 
ATOM     11  O   UNL     1      44.534   1.676   9.515  0.00  0.00    +0.000 OA
ATOM     12  N   UNL     1      45.963   2.613   8.010  0.00  0.00    +0.000 N 
ATOM     13  C   UNL     1      46.540   3.699   7.243  0.00  0.00    +0.000 C 
ATOM     14  C   UNL     1      47.057   3.000   5.997  0.00  0.00    +0.000 C 
ATOM     15  C   UNL     1      47.538   1.650   6.522  0.00  0.00    +0.000 C 
ATOM     16  C   UNL     1      46.613   1.353   7.700  0.00  0.00    +0.000 C 
ENDBRANCH   9  10
ENDBRANCH   8   9
ENDBRANCH   5   8
ENDBRANCH   1   2
BRANCH   1  19
ATOM     17  O   UNL     1      50.190   6.702  15.260  0.00  0.00    +0.000 OA
ATOM     18  C   UNL     1      49.041   6.778  15.682  0.00  0.00    +0.000 C 
ATOM     19  N   UNL     1      47.951   6.817  14.845  0.00  0.00    +0.000 N 
ATOM     20  H   UNL     1      47.051   7.097  15.216  0.00  0.00    +0.000 HD
BRANCH  18  21
ATOM     21  C   UNL     1      48.750   6.768  17.120  0.00  0.00    +0.000 A 
ATOM     22  C   UNL     1      48.371   7.939  17.764  0.00  0.00    +0.000 A 
ATOM     23  S   UNL     1      48.137   7.749  19.443  0.00  0.00    +0.000 S 
ATOM     24  C   UNL     1      48.479   6.082  19.357  0.00  0.00    +0.000 A 
ATOM     25  N   UNL     1      48.444   5.298  20.471  0.00  0.00    +0.000 NA
ATOM     26  C   UNL     1      48.680   4.048  20.250  0.00  0.00    +0.000 A 
ATOM     27  N   UNL     1      48.949   3.510  19.018  0.00  0.00    +0.000 N 
ATOM     28  C   UNL     1      49.025   4.266  17.867  0.00  0.00    +0.000 A 
ATOM     29  O   UNL     1      49.301   3.758  16.790  0.00  0.00    +0.000 OA
ATOM     30  C   UNL     1      48.768   5.680  18.067  0.00  0.00    +0.000 A 
ATOM     31  H   UNL     1      49.126   2.521  18.914  0.00  0.00    +0.000 HD
ENDBRANCH  18  21
ENDBRANCH   1  19
TORSDOF 6
ENDMDL
MODEL 3
REMARK VINA RESULT:    -7.885      2.039      2.580
REMARK INTER + INTRA:         -11.775
REMARK INTER:                 -10.932
REMARK INTRA:                  -0.843
REMARK UNBOUND:                -1.124
REMARK  Name = 
REMARK  6 active torsions:
REMARK  status: ('A' for Active; 'I' for Inactive)
REMARK    1  A    between atoms: C_2  and  C_20
REMARK    2  A    between atoms: N_3  and  C_4
REMARK    3  A    between atoms: C_4  and  C_5
REMARK    4  A    between atoms: C_8  and  O_9
REMARK    5  A    between atoms: O_9  and  C_10
REMARK    6  A    between atoms: C_10  and  C_11
REMARK                            x       y       z     vdW  Elec       q    Type
REMARK                         _______ _______ _______ _____ _____    ______ ____
ROOT
ATOM      1  C   UNL     1      47.986   6.712  13.713  0.00  0.00    +0.000 C 
ENDROOT
BRANCH   1   2
ATOM      2  C   UNL     1      46.891   6.118  12.864  0.00  0.00    +0.000 A 
ATOM      3  C   UNL     1      46.077   5.093  13.364  0.00  0.00    +0.000 A 
ATOM      4  C   UNL     1      45.034   4.560  12.594  0.00  0.00    +0.000 A 
ATOM      5  C   UNL     1      44.798   5.037  11.305  0.00  0.00    +0.000 A 
ATOM      6  C   UNL     1      45.644   6.017  10.779  0.00  0.00    +0.000 A 
ATOM      7  C   UNL     1      46.680   6.557  11.550  0.00  0.00    +0.000 A 
BRANCH   5   8
ATOM      8  O   UNL     1      43.816   4.603  10.455  0.00  0.00    +0.000 OA
BRANCH   8   9
ATOM      9  C   UNL     1      44.224   4.287   9.129  0.00  0.00    +0.000 C 
BRANCH   9  10
ATOM     10  C   UNL     1      44.835   2.883   9.048  0.00  0.00    +0.000 C 
ATOM     11  O   UNL     1      44.380   1.965   9.735  0.00  0.00    +0.000 OA
ATOM     12  N   UNL     1      45.849   2.664   8.141  0.00  0.00    +0.000 N 
ATOM     13  C   UNL     1      46.473   3.629   7.258  0.00  0.00    +0.000 C 
ATOM     14  C   UNL     1      46.961   2.771   6.103  0.00  0.00    +0.000 C 
ATOM     15  C   UNL     1      47.385   1.471   6.783  0.00  0.00    +0.000 C 
ATOM     16  C   UNL     1      46.446   1.350   7.982  0.00  0.00    +0.000 C 
ENDBRANCH   9  10
ENDBRANCH   8   9
ENDBRANCH   5   8
ENDBRANCH   1   2
BRANCH   1  19
ATOM     17  O   UNL     1      50.107   6.668  15.505  0.00  0.00    +0.000 OA
ATOM     18  C   UNL     1      48.997   6.338  15.910  0.00  0.00    +0.000 C 
ATOM     19  N   UNL     1      47.904   6.262  15.079  0.00  0.00    +0.000 N 
ATOM     20  H   UNL     1      46.978   6.203  15.485  0.00  0.00    +0.000 HD
BRANCH  18  21
ATOM     21  C   UNL     1      48.777   5.939  17.304  0.00  0.00    +0.000 A 
ATOM     22  C   UNL     1      49.038   4.635  17.706  0.00  0.00    +0.000 A 
ATOM     23  S   UNL     1      48.663   4.338  19.343  0.00  0.00    +0.000 S 
ATOM     24  C   UNL     1      48.192   5.957  19.586  0.00  0.00    +0.000 A 
ATOM     25  N   UNL     1      47.760   6.389  20.804  0.00  0.00    +0.000 NA
ATOM     26  C   UNL     1      47.479   7.648  20.852  0.00  0.00    +0.000 A 
ATOM     27  N   UNL     1      47.590   8.515  19.796  0.00  0.00    +0.000 N 
ATOM     28  C   UNL     1      47.993   8.120  18.538  0.00  0.00    +0.000 A 
ATOM     29  O   UNL     1      48.048   8.913  17.610  0.00  0.00    +0.000 OA
ATOM     30  C   UNL     1      48.319   6.709  18.434  0.00  0.00    +0.000 A 
ATOM     31  H   UNL     1      47.352   9.491  19.902  0.00  0.00    +0.000 HD
ENDBRANCH  18  21
ENDBRANCH   1  19
TORSDOF 6
ENDMDL
MODEL 4
REMARK VINA RESULT:    -7.400      1.990      2.572
REMARK INTER + INTRA:         -11.120
REMARK INTER:                  -9.979
REMARK INTRA:                  -1.141
REMARK UNBOUND:                -1.124
REMARK  Name = 
REMARK  6 active torsions:
REMARK  status: ('A' for Active; 'I' for Inactive)
REMARK    1  A    between atoms: C_2  and  C_20
REMARK    2  A    between atoms: N_3  and  C_4
REMARK    3  A    between atoms: C_4  and  C_5
REMARK    4  A    between atoms: C_8  and  O_9
REMARK    5  A    between atoms: O_9  and  C_10
REMARK    6  A    between atoms: C_10  and  C_11
REMARK                            x       y       z     vdW  Elec       q    Type
REMARK                         _______ _______ _______ _____ _____    ______ ____
ROOT
ATOM      1  C   UNL     1      48.748   7.583  12.518  0.00  0.00    +0.000 C 
ENDROOT
BRANCH   1   2
ATOM      2  C   UNL     1      47.419   6.881  12.622  0.00  0.00    +0.000 A 
ATOM      3  C   UNL     1      47.338   5.574  13.120  0.00  0.00    +0.000 A 
ATOM      4  C   UNL     1      46.101   4.928  13.254  0.00  0.00    +0.000 A 
ATOM      5  C   UNL     1      44.926   5.577  12.877  0.00  0.00    +0.000 A 
ATOM      6  C   UNL     1      45.006   6.857  12.324  0.00  0.00    +0.000 A 
ATOM      7  C   UNL     1      46.239   7.508  12.199  0.00  0.00    +0.000 A 
BRANCH   5   8
ATOM      8  O   UNL     1      43.661   5.058  12.958  0.00  0.00    +0.000 OA
BRANCH   8   9
ATOM      9  C   UNL     1      43.025   4.754  11.722  0.00  0.00    +0.000 C 
BRANCH   9  10
ATOM     10  C   UNL     1      43.471   3.391  11.181  0.00  0.00    +0.000 C 
ATOM     11  O   UNL     1      42.995   2.351  11.643  0.00  0.00    +0.000 OA
ATOM     12  N   UNL     1      44.355   3.365  10.125  0.00  0.00    +0.000 N 
ATOM     13  C   UNL     1      44.982   4.494   9.466  0.00  0.00    +0.000 C 
ATOM     14  C   UNL     1      45.253   3.967   8.067  0.00  0.00    +0.000 C 
ATOM     15  C   UNL     1      45.604   2.500   8.304  0.00  0.00    +0.000 C 
ATOM     16  C   UNL     1      44.789   2.111   9.535  0.00  0.00    +0.000 C 
ENDBRANCH   9  10
ENDBRANCH   8   9
ENDBRANCH   5   8
ENDBRANCH   1   2
BRANCH   1  19
ATOM     17  O   UNL     1      49.135   8.660  15.049  0.00  0.00    +0.000 OA
ATOM     18  C   UNL     1      49.763   7.651  14.744  0.00  0.00    +0.000 C 
ATOM     19  N   UNL     1      49.689   7.089  13.492  0.00  0.00    +0.000 N 
ATOM     20  H   UNL     1      50.042   6.150  13.349  0.00  0.00    +0.000 HD
BRANCH  18  21
ATOM     21  C   UNL     1      50.689   7.012  15.685  0.00  0.00    +0.000 A 
ATOM     22  C   UNL     1      52.016   7.422  15.745  0.00  0.00    +0.000 A 
ATOM     23  S   UNL     1      52.957   6.524  16.848  0.00  0.00    +0.000 S 
ATOM     24  C   UNL     1      51.612   5.593  17.324  0.00  0.00    +0.000 A 
ATOM     25  N   UNL     1      51.728   4.622  18.271  0.00  0.00    +0.000 NA
ATOM     26  C   UNL     1      50.619   4.028  18.564  0.00  0.00    +0.000 A 
ATOM     27  N   UNL     1      49.405   4.318  17.997  0.00  0.00    +0.000 N 
ATOM     28  C   UNL     1      49.242   5.270  17.014  0.00  0.00    +0.000 A 
ATOM     29  O   UNL     1      48.150   5.479  16.505  0.00  0.00    +0.000 OA
ATOM     30  C   UNL     1      50.464   5.963  16.650  0.00  0.00    +0.000 A 
ATOM     31  H   UNL     1      48.573   3.814  18.271  0.00  0.00    +0.000 HD
ENDBRANCH  18  21
ENDBRANCH   1  19
TORSDOF 6
ENDMDL
MODEL 5
REMARK VINA RESULT:    -7.264      2.275      3.530
REMARK INTER + INTRA:         -10.937
REMARK INTER:                  -9.968
REMARK INTRA:                  -0.969
REMARK UNBOUND:                -1.124
REMARK  Name = 
REMARK  6 active torsions:
REMARK  status: ('A' for Active; 'I' for Inactive)
REMARK    1  A    between atoms: C_2  and  C_20
REMARK    2  A    between atoms: N_3  and  C_4
REMARK    3  A    between atoms: C_4  and  C_5
REMARK    4  A    between atoms: C_8  and  O_9
REMARK    5  A    between atoms: O_9  and  C_10
REMARK    6  A    between atoms: C_10  and  C_11
REMARK                            x       y       z     vdW  Elec       q    Type
REMARK                         _______ _______ _______ _____ _____    ______ ____
ROOT
ATOM      1  C   UNL     1      47.498   4.023  15.187  0.00  0.00    +0.000 C 
ENDROOT
BRANCH   1   2
ATOM      2  C   UNL     1      46.660   4.342  13.975  0.00  0.00    +0.000 A 
ATOM      3  C   UNL     1      46.378   5.671  13.633  0.00  0.00    +0.000 A 
ATOM      4  C   UNL     1      45.630   5.977  12.487  0.00  0.00    +0.000 A 
ATOM      5  C   UNL     1      45.143   4.954  11.673  0.00  0.00    +0.000 A 
ATOM      6  C   UNL     1      45.371   3.627  12.042  0.00  0.00    +0.000 A 
ATOM      7  C   UNL     1      46.125   3.320  13.181  0.00  0.00    +0.000 A 
BRANCH   5   8
ATOM      8  O   UNL     1      44.404   5.120  10.532  0.00  0.00    +0.000 OA
BRANCH   8   9
ATOM      9  C   UNL     1      44.420   4.038   9.608  0.00  0.00    +0.000 C 
BRANCH   9  10
ATOM     10  C   UNL     1      45.550   4.190   8.583  0.00  0.00    +0.000 C 
ATOM     11  O   UNL     1      46.052   5.296   8.370  0.00  0.00    +0.000 OA
ATOM     12  N   UNL     1      46.032   3.055   7.968  0.00  0.00    +0.000 N 
ATOM     13  C   UNL     1      45.562   1.693   8.128  0.00  0.00    +0.000 C 
ATOM     14  C   UNL     1      46.795   0.866   7.807  0.00  0.00    +0.000 C 
ATOM     15  C   UNL     1      47.482   1.667   6.705  0.00  0.00    +0.000 C 
ATOM     16  C   UNL     1      47.128   3.120   7.019  0.00  0.00    +0.000 C 
ENDBRANCH   9  10
ENDBRANCH   8   9
ENDBRANCH   5   8
ENDBRANCH   1   2
BRANCH   1  19
ATOM     17  O   UNL     1      49.673   4.714  16.771  0.00  0.00    +0.000 OA
ATOM     18  C   UNL     1      48.674   5.424  16.813  0.00  0.00    +0.000 C 
ATOM     19  N   UNL     1      47.527   5.122  16.119  0.00  0.00    +0.000 N 
ATOM     20  H   UNL     1      46.814   5.833  16.007  0.00  0.00    +0.000 HD
BRANCH  18  21
ATOM     21  C   UNL     1      48.618   6.617  17.665  0.00  0.00    +0.000 A 
ATOM     22  C   UNL     1      48.711   6.494  19.046  0.00  0.00    +0.000 A 
ATOM     23  S   UNL     1      48.562   7.977  19.875  0.00  0.00    +0.000 S 
ATOM     24  C   UNL     1      48.424   8.842  18.414  0.00  0.00    +0.000 A 
ATOM     25  N   UNL     1      48.277  10.197  18.410  0.00  0.00    +0.000 NA
ATOM     26  C   UNL     1      48.230  10.723  17.231  0.00  0.00    +0.000 A 
ATOM     27  N   UNL     1      48.316  10.020  16.057  0.00  0.00    +0.000 N 
ATOM     28  C   UNL     1      48.435   8.647  16.010  0.00  0.00    +0.000 A 
ATOM     29  O   UNL     1      48.475   8.049  14.945  0.00  0.00    +0.000 OA
ATOM     30  C   UNL     1      48.490   8.010  17.313  0.00  0.00    +0.000 A 
ATOM     31  H   UNL     1      48.272  10.494  15.167  0.00  0.00    +0.000 HD
ENDBRANCH  18  21
ENDBRANCH   1  19
TORSDOF 6
ENDMDL
MODEL 6
REMARK VINA RESULT:    -6.933      2.464      3.502
REMARK INTER + INTRA:         -10.490
REMARK INTER:                  -9.415
REMARK INTRA:                  -1.075
REMARK UNBOUND:                -1.124
REMARK  Name = 
REMARK  6 active torsions:
REMARK  status: ('A' for Active; 'I' for Inactive)
REMARK    1  A    between atoms: C_2  and  C_20
REMARK    2  A    between atoms: N_3  and  C_4
REMARK    3  A    between atoms: C_4  and  C_5
REMARK    4  A    between atoms: C_8  and  O_9
REMARK    5  A    between atoms: O_9  and  C_10
REMARK    6  A    between atoms: C_10  and  C_11
REMARK                            x       y       z     vdW  Elec       q    Type
REMARK                         _______ _______ _______ _____ _____    ______ ____
ROOT
ATOM      1  C   UNL     1      48.646   7.425  13.221  0.00  0.00    +0.000 C 
ENDROOT
BRANCH   1   2
ATOM      2  C   UNL     1      47.277   6.808  13.095  0.00  0.00    +0.000 A 
ATOM      3  C   UNL     1      47.059   5.474  13.462  0.00  0.00    +0.000 A 
ATOM      4  C   UNL     1      45.781   4.903  13.383  0.00  0.00    +0.000 A 
ATOM      5  C   UNL     1      44.703   5.658  12.921  0.00  0.00    +0.000 A 
ATOM      6  C   UNL     1      44.926   6.970  12.497  0.00  0.00    +0.000 A 
ATOM      7  C   UNL     1      46.200   7.544  12.585  0.00  0.00    +0.000 A 
BRANCH   5   8
ATOM      8  O   UNL     1      43.411   5.220  12.797  0.00  0.00    +0.000 OA
BRANCH   8   9
ATOM      9  C   UNL     1      42.975   4.909  11.478  0.00  0.00    +0.000 C 
BRANCH   9  10
ATOM     10  C   UNL     1      43.435   3.511  11.050  0.00  0.00    +0.000 C 
ATOM     11  O   UNL     1      42.930   2.506  11.557  0.00  0.00    +0.000 OA
ATOM     12  N   UNL     1      44.367   3.412  10.040  0.00  0.00    +0.000 N 
ATOM     13  C   UNL     1      45.033   4.492   9.339  0.00  0.00    +0.000 C 
ATOM     14  C   UNL     1      45.365   3.872   7.991  0.00  0.00    +0.000 C 
ATOM     15  C   UNL     1      45.693   2.422   8.340  0.00  0.00    +0.000 C 
ATOM     16  C   UNL     1      44.818   2.120   9.555  0.00  0.00    +0.000 C 
ENDBRANCH   9  10
ENDBRANCH   8   9
ENDBRANCH   5   8
ENDBRANCH   1   2
BRANCH   1  19
ATOM     17  O   UNL     1      48.780   8.127  15.905  0.00  0.00    +0.000 OA
ATOM     18  C   UNL     1      49.396   7.134  15.533  0.00  0.00    +0.000 C 
ATOM     19  N   UNL     1      49.446   6.751  14.213  0.00  0.00    +0.000 N 
ATOM     20  H   UNL     1      49.773   5.821  13.979  0.00  0.00    +0.000 HD
BRANCH  18  21
ATOM     21  C   UNL     1      50.179   6.321  16.469  0.00  0.00    +0.000 A 
ATOM     22  C   UNL     1      49.539   5.453  17.345  0.00  0.00    +0.000 A 
ATOM     23  S   UNL     1      50.604   4.641  18.401  0.00  0.00    +0.000 S 
ATOM     24  C   UNL     1      51.963   5.380  17.687  0.00  0.00    +0.000 A 
ATOM     25  N   UNL     1      53.223   5.106  18.125  0.00  0.00    +0.000 NA
ATOM     26  C   UNL     1      54.158   5.703  17.463  0.00  0.00    +0.000 A 
ATOM     27  N   UNL     1      53.948   6.548  16.404  0.00  0.00    +0.000 N 
ATOM     28  C   UNL     1      52.691   6.879  15.944  0.00  0.00    +0.000 A 
ATOM     29  O   UNL     1      52.539   7.663  15.019  0.00  0.00    +0.000 OA
ATOM     30  C   UNL     1      51.607   6.233  16.660  0.00  0.00    +0.000 A 
ATOM     31  H   UNL     1      54.725   6.984  15.929  0.00  0.00    +0.000 HD
ENDBRANCH  18  21
ENDBRANCH   1  19
TORSDOF 6
ENDMDL
MODEL 7
REMARK VINA RESULT:    -6.884      2.859      8.298
REMARK INTER + INTRA:         -10.423
REMARK INTER:                  -9.188
REMARK INTRA:                  -1.234
REMARK UNBOUND:                -1.124
REMARK  Name = 
REMARK  6 active torsions:
REMARK  status: ('A' for Active; 'I' for Inactive)
REMARK    1  A    between atoms: C_2  and  C_20
REMARK    2  A    between atoms: N_3  and  C_4
REMARK    3  A    between atoms: C_4  and  C_5
REMARK    4  A    between atoms: C_8  and  O_9
REMARK    5  A    between atoms: O_9  and  C_10
REMARK    6  A    between atoms: C_10  and  C_11
REMARK                            x       y       z     vdW  Elec       q    Type
REMARK                         _______ _______ _______ _____ _____    ______ ____
ROOT
ATOM      1  C   UNL     1      47.617   7.819  11.759  0.00  0.00    +0.000 C 
ENDROOT
BRANCH   1   2
ATOM      2  C   UNL     1      48.240   7.980  13.123  0.00  0.00    +0.000 A 
ATOM      3  C   UNL     1      47.705   8.884  14.049  0.00  0.00    +0.000 A 
ATOM      4  C   UNL     1      48.256   9.014  15.332  0.00  0.00    +0.000 A 
ATOM      5  C   UNL     1      49.362   8.248  15.701  0.00  0.00    +0.000 A 
ATOM      6  C   UNL     1      49.936   7.389  14.761  0.00  0.00    +0.000 A 
ATOM      7  C   UNL     1      49.381   7.251  13.484  0.00  0.00    +0.000 A 
BRANCH   5   8
ATOM      8  O   UNL     1      49.990   8.281  16.917  0.00  0.00    +0.000 OA
BRANCH   8   9
ATOM      9  C   UNL     1      50.118   7.035  17.594  0.00  0.00    +0.000 C 
BRANCH   9  10
ATOM     10  C   UNL     1      48.752   6.485  18.021  0.00  0.00    +0.000 C 
ATOM     11  O   UNL     1      47.898   7.238  18.496  0.00  0.00    +0.000 OA
ATOM     12  N   UNL     1      48.485   5.153  17.793  0.00  0.00    +0.000 N 
ATOM     13  C   UNL     1      49.372   4.154  17.230  0.00  0.00    +0.000 C 
ATOM     14  C   UNL     1      48.412   3.154  16.609  0.00  0.00    +0.000 C 
ATOM     15  C   UNL     1      47.229   3.153  17.574  0.00  0.00    +0.000 C 
ATOM     16  C   UNL     1      47.198   4.574  18.134  0.00  0.00    +0.000 C 
ENDBRANCH   9  10
ENDBRANCH   8   9
ENDBRANCH   5   8
ENDBRANCH   1   2
BRANCH   1  19
ATOM     17  O   UNL     1      44.867   7.527  12.015  0.00  0.00    +0.000 OA
ATOM     18  C   UNL     1      45.532   6.538  11.723  0.00  0.00    +0.000 C 
ATOM     19  N   UNL     1      46.904   6.572  11.644  0.00  0.00    +0.000 N 
ATOM     20  H   UNL     1      47.393   5.807  11.194  0.00  0.00    +0.000 HD
BRANCH  18  21
ATOM     21  C   UNL     1      44.904   5.231  11.501  0.00  0.00    +0.000 A 
ATOM     22  C   UNL     1      44.126   4.653  12.496  0.00  0.00    +0.000 A 
ATOM     23  S   UNL     1      43.532   3.107  12.085  0.00  0.00    +0.000 S 
ATOM     24  C   UNL     1      44.249   3.182  10.542  0.00  0.00    +0.000 A 
ATOM     25  N   UNL     1      44.115   2.157   9.654  0.00  0.00    +0.000 NA
ATOM     26  C   UNL     1      44.673   2.370   8.509  0.00  0.00    +0.000 A 
ATOM     27  N   UNL     1      45.351   3.512   8.170  0.00  0.00    +0.000 N 
ATOM     28  C   UNL     1      45.539   4.562   9.043  0.00  0.00    +0.000 A 
ATOM     29  O   UNL     1      46.179   5.552   8.718  0.00  0.00    +0.000 OA
ATOM     30  C   UNL     1      44.930   4.368  10.346  0.00  0.00    +0.000 A 
ATOM     31  H   UNL     1      45.766   3.614   7.254  0.00  0.00    +0.000 HD
ENDBRANCH  18  21
ENDBRANCH   1  19
TORSDOF 6
ENDMDL
MODEL 8
REMARK VINA RESULT:    -6.610      3.687      5.208
REMARK INTER + INTRA:         -10.053
REMARK INTER:                  -9.014
REMARK INTRA:                  -1.039
REMARK UNBOUND:                -1.124
REMARK  Name = 
REMARK  6 active torsions:
REMARK  status: ('A' for Active; 'I' for Inactive)
REMARK    1  A    between atoms: C_2  and  C_20
REMARK    2  A    between atoms: N_3  and  C_4
REMARK    3  A    between atoms: C_4  and  C_5
REMARK    4  A    between atoms: C_8  and  O_9
REMARK    5  A    between atoms: O_9  and  C_10
REMARK    6  A    between atoms: C_10  and  C_11
REMARK                            x       y       z     vdW  Elec       q    Type
REMARK                         _______ _______ _______ _____ _____    ______ ____
ROOT
ATOM      1  C   UNL     1      47.844   7.112  13.643  0.00  0.00    +0.000 C 
ENDROOT
BRANCH   1   2
ATOM      2  C   UNL     1      46.818   6.379  12.817  0.00  0.00    +0.000 A 
ATOM      3  C   UNL     1      46.479   5.053  13.112  0.00  0.00    +0.000 A 
ATOM      4  C   UNL     1      45.499   4.377  12.372  0.00  0.00    +0.000 A 
ATOM      5  C   UNL     1      44.853   5.016  11.314  0.00  0.00    +0.000 A 
ATOM      6  C   UNL     1      45.229   6.319  10.978  0.00  0.00    +0.000 A 
ATOM      7  C   UNL     1      46.200   6.998  11.722  0.00  0.00    +0.000 A 
BRANCH   5   8
ATOM      8  O   UNL     1      43.882   4.469  10.517  0.00  0.00    +0.000 OA
BRANCH   8   9
ATOM      9  C   UNL     1      44.254   4.192   9.172  0.00  0.00    +0.000 C 
BRANCH   9  10
ATOM     10  C   UNL     1      44.857   2.790   9.032  0.00  0.00    +0.000 C 
ATOM     11  O   UNL     1      44.389   1.844   9.671  0.00  0.00    +0.000 OA
ATOM     12  N   UNL     1      45.881   2.607   8.128  0.00  0.00    +0.000 N 
ATOM     13  C   UNL     1      46.520   3.608   7.298  0.00  0.00    +0.000 C 
ATOM     14  C   UNL     1      47.017   2.802   6.110  0.00  0.00    +0.000 C 
ATOM     15  C   UNL     1      47.425   1.469   6.733  0.00  0.00    +0.000 C 
ATOM     16  C   UNL     1      46.472   1.298   7.914  0.00  0.00    +0.000 C 
ENDBRANCH   9  10
ENDBRANCH   8   9
ENDBRANCH   5   8
ENDBRANCH   1   2
BRANCH   1  19
ATOM     17  O   UNL     1      48.089   9.876  13.522  0.00  0.00    +0.000 OA
ATOM     18  C   UNL     1      48.874   9.194  12.871  0.00  0.00    +0.000 C 
ATOM     19  N   UNL     1      48.785   7.823  12.815  0.00  0.00    +0.000 N 
ATOM     20  H   UNL     1      49.568   7.291  12.454  0.00  0.00    +0.000 HD
BRANCH  18  21
ATOM     21  C   UNL     1      49.927   9.807  12.055  0.00  0.00    +0.000 A 
ATOM     22  C   UNL     1      49.597  10.718  11.059  0.00  0.00    +0.000 A 
ATOM     23  S   UNL     1      50.943  11.275  10.171  0.00  0.00    +0.000 S 
ATOM     24  C   UNL     1      52.019  10.362  11.125  0.00  0.00    +0.000 A 
ATOM     25  N   UNL     1      53.362  10.394  10.896  0.00  0.00    +0.000 NA
ATOM     26  C   UNL     1      54.059   9.688  11.723  0.00  0.00    +0.000 A 
ATOM     27  N   UNL     1      53.538   8.954  12.757  0.00  0.00    +0.000 N 
ATOM     28  C   UNL     1      52.185   8.867  13.010  0.00  0.00    +0.000 A 
ATOM     29  O   UNL     1      51.752   8.175  13.920  0.00  0.00    +0.000 OA
ATOM     30  C   UNL     1      51.360   9.643  12.103  0.00  0.00    +0.000 A 
ATOM     31  H   UNL     1      54.141   8.423  13.368  0.00  0.00    +0.000 HD
ENDBRANCH  18  21
ENDBRANCH   1  19
TORSDOF 6
ENDMDL
MODEL 9
REMARK VINA RESULT:    -6.353      4.585      7.498
REMARK INTER + INTRA:          -9.706
REMARK INTER:                  -8.797
REMARK INTRA:                  -0.909
REMARK UNBOUND:                -1.124
REMARK  Name = 
REMARK  6 active torsions:
REMARK  status: ('A' for Active; 'I' for Inactive)
REMARK    1  A    between atoms: C_2  and  C_20
REMARK    2  A    between atoms: N_3  and  C_4
REMARK    3  A    between atoms: C_4  and  C_5
REMARK    4  A    between atoms: C_8  and  O_9
REMARK    5  A    between atoms: O_9  and  C_10
REMARK    6  A    between atoms: C_10  and  C_11
REMARK                            x       y       z     vdW  Elec       q    Type
REMARK                         _______ _______ _______ _____ _____    ______ ____
ROOT
ATOM      1  C   UNL     1      46.399   8.088  12.935  0.00  0.00    +0.000 C 
ENDROOT
BRANCH   1   2
ATOM      2  C   UNL     1      47.796   8.286  12.405  0.00  0.00    +0.000 A 
ATOM      3  C   UNL     1      48.255   9.564  12.060  0.00  0.00    +0.000 A 
ATOM      4  C   UNL     1      49.565   9.760  11.602  0.00  0.00    +0.000 A 
ATOM      5  C   UNL     1      50.432   8.676  11.468  0.00  0.00    +0.000 A 
ATOM      6  C   UNL     1      49.961   7.393  11.753  0.00  0.00    +0.000 A 
ATOM      7  C   UNL     1      48.657   7.195  12.220  0.00  0.00    +0.000 A 
BRANCH   5   8
ATOM      8  O   UNL     1      51.729   8.735  11.033  0.00  0.00    +0.000 OA
BRANCH   8   9
ATOM      9  C   UNL     1      52.035   7.989   9.860  0.00  0.00    +0.000 C 
BRANCH   9  10
ATOM     10  C   UNL     1      53.300   7.143  10.046  0.00  0.00    +0.000 C 
ATOM     11  O   UNL     1      53.892   7.136  11.128  0.00  0.00    +0.000 OA
ATOM     12  N   UNL     1      53.709   6.342   9.002  0.00  0.00    +0.000 N 
ATOM     13  C   UNL     1      53.111   6.227   7.686  0.00  0.00    +0.000 C 
ATOM     14  C   UNL     1      53.495   4.821   7.257  0.00  0.00    +0.000 C 
ATOM     15  C   UNL     1      54.891   4.640   7.848  0.00  0.00    +0.000 C 
ATOM     16  C   UNL     1      54.873   5.483   9.122  0.00  0.00    +0.000 C 
ENDBRANCH   9  10
ENDBRANCH   8   9
ENDBRANCH   5   8
ENDBRANCH   1   2
BRANCH   1  19
ATOM     17  O   UNL     1      44.244   7.545  11.268  0.00  0.00    +0.000 OA
ATOM     18  C   UNL     1      44.862   6.599  11.746  0.00  0.00    +0.000 C 
ATOM     19  N   UNL     1      45.897   6.771  12.635  0.00  0.00    +0.000 N 
ATOM     20  H   UNL     1      46.514   5.992  12.833  0.00  0.00    +0.000 HD
BRANCH  18  21
ATOM     21  C   UNL     1      44.492   5.212  11.447  0.00  0.00    +0.000 A 
ATOM     22  C   UNL     1      43.674   4.504  12.318  0.00  0.00    +0.000 A 
ATOM     23  S   UNL     1      43.404   2.889  11.840  0.00  0.00    +0.000 S 
ATOM     24  C   UNL     1      44.326   3.096  10.423  0.00  0.00    +0.000 A 
ATOM     25  N   UNL     1      44.494   2.075   9.537  0.00  0.00    +0.000 NA
ATOM     26  C   UNL     1      45.179   2.389   8.488  0.00  0.00    +0.000 A 
ATOM     27  N   UNL     1      45.709   3.629   8.242  0.00  0.00    +0.000 N 
ATOM     28  C   UNL     1      45.592   4.684   9.122  0.00  0.00    +0.000 A 
ATOM     29  O   UNL     1      46.108   5.767   8.887  0.00  0.00    +0.000 OA
ATOM     30  C   UNL     1      44.832   4.378  10.319  0.00  0.00    +0.000 A 
ATOM     31  H   UNL     1      46.236   3.807   7.399  0.00  0.00    +0.000 HD
ENDBRANCH  18  21
ENDBRANCH   1  19
TORSDOF 6
ENDMDL
