MODEL 1
REMARK VINA RESULT:    -8.678      0.000      0.000
REMARK INTER + INTRA:         -12.486
REMARK INTER:                 -11.722
REMARK INTRA:                  -0.764
REMARK UNBOUND:                -0.764
REMARK  Name = 
REMARK  6 active torsions:
REMARK  status: ('A' for Active; 'I' for Inactive)
REMARK    1  A    between atoms: C_2  and  C_4
REMARK    2  A    between atoms: N_8  and  C_9
REMARK    3  A    between atoms: C_9  and  C_10
REMARK    4  A    between atoms: C_10  and  C_11
REMARK    5  A    between atoms: C_15  and  C_16
REMARK    6  A    between atoms: C_16  and  C_17
REMARK                            x       y       z     vdW  Elec       q    Type
REMARK                         _______ _______ _______ _____ _____    ______ ____
ROOT
ATOM      1  C   UNL     1      46.464   2.518   7.702  0.00  0.00    +0.000 A 
ATOM      2  C   UNL     1      45.617   1.857   8.587  0.00  0.00    +0.000 A 
ATOM      3  C   UNL     1      44.687   2.597   9.314  0.00  0.00    +0.000 A 
ATOM      4  C   UNL     1      44.633   3.982   9.171  0.00  0.00    +0.000 A 
ATOM      5  N   UNL     1      43.683   4.769   9.807  0.00  0.00    +0.000 N 
ATOM      6  N   UNL     1      45.472   4.636   8.343  0.00  0.00    +0.000 NA
ATOM      7  C   UNL     1      46.369   3.897   7.634  0.00  0.00    +0.000 A 
ATOM      8  H   UNL     1      43.964   5.739   9.673  0.00  0.00    +0.000 HD
ENDROOT
BRANCH   1  10
ATOM      9  N   UNL     1      48.530   2.512   6.426  0.00  0.00    +0.000 N 
ATOM     10  C   UNL     1      47.434   1.804   6.850  0.00  0.00    +0.000 C 
ATOM     11  O   UNL     1      47.285   0.626   6.558  0.00  0.00    +0.000 OA
ATOM     12  H   UNL     1      49.240   1.983   5.941  0.00  0.00    +0.000 HD
ATOM     13  H   UNL     1      48.807   3.389   6.849  0.00  0.00    +0.000 HD
ENDBRANCH   1  10
BRANCH   5  14
ATOM     14  C   UNL     1      43.268   4.396  11.151  0.00  0.00    +0.000 C 
BRANCH  14  15
ATOM     15  C   UNL     1      43.450   5.559  12.130  0.00  0.00    +0.000 C 
BRANCH  15  16
ATOM     16  C   UNL     1      44.889   5.654  12.583  0.00  0.00    +0.000 A 
ATOM     17  C   UNL     1      45.690   6.721  12.159  0.00  0.00    +0.000 A 
ATOM     18  C   UNL     1      47.026   6.795  12.549  0.00  0.00    +0.000 A 
ATOM     19  C   UNL     1      47.574   5.813  13.377  0.00  0.00    +0.000 A 
ATOM     20  C   UNL     1      46.789   4.745  13.829  0.00  0.00    +0.000 A 
ATOM     21  C   UNL     1      45.453   4.662  13.403  0.00  0.00    +0.000 A 
BRANCH  20  22
ATOM     22  C   UNL     1      47.345   3.738  14.809  0.00  0.00    +0.000 C 
BRANCH  22  23
ATOM     23  C   UNL     1      47.134   4.163  16.253  0.00  0.00    +0.000 C 
ATOM     24  C   UNL     1      48.361   4.850  16.872  0.00  0.00    +0.000 C 
ATOM     25  O   UNL     1      48.423   3.888  17.946  0.00  0.00    +0.000 OA
ATOM     26  C   UNL     1      47.350   3.118  17.358  0.00  0.00    +0.000 C 
ENDBRANCH  22  23
ENDBRANCH  20  22
ENDBRANCH  15  16
ENDBRANCH  14  15
ENDBRANCH   5  14
TORSDOF 6
ENDMDL
MODEL 2
REMARK VINA RESULT:    -8.209      2.227      3.435
REMARK INTER + INTRA:         -11.853
REMARK INTER:                 -11.086
REMARK INTRA:                  -0.767
REMARK UNBOUND:                -0.764
REMARK  Name = 
REMARK  6 active torsions:
REMARK  status: ('A' for Active; 'I' for Inactive)
REMARK    1  A    between atoms: C_2  and  C_4
REMARK    2  A    between atoms: N_8  and  C_9
REMARK    3  A    between atoms: C_9  and  C_10
REMARK    4  A    between atoms: C_10  and  C_11
REMARK    5  A    between atoms: C_15  and  C_16
REMARK    6  A    between atoms: C_16  and  C_17
REMARK                            x       y       z     vdW  Elec       q    Type
REMARK                         _______ _______ _______ _____ _____    ______ ____
ROOT
ATOM      1  C   UNL     1      46.476   2.529   7.691  0.00  0.00    +0.000 A 
ATOM      2  C   UNL     1      45.631   1.858   8.569  0.00  0.00    +0.000 A 
ATOM      3  C   UNL     1      44.701   2.588   9.306  0.00  0.00    +0.000 A 
ATOM      4  C   UNL     1      44.645   3.974   9.180  0.00  0.00    +0.000 A 
ATOM      5  N   UNL     1      43.695   4.752   9.826  0.00  0.00    +0.000 N 
ATOM      6  N   UNL     1      45.483   4.639   8.358  0.00  0.00    +0.000 NA
ATOM      7  C   UNL     1      46.380   3.909   7.639  0.00  0.00    +0.000 A 
ATOM      8  H   UNL     1      43.974   5.724   9.703  0.00  0.00    +0.000 HD
ENDROOT
BRANCH   1  10
ATOM      9  N   UNL     1      48.547   2.538   6.424  0.00  0.00    +0.000 N 
ATOM     10  C   UNL     1      47.446   1.827   6.829  0.00  0.00    +0.000 C 
ATOM     11  O   UNL     1      47.292   0.656   6.514  0.00  0.00    +0.000 OA
ATOM     12  H   UNL     1      49.257   2.014   5.931  0.00  0.00    +0.000 HD
ATOM     13  H   UNL     1      48.828   3.405   6.865  0.00  0.00    +0.000 HD
ENDBRANCH   1  10
BRANCH   5  14
ATOM     14  C   UNL     1      43.282   4.363  11.166  0.00  0.00    +0.000 C 
BRANCH  14  15
ATOM     15  C   UNL     1      43.375   5.541  12.139  0.00  0.00    +0.000 C 
BRANCH  15  16
ATOM     16  C   UNL     1      44.806   5.759  12.576  0.00  0.00    +0.000 A 
ATOM     17  C   UNL     1      45.457   4.796  13.356  0.00  0.00    +0.000 A 
ATOM     18  C   UNL     1      46.765   5.008  13.787  0.00  0.00    +0.000 A 
ATOM     19  C   UNL     1      47.443   6.176  13.433  0.00  0.00    +0.000 A 
ATOM     20  C   UNL     1      46.820   7.147  12.639  0.00  0.00    +0.000 A 
ATOM     21  C   UNL     1      45.490   6.938  12.238  0.00  0.00    +0.000 A 
BRANCH  20  22
ATOM     22  C   UNL     1      47.582   8.363  12.166  0.00  0.00    +0.000 C 
BRANCH  22  23
ATOM     23  C   UNL     1      49.069   8.262  12.464  0.00  0.00    +0.000 C 
ATOM     24  C   UNL     1      49.846   9.547  12.138  0.00  0.00    +0.000 C 
ATOM     25  O   UNL     1      50.736   8.845  11.245  0.00  0.00    +0.000 OA
ATOM     26  C   UNL     1      49.981   7.622  11.407  0.00  0.00    +0.000 C 
ENDBRANCH  22  23
ENDBRANCH  20  22
ENDBRANCH  15  16
ENDBRANCH  14  15
ENDBRANCH   5  14
TORSDOF 6
ENDMDL
MODEL 3
REMARK VINA RESULT:    -7.802      3.107      4.838
REMARK INTER + INTRA:         -11.302
REMARK INTER:                 -10.938
REMARK INTRA:                  -0.364
REMARK UNBOUND:                -0.764
REMARK  Name = 
REMARK  6 active torsions:
REMARK  status: ('A' for Active; 'I' for Inactive)
REMARK    1  A    between atoms: C_2  and  C_4
REMARK    2  A    between atoms: N_8  and  C_9
REMARK    3  A    between atoms: C_9  and  C_10
REMARK    4  A    between atoms: C_10  and  C_11
REMARK    5  A    between atoms: C_15  and  C_16
REMARK    6  A    between atoms: C_16  and  C_17
REMARK                            x       y       z     vdW  Elec       q    Type
REMARK                         _______ _______ _______ _____ _____    ______ ____
ROOT
ATOM      1  C   UNL     1      46.427   2.329   7.743  0.00  0.00    +0.000 A 
ATOM      2  C   UNL     1      45.575   1.849   8.733  0.00  0.00    +0.000 A 
ATOM      3  C   UNL     1      44.739   2.742   9.400  0.00  0.00    +0.000 A 
ATOM      4  C   UNL     1      44.784   4.100   9.092  0.00  0.00    +0.000 A 
ATOM      5  N   UNL     1      43.927   5.030   9.662  0.00  0.00    +0.000 N 
ATOM      6  N   UNL     1      45.630   4.581   8.159  0.00  0.00    +0.000 NA
ATOM      7  C   UNL     1      46.434   3.693   7.512  0.00  0.00    +0.000 A 
ATOM      8  H   UNL     1      44.274   5.952   9.400  0.00  0.00    +0.000 HD
ENDROOT
BRANCH   1  10
ATOM      9  N   UNL     1      48.377   2.023   6.330  0.00  0.00    +0.000 N 
ATOM     10  C   UNL     1      47.299   1.443   6.948  0.00  0.00    +0.000 C 
ATOM     11  O   UNL     1      47.088   0.241   6.869  0.00  0.00    +0.000 OA
ATOM     12  H   UNL     1      49.027   1.390   5.885  0.00  0.00    +0.000 HD
ATOM     13  H   UNL     1      48.716   2.944   6.578  0.00  0.00    +0.000 HD
ENDBRANCH   1  10
BRANCH   5  14
ATOM     14  C   UNL     1      43.548   4.854  11.057  0.00  0.00    +0.000 C 
BRANCH  14  15
ATOM     15  C   UNL     1      44.779   4.648  11.944  0.00  0.00    +0.000 C 
BRANCH  15  16
ATOM     16  C   UNL     1      45.421   5.974  12.282  0.00  0.00    +0.000 A 
ATOM     17  C   UNL     1      46.669   6.010  12.915  0.00  0.00    +0.000 A 
ATOM     18  C   UNL     1      47.249   7.230  13.256  0.00  0.00    +0.000 A 
ATOM     19  C   UNL     1      46.598   8.428  12.957  0.00  0.00    +0.000 A 
ATOM     20  C   UNL     1      45.356   8.420  12.308  0.00  0.00    +0.000 A 
ATOM     21  C   UNL     1      44.765   7.184  11.999  0.00  0.00    +0.000 A 
BRANCH  20  22
ATOM     22  C   UNL     1      44.696   9.713  11.889  0.00  0.00    +0.000 C 
BRANCH  22  23
ATOM     23  C   UNL     1      43.890   9.557  10.609  0.00  0.00    +0.000 C 
ATOM     24  C   UNL     1      43.947  10.794   9.698  0.00  0.00    +0.000 C 
ATOM     25  O   UNL     1      42.510  10.930   9.704  0.00  0.00    +0.000 OA
ATOM     26  C   UNL     1      42.383   9.850  10.658  0.00  0.00    +0.000 C 
ENDBRANCH  22  23
ENDBRANCH  20  22
ENDBRANCH  15  16
ENDBRANCH  14  15
ENDBRANCH   5  14
TORSDOF 6
ENDMDL
MODEL 4
REMARK VINA RESULT:    -7.792      1.333      1.887
REMARK INTER + INTRA:         -11.289
REMARK INTER:                 -10.603
REMARK INTRA:                  -0.686
REMARK UNBOUND:                -0.764
REMARK  Name = 
REMARK  6 active torsions:
REMARK  status: ('A' for Active; 'I' for Inactive)
REMARK    1  A    between atoms: C_2  and  C_4
REMARK    2  A    between atoms: N_8  and  C_9
REMARK    3  A    between atoms: C_9  and  C_10
REMARK    4  A    between atoms: C_10  and  C_11
REMARK    5  A    between atoms: C_15  and  C_16
REMARK    6  A    between atoms: C_16  and  C_17
REMARK                            x       y       z     vdW  Elec       q    Type
REMARK                         _______ _______ _______ _____ _____    ______ ____
ROOT
ATOM      1  C   UNL     1      46.500   2.308   7.741  0.00  0.00    +0.000 A 
ATOM      2  C   UNL     1      45.648   1.813   8.724  0.00  0.00    +0.000 A 
ATOM      3  C   UNL     1      44.756   2.682   9.349  0.00  0.00    +0.000 A 
ATOM      4  C   UNL     1      44.747   4.033   9.009  0.00  0.00    +0.000 A 
ATOM      5  N   UNL     1      43.836   4.936   9.538  0.00  0.00    +0.000 N 
ATOM      6  N   UNL     1      45.592   4.531   8.084  0.00  0.00    +0.000 NA
ATOM      7  C   UNL     1      46.450   3.666   7.477  0.00  0.00    +0.000 A 
ATOM      8  H   UNL     1      44.146   5.867   9.261  0.00  0.00    +0.000 HD
ENDROOT
BRANCH   1  10
ATOM      9  N   UNL     1      48.511   2.056   6.405  0.00  0.00    +0.000 N 
ATOM     10  C   UNL     1      47.430   1.445   6.988  0.00  0.00    +0.000 C 
ATOM     11  O   UNL     1      47.261   0.237   6.911  0.00  0.00    +0.000 OA
ATOM     12  H   UNL     1      49.197   1.441   5.990  0.00  0.00    +0.000 HD
ATOM     13  H   UNL     1      48.811   2.989   6.658  0.00  0.00    +0.000 HD
ENDBRANCH   1  10
BRANCH   5  14
ATOM     14  C   UNL     1      43.433   4.775  10.927  0.00  0.00    +0.000 C 
BRANCH  14  15
ATOM     15  C   UNL     1      43.120   6.127  11.574  0.00  0.00    +0.000 C 
BRANCH  15  16
ATOM     16  C   UNL     1      44.394   6.893  11.851  0.00  0.00    +0.000 A 
ATOM     17  C   UNL     1      44.450   8.272  11.616  0.00  0.00    +0.000 A 
ATOM     18  C   UNL     1      45.632   8.976  11.840  0.00  0.00    +0.000 A 
ATOM     19  C   UNL     1      46.766   8.314  12.314  0.00  0.00    +0.000 A 
ATOM     20  C   UNL     1      46.731   6.938  12.573  0.00  0.00    +0.000 A 
ATOM     21  C   UNL     1      45.545   6.233  12.312  0.00  0.00    +0.000 A 
BRANCH  20  22
ATOM     22  C   UNL     1      47.922   6.237  13.185  0.00  0.00    +0.000 C 
BRANCH  22  23
ATOM     23  C   UNL     1      48.173   6.674  14.619  0.00  0.00    +0.000 C 
ATOM     24  C   UNL     1      49.659   6.902  14.937  0.00  0.00    +0.000 C 
ATOM     25  O   UNL     1      49.628   5.949  16.020  0.00  0.00    +0.000 OA
ATOM     26  C   UNL     1      48.262   5.591  15.705  0.00  0.00    +0.000 C 
ENDBRANCH  22  23
ENDBRANCH  20  22
ENDBRANCH  15  16
ENDBRANCH  14  15
ENDBRANCH   5  14
TORSDOF 6
ENDMDL
MODEL 5
REMARK VINA RESULT:    -7.477      3.038      8.165
REMARK INTER + INTRA:         -10.863
REMARK INTER:                 -10.275
REMARK INTRA:                  -0.588
REMARK UNBOUND:                -0.764
REMARK  Name = 
REMARK  6 active torsions:
REMARK  status: ('A' for Active; 'I' for Inactive)
REMARK    1  A    between atoms: C_2  and  C_4
REMARK    2  A    between atoms: N_8  and  C_9
REMARK    3  A    between atoms: C_9  and  C_10
REMARK    4  A    between atoms: C_10  and  C_11
REMARK    5  A    between atoms: C_15  and  C_16
REMARK    6  A    between atoms: C_16  and  C_17
REMARK                            x       y       z     vdW  Elec       q    Type
REMARK                         _______ _______ _______ _____ _____    ______ ____
ROOT
ATOM      1  C   UNL     1      48.472   4.540  16.815  0.00  0.00    +0.000 A 
ATOM      2  C   UNL     1      47.461   3.889  16.115  0.00  0.00    +0.000 A 
ATOM      3  C   UNL     1      47.005   4.438  14.917  0.00  0.00    +0.000 A 
ATOM      4  C   UNL     1      47.540   5.637  14.453  0.00  0.00    +0.000 A 
ATOM      5  N   UNL     1      47.185   6.198  13.234  0.00  0.00    +0.000 N 
ATOM      6  N   UNL     1      48.495   6.294  15.141  0.00  0.00    +0.000 NA
ATOM      7  C   UNL     1      48.935   5.740  16.304  0.00  0.00    +0.000 A 
ATOM      8  H   UNL     1      47.583   7.136  13.212  0.00  0.00    +0.000 HD
ENDROOT
BRANCH   1  10
ATOM      9  N   UNL     1      48.226   3.251  18.858  0.00  0.00    +0.000 N 
ATOM     10  C   UNL     1      49.054   3.995  18.058  0.00  0.00    +0.000 C 
ATOM     11  O   UNL     1      50.228   4.174  18.346  0.00  0.00    +0.000 OA
ATOM     12  H   UNL     1      48.664   2.791  19.644  0.00  0.00    +0.000 HD
ATOM     13  H   UNL     1      47.343   2.879  18.531  0.00  0.00    +0.000 HD
ENDBRANCH   1  10
BRANCH   5  14
ATOM     14  C   UNL     1      45.804   6.071  12.793  0.00  0.00    +0.000 C 
BRANCH  14  15
ATOM     15  C   UNL     1      45.676   6.326  11.289  0.00  0.00    +0.000 C 
BRANCH  15  16
ATOM     16  C   UNL     1      45.240   5.069  10.571  0.00  0.00    +0.000 A 
ATOM     17  C   UNL     1      44.399   4.150  11.211  0.00  0.00    +0.000 A 
ATOM     18  C   UNL     1      44.020   2.976  10.563  0.00  0.00    +0.000 A 
ATOM     19  C   UNL     1      44.464   2.711   9.266  0.00  0.00    +0.000 A 
ATOM     20  C   UNL     1      45.291   3.623   8.598  0.00  0.00    +0.000 A 
ATOM     21  C   UNL     1      45.694   4.788   9.272  0.00  0.00    +0.000 A 
BRANCH  20  22
ATOM     22  C   UNL     1      45.689   3.394   7.158  0.00  0.00    +0.000 C 
BRANCH  22  23
ATOM     23  C   UNL     1      47.147   2.985   7.022  0.00  0.00    +0.000 C 
ATOM     24  C   UNL     1      47.569   2.704   5.571  0.00  0.00    +0.000 C 
ATOM     25  O   UNL     1      47.999   1.366   5.901  0.00  0.00    +0.000 OA
ATOM     26  C   UNL     1      47.514   1.512   7.256  0.00  0.00    +0.000 C 
ENDBRANCH  22  23
ENDBRANCH  20  22
ENDBRANCH  15  16
ENDBRANCH  14  15
ENDBRANCH   5  14
TORSDOF 6
ENDMDL
MODEL 6
REMARK VINA RESULT:    -7.153      3.761      7.531
REMARK INTER + INTRA:         -10.425
REMARK INTER:                  -9.854
REMARK INTRA:                  -0.572
REMARK UNBOUND:                -0.764
REMARK  Name = 
REMARK  6 active torsions:
REMARK  status: ('A' for Active; 'I' for Inactive)
REMARK    1  A    between atoms: C_2  and  C_4
REMARK    2  A    between atoms: N_8  and  C_9
REMARK    3  A    between atoms: C_9  and  C_10
REMARK    4  A    between atoms: C_10  and  C_11
REMARK    5  A    between atoms: C_15  and  C_16
REMARK    6  A    between atoms: C_16  and  C_17
REMARK                            x       y       z     vdW  Elec       q    Type
REMARK                         _______ _______ _______ _____ _____    ______ ____
ROOT
ATOM      1  C   UNL     1      49.111   8.383  12.586  0.00  0.00    +0.000 A 
ATOM      2  C   UNL     1      48.656   7.332  11.797  0.00  0.00    +0.000 A 
ATOM      3  C   UNL     1      47.304   6.995  11.829  0.00  0.00    +0.000 A 
ATOM      4  C   UNL     1      46.433   7.690  12.666  0.00  0.00    +0.000 A 
ATOM      5  N   UNL     1      45.066   7.457  12.690  0.00  0.00    +0.000 N 
ATOM      6  N   UNL     1      46.869   8.688  13.461  0.00  0.00    +0.000 NA
ATOM      7  C   UNL     1      48.191   9.009  13.411  0.00  0.00    +0.000 A 
ATOM      8  H   UNL     1      44.692   7.966  13.490  0.00  0.00    +0.000 HD
ENDROOT
BRANCH   1  10
ATOM      9  N   UNL     1      51.471   7.902  12.287  0.00  0.00    +0.000 N 
ATOM     10  C   UNL     1      50.513   8.843  12.565  0.00  0.00    +0.000 C 
ATOM     11  O   UNL     1      50.805  10.014  12.759  0.00  0.00    +0.000 OA
ATOM     12  H   UNL     1      52.412   8.251  12.163  0.00  0.00    +0.000 HD
ATOM     13  H   UNL     1      51.249   7.003  11.880  0.00  0.00    +0.000 HD
ENDBRANCH   1  10
BRANCH   5  14
ATOM     14  C   UNL     1      44.596   6.090  12.517  0.00  0.00    +0.000 C 
BRANCH  14  15
ATOM     15  C   UNL     1      43.795   5.939  11.221  0.00  0.00    +0.000 C 
BRANCH  15  16
ATOM     16  C   UNL     1      44.256   4.723  10.450  0.00  0.00    +0.000 A 
ATOM     17  C   UNL     1      43.802   3.448  10.810  0.00  0.00    +0.000 A 
ATOM     18  C   UNL     1      44.249   2.322  10.121  0.00  0.00    +0.000 A 
ATOM     19  C   UNL     1      45.142   2.457   9.056  0.00  0.00    +0.000 A 
ATOM     20  C   UNL     1      45.596   3.722   8.664  0.00  0.00    +0.000 A 
ATOM     21  C   UNL     1      45.166   4.847   9.387  0.00  0.00    +0.000 A 
BRANCH  20  22
ATOM     22  C   UNL     1      46.479   3.884   7.448  0.00  0.00    +0.000 C 
BRANCH  22  23
ATOM     23  C   UNL     1      46.568   2.606   6.629  0.00  0.00    +0.000 C 
ATOM     24  C   UNL     1      47.706   1.674   7.075  0.00  0.00    +0.000 C 
ATOM     25  O   UNL     1      48.294   1.676   5.757  0.00  0.00    +0.000 OA
ATOM     26  C   UNL     1      47.329   2.649   5.295  0.00  0.00    +0.000 C 
ENDBRANCH  22  23
ENDBRANCH  20  22
ENDBRANCH  15  16
ENDBRANCH  14  15
ENDBRANCH   5  14
TORSDOF 6
ENDMDL
MODEL 7
REMARK VINA RESULT:    -6.306      4.103      7.348
REMARK INTER + INTRA:          -9.282
REMARK INTER:                  -8.442
REMARK INTRA:                  -0.840
REMARK UNBOUND:                -0.764
REMARK  Name = 
REMARK  6 active torsions:
REMARK  status: ('A' for Active; 'I' for Inactive)
REMARK    1  A    between atoms: C_2  and  C_4
REMARK    2  A    between atoms: N_8  and  C_9
REMARK    3  A    between atoms: C_9  and  C_10
REMARK    4  A    between atoms: C_10  and  C_11
REMARK    5  A    between atoms: C_15  and  C_16
REMARK    6  A    between atoms: C_16  and  C_17
REMARK                            x       y       z     vdW  Elec       q    Type
REMARK                         _______ _______ _______ _____ _____    ______ ____
ROOT
ATOM      1  C   UNL     1      48.084   4.504  16.774  0.00  0.00    +0.000 A 
ATOM      2  C   UNL     1      47.418   4.910  15.622  0.00  0.00    +0.000 A 
ATOM      3  C   UNL     1      47.996   5.888  14.814  0.00  0.00    +0.000 A 
ATOM      4  C   UNL     1      49.209   6.467  15.181  0.00  0.00    +0.000 A 
ATOM      5  N   UNL     1      49.874   7.389  14.386  0.00  0.00    +0.000 N 
ATOM      6  N   UNL     1      49.846   6.106  16.313  0.00  0.00    +0.000 NA
ATOM      7  C   UNL     1      49.272   5.143  17.086  0.00  0.00    +0.000 A 
ATOM      8  H   UNL     1      50.632   7.773  14.948  0.00  0.00    +0.000 HD
ENDROOT
BRANCH   1  10
ATOM      9  N   UNL     1      48.328   3.116  18.751  0.00  0.00    +0.000 N 
ATOM     10  C   UNL     1      47.573   3.432  17.650  0.00  0.00    +0.000 C 
ATOM     11  O   UNL     1      46.512   2.871  17.422  0.00  0.00    +0.000 OA
ATOM     12  H   UNL     1      47.913   2.463  19.401  0.00  0.00    +0.000 HD
ATOM     13  H   UNL     1      49.062   3.720  19.099  0.00  0.00    +0.000 HD
ENDBRANCH   1  10
BRANCH   5  14
ATOM     14  C   UNL     1      49.080   8.348  13.631  0.00  0.00    +0.000 C 
BRANCH  14  15
ATOM     15  C   UNL     1      48.848   7.868  12.196  0.00  0.00    +0.000 C 
BRANCH  15  16
ATOM     16  C   UNL     1      47.371   7.696  11.924  0.00  0.00    +0.000 A 
ATOM     17  C   UNL     1      46.478   8.736  12.209  0.00  0.00    +0.000 A 
ATOM     18  C   UNL     1      45.112   8.570  11.988  0.00  0.00    +0.000 A 
ATOM     19  C   UNL     1      44.623   7.369  11.468  0.00  0.00    +0.000 A 
ATOM     20  C   UNL     1      45.498   6.320  11.159  0.00  0.00    +0.000 A 
ATOM     21  C   UNL     1      46.869   6.487  11.416  0.00  0.00    +0.000 A 
BRANCH  20  22
ATOM     22  C   UNL     1      44.989   5.060  10.499  0.00  0.00    +0.000 C 
BRANCH  22  23
ATOM     23  C   UNL     1      45.002   3.870  11.444  0.00  0.00    +0.000 C 
ATOM     24  C   UNL     1      43.643   3.161  11.552  0.00  0.00    +0.000 C 
ATOM     25  O   UNL     1      43.600   3.348  12.983  0.00  0.00    +0.000 OA
ATOM     26  C   UNL     1      44.815   4.132  12.946  0.00  0.00    +0.000 C 
ENDBRANCH  22  23
ENDBRANCH  20  22
ENDBRANCH  15  16
ENDBRANCH  14  15
ENDBRANCH   5  14
TORSDOF 6
ENDMDL
MODEL 8
REMARK VINA RESULT:    -6.125      3.378      5.196
REMARK INTER + INTRA:          -9.037
REMARK INTER:                  -7.738
REMARK INTRA:                  -1.299
REMARK UNBOUND:                -0.764
REMARK  Name = 
REMARK  6 active torsions:
REMARK  status: ('A' for Active; 'I' for Inactive)
REMARK    1  A    between atoms: C_2  and  C_4
REMARK    2  A    between atoms: N_8  and  C_9
REMARK    3  A    between atoms: C_9  and  C_10
REMARK    4  A    between atoms: C_10  and  C_11
REMARK    5  A    between atoms: C_15  and  C_16
REMARK    6  A    between atoms: C_16  and  C_17
REMARK                            x       y       z     vdW  Elec       q    Type
REMARK                         _______ _______ _______ _____ _____    ______ ____
ROOT
ATOM      1  C   UNL     1      44.952   4.779  12.340  0.00  0.00    +0.000 A 
ATOM      2  C   UNL     1      45.903   4.770  13.356  0.00  0.00    +0.000 A 
ATOM      3  C   UNL     1      46.971   5.662  13.294  0.00  0.00    +0.000 A 
ATOM      4  C   UNL     1      47.093   6.528  12.209  0.00  0.00    +0.000 A 
ATOM      5  N   UNL     1      48.088   7.491  12.123  0.00  0.00    +0.000 N 
ATOM      6  N   UNL     1      46.197   6.522  11.202  0.00  0.00    +0.000 NA
ATOM      7  C   UNL     1      45.155   5.649  11.283  0.00  0.00    +0.000 A 
ATOM      8  H   UNL     1      48.055   7.867  11.176  0.00  0.00    +0.000 HD
ENDROOT
BRANCH   1  10
ATOM      9  N   UNL     1      42.654   4.358  11.683  0.00  0.00    +0.000 N 
ATOM     10  C   UNL     1      43.760   3.911  12.360  0.00  0.00    +0.000 C 
ATOM     11  O   UNL     1      43.766   2.829  12.928  0.00  0.00    +0.000 OA
ATOM     12  H   UNL     1      41.885   3.706  11.609  0.00  0.00    +0.000 HD
ATOM     13  H   UNL     1      42.697   5.109  11.006  0.00  0.00    +0.000 HD
ENDBRANCH   1  10
BRANCH   5  14
ATOM     14  C   UNL     1      49.407   7.168  12.645  0.00  0.00    +0.000 C 
BRANCH  14  15
ATOM     15  C   UNL     1      49.918   8.266  13.581  0.00  0.00    +0.000 C 
BRANCH  15  16
ATOM     16  C   UNL     1      49.424   8.035  14.992  0.00  0.00    +0.000 A 
ATOM     17  C   UNL     1      48.807   9.074  15.699  0.00  0.00    +0.000 A 
ATOM     18  C   UNL     1      48.379   8.874  17.010  0.00  0.00    +0.000 A 
ATOM     19  C   UNL     1      48.550   7.633  17.625  0.00  0.00    +0.000 A 
ATOM     20  C   UNL     1      49.149   6.572  16.933  0.00  0.00    +0.000 A 
ATOM     21  C   UNL     1      49.606   6.795  15.624  0.00  0.00    +0.000 A 
BRANCH  20  22
ATOM     22  C   UNL     1      49.241   5.198  17.555  0.00  0.00    +0.000 C 
BRANCH  22  23
ATOM     23  C   UNL     1      48.443   4.161  16.781  0.00  0.00    +0.000 C 
ATOM     24  C   UNL     1      46.924   4.300  16.963  0.00  0.00    +0.000 C 
ATOM     25  O   UNL     1      46.805   2.944  17.443  0.00  0.00    +0.000 OA
ATOM     26  C   UNL     1      48.241   2.777  17.414  0.00  0.00    +0.000 C 
ENDBRANCH  22  23
ENDBRANCH  20  22
ENDBRANCH  15  16
ENDBRANCH  14  15
ENDBRANCH   5  14
TORSDOF 6
ENDMDL
MODEL 9
REMARK VINA RESULT:    -5.999      2.902      5.279
REMARK INTER + INTRA:          -8.867
REMARK INTER:                  -8.370
REMARK INTRA:                  -0.497
REMARK UNBOUND:                -0.764
REMARK  Name = 
REMARK  6 active torsions:
REMARK  status: ('A' for Active; 'I' for Inactive)
REMARK    1  A    between atoms: C_2  and  C_4
REMARK    2  A    between atoms: N_8  and  C_9
REMARK    3  A    between atoms: C_9  and  C_10
REMARK    4  A    between atoms: C_10  and  C_11
REMARK    5  A    between atoms: C_15  and  C_16
REMARK    6  A    between atoms: C_16  and  C_17
REMARK                            x       y       z     vdW  Elec       q    Type
REMARK                         _______ _______ _______ _____ _____    ______ ____
ROOT
ATOM      1  C   UNL     1      45.160   4.799  11.427  0.00  0.00    +0.000 A 
ATOM      2  C   UNL     1      45.938   5.890  11.051  0.00  0.00    +0.000 A 
ATOM      3  C   UNL     1      46.779   6.480  11.993  0.00  0.00    +0.000 A 
ATOM      4  C   UNL     1      46.811   5.994  13.299  0.00  0.00    +0.000 A 
ATOM      5  N   UNL     1      47.678   6.486  14.263  0.00  0.00    +0.000 N 
ATOM      6  N   UNL     1      46.036   4.961  13.683  0.00  0.00    +0.000 NA
ATOM      7  C   UNL     1      45.226   4.391  12.748  0.00  0.00    +0.000 A 
ATOM      8  H   UNL     1      47.387   6.087  15.155  0.00  0.00    +0.000 HD
ENDROOT
BRANCH   1  10
ATOM      9  N   UNL     1      43.978   4.724   9.308  0.00  0.00    +0.000 N 
ATOM     10  C   UNL     1      44.291   4.079  10.477  0.00  0.00    +0.000 C 
ATOM     11  O   UNL     1      43.891   2.947  10.707  0.00  0.00    +0.000 OA
ATOM     12  H   UNL     1      43.478   4.179   8.619  0.00  0.00    +0.000 HD
ATOM     13  H   UNL     1      44.488   5.536   8.981  0.00  0.00    +0.000 HD
ENDBRANCH   1  10
BRANCH   5  14
ATOM     14  C   UNL     1      47.977   7.911  14.260  0.00  0.00    +0.000 C 
BRANCH  14  15
ATOM     15  C   UNL     1      49.210   8.221  15.113  0.00  0.00    +0.000 C 
BRANCH  15  16
ATOM     16  C   UNL     1      49.196   7.404  16.386  0.00  0.00    +0.000 A 
ATOM     17  C   UNL     1      48.388   7.793  17.461  0.00  0.00    +0.000 A 
ATOM     18  C   UNL     1      48.396   7.061  18.647  0.00  0.00    +0.000 A 
ATOM     19  C   UNL     1      49.200   5.925  18.768  0.00  0.00    +0.000 A 
ATOM     20  C   UNL     1      50.004   5.506  17.701  0.00  0.00    +0.000 A 
ATOM     21  C   UNL     1      50.013   6.270  16.522  0.00  0.00    +0.000 A 
BRANCH  20  22
ATOM     22  C   UNL     1      50.794   4.221  17.788  0.00  0.00    +0.000 C 
BRANCH  22  23
ATOM     23  C   UNL     1      49.901   2.992  17.747  0.00  0.00    +0.000 C 
ATOM     24  C   UNL     1      50.522   1.811  16.986  0.00  0.00    +0.000 C 
ATOM     25  O   UNL     1      49.401   1.737  16.080  0.00  0.00    +0.000 OA
ATOM     26  C   UNL     1      48.811   2.920  16.667  0.00  0.00    +0.000 C 
ENDBRANCH  22  23
ENDBRANCH  20  22
ENDBRANCH  15  16
ENDBRANCH  14  15
ENDBRANCH   5  14
TORSDOF 6
ENDMDL
