MODEL 1
REMARK VINA RESULT:    -7.815      0.000      0.000
REMARK INTER + INTRA:         -11.020
REMARK INTER:                 -10.328
REMARK INTRA:                  -0.692
REMARK UNBOUND:                -0.692
REMARK  Name = 
REMARK  7 active torsions:
REMARK  status: ('A' for Active; 'I' for Inactive)
REMARK    1  A    between atoms: C_1  and  S_2
REMARK    2  A    between atoms: S_2  and  C_3
REMARK    3  A    between atoms: N_5  and  C_6
REMARK    4  A    between atoms: C_6  and  C_7
REMARK    5  A    between atoms: C_10  and  C_11
REMARK    6  A    between atoms: C_11  and  C_12
REMARK    7  A    between atoms: C_12  and  N_13
REMARK                            x       y       z     vdW  Elec       q    Type
REMARK                         _______ _______ _______ _____ _____    ______ ____
ROOT
ATOM      1  C   UNL     1      43.461   4.775  10.811  0.00  0.00    +0.000 C 
ENDROOT
BRANCH   1   4
ATOM      2  C   UNL     1      45.422   7.520  12.143  0.00  0.00    +0.000 A 
ATOM      3  C   UNL     1      44.374   7.032  11.403  0.00  0.00    +0.000 A 
ATOM      4  N   UNL     1      44.376   5.662  11.528  0.00  0.00    +0.000 N 
ATOM      5  C   UNL     1      45.373   5.269  12.405  0.00  0.00    +0.000 A 
ATOM      6  C   UNL     1      45.744   3.999  12.882  0.00  0.00    +0.000 A 
ATOM      7  C   UNL     1      46.832   3.908  13.753  0.00  0.00    +0.000 A 
ATOM      8  C   UNL     1      47.531   5.044  14.146  0.00  0.00    +0.000 A 
ATOM      9  C   UNL     1      47.152   6.306  13.677  0.00  0.00    +0.000 A 
ATOM     10  C   UNL     1      46.057   6.428  12.793  0.00  0.00    +0.000 A 
BRANCH   2  12
ATOM     11  C   UNL     1      44.408   9.962  11.534  0.00  0.00    +0.000 C 
ATOM     12  S   UNL     1      45.880   9.201  12.257  0.00  0.00    +0.000 S 
ENDBRANCH   2  12
ENDBRANCH   1   4
BRANCH   1  13
ATOM     13  C   UNL     1      44.213   3.937   9.805  0.00  0.00    +0.000 A 
ATOM     14  C   UNL     1      44.215   2.539   9.899  0.00  0.00    +0.000 A 
ATOM     15  C   UNL     1      45.054   1.772   9.088  0.00  0.00    +0.000 A 
ATOM     16  C   UNL     1      45.910   2.389   8.168  0.00  0.00    +0.000 A 
ATOM     17  C   UNL     1      45.844   3.778   8.007  0.00  0.00    +0.000 A 
ATOM     18  C   UNL     1      45.007   4.546   8.821  0.00  0.00    +0.000 A 
BRANCH  16  19
ATOM     19  C   UNL     1      46.939   1.573   7.423  0.00  0.00    +0.000 C 
BRANCH  19  20
ATOM     20  C   UNL     1      48.058   2.411   6.802  0.00  0.00    +0.000 C 
BRANCH  20  21
ATOM     21  N   UNL     1      48.503   1.813   5.543  0.00  0.00    +0.000 NA
ATOM     22  H   UNL     1      49.024   0.958   5.734  0.00  0.00    +0.000 HD
ATOM     23  H   UNL     1      49.148   2.445   5.074  0.00  0.00    +0.000 HD
ENDBRANCH  20  21
ENDBRANCH  19  20
ENDBRANCH  16  19
ENDBRANCH   1  13
TORSDOF 6
ENDMDL
MODEL 2
REMARK VINA RESULT:    -7.509      1.155      2.972
REMARK INTER + INTRA:         -10.615
REMARK INTER:                  -9.980
REMARK INTRA:                  -0.636
REMARK UNBOUND:                -0.692
REMARK  Name = 
REMARK  7 active torsions:
REMARK  status: ('A' for Active; 'I' for Inactive)
REMARK    1  A    between atoms: C_1  and  S_2
REMARK    2  A    between atoms: S_2  and  C_3
REMARK    3  A    between atoms: N_5  and  C_6
REMARK    4  A    between atoms: C_6  and  C_7
REMARK    5  A    between atoms: C_10  and  C_11
REMARK    6  A    between atoms: C_11  and  C_12
REMARK    7  A    between atoms: C_12  and  N_13
REMARK                            x       y       z     vdW  Elec       q    Type
REMARK                         _______ _______ _______ _____ _____    ______ ____
ROOT
ATOM      1  C   UNL     1      43.721   4.758  10.722  0.00  0.00    +0.000 C 
ENDROOT
BRANCH   1   4
ATOM      2  C   UNL     1      46.263   5.878  13.055  0.00  0.00    +0.000 A 
ATOM      3  C   UNL     1      45.609   4.888  12.364  0.00  0.00    +0.000 A 
ATOM      4  N   UNL     1      44.679   5.490  11.550  0.00  0.00    +0.000 N 
ATOM      5  C   UNL     1      44.779   6.867  11.655  0.00  0.00    +0.000 A 
ATOM      6  C   UNL     1      44.085   7.903  11.005  0.00  0.00    +0.000 A 
ATOM      7  C   UNL     1      44.388   9.223  11.345  0.00  0.00    +0.000 A 
ATOM      8  C   UNL     1      45.357   9.511  12.299  0.00  0.00    +0.000 A 
ATOM      9  C   UNL     1      46.053   8.479  12.936  0.00  0.00    +0.000 A 
ATOM     10  C   UNL     1      45.765   7.134  12.614  0.00  0.00    +0.000 A 
BRANCH   2  12
ATOM     11  C   UNL     1      47.048   3.953  14.799  0.00  0.00    +0.000 C 
ATOM     12  S   UNL     1      47.497   5.620  14.263  0.00  0.00    +0.000 S 
ENDBRANCH   2  12
ENDBRANCH   1   4
BRANCH   1  13
ATOM     13  C   UNL     1      44.442   3.923   9.691  0.00  0.00    +0.000 A 
ATOM     14  C   UNL     1      44.347   2.524   9.712  0.00  0.00    +0.000 A 
ATOM     15  C   UNL     1      45.154   1.744   8.881  0.00  0.00    +0.000 A 
ATOM     16  C   UNL     1      46.072   2.346   8.014  0.00  0.00    +0.000 A 
ATOM     17  C   UNL     1      46.103   3.743   7.923  0.00  0.00    +0.000 A 
ATOM     18  C   UNL     1      45.299   4.524   8.757  0.00  0.00    +0.000 A 
BRANCH  16  19
ATOM     19  C   UNL     1      47.063   1.501   7.250  0.00  0.00    +0.000 C 
BRANCH  19  20
ATOM     20  C   UNL     1      48.228   2.298   6.660  0.00  0.00    +0.000 C 
BRANCH  20  21
ATOM     21  N   UNL     1      48.398   1.975   5.244  0.00  0.00    +0.000 NA
ATOM     22  H   UNL     1      47.812   1.179   4.999  0.00  0.00    +0.000 HD
ATOM     23  H   UNL     1      49.360   1.689   5.072  0.00  0.00    +0.000 HD
ENDBRANCH  20  21
ENDBRANCH  19  20
ENDBRANCH  16  19
ENDBRANCH   1  13
TORSDOF 6
ENDMDL
MODEL 3
REMARK VINA RESULT:    -5.764      2.216      3.217
REMARK INTER + INTRA:          -8.310
REMARK INTER:                  -7.936
REMARK INTRA:                  -0.374
REMARK UNBOUND:                -0.692
REMARK  Name = 
REMARK  7 active torsions:
REMARK  status: ('A' for Active; 'I' for Inactive)
REMARK    1  A    between atoms: C_1  and  S_2
REMARK    2  A    between atoms: S_2  and  C_3
REMARK    3  A    between atoms: N_5  and  C_6
REMARK    4  A    between atoms: C_6  and  C_7
REMARK    5  A    between atoms: C_10  and  C_11
REMARK    6  A    between atoms: C_11  and  C_12
REMARK    7  A    between atoms: C_12  and  N_13
REMARK                            x       y       z     vdW  Elec       q    Type
REMARK                         _______ _______ _______ _____ _____    ______ ____
ROOT
ATOM      1  C   UNL     1      46.009   5.994  13.236  0.00  0.00    +0.000 C 
ENDROOT
BRANCH   1   4
ATOM      2  C   UNL     1      45.990   9.444  12.116  0.00  0.00    +0.000 A 
ATOM      3  C   UNL     1      45.366   8.343  12.647  0.00  0.00    +0.000 A 
ATOM      4  N   UNL     1      46.309   7.352  12.785  0.00  0.00    +0.000 N 
ATOM      5  C   UNL     1      47.555   7.832  12.416  0.00  0.00    +0.000 A 
ATOM      6  C   UNL     1      48.823   7.224  12.418  0.00  0.00    +0.000 A 
ATOM      7  C   UNL     1      49.915   7.960  11.952  0.00  0.00    +0.000 A 
ATOM      8  C   UNL     1      49.756   9.267  11.502  0.00  0.00    +0.000 A 
ATOM      9  C   UNL     1      48.495   9.870  11.511  0.00  0.00    +0.000 A 
ATOM     10  C   UNL     1      47.373   9.148  11.974  0.00  0.00    +0.000 A 
BRANCH   2  12
ATOM     11  C   UNL     1      43.685  10.294  10.963  0.00  0.00    +0.000 C 
ATOM     12  S   UNL     1      45.204  10.946  11.696  0.00  0.00    +0.000 S 
ENDBRANCH   2  12
ENDBRANCH   1   4
BRANCH   1  13
ATOM     13  C   UNL     1      45.502   5.154  12.089  0.00  0.00    +0.000 A 
ATOM     14  C   UNL     1      44.970   3.877  12.319  0.00  0.00    +0.000 A 
ATOM     15  C   UNL     1      44.673   3.027  11.252  0.00  0.00    +0.000 A 
ATOM     16  C   UNL     1      44.904   3.435   9.933  0.00  0.00    +0.000 A 
ATOM     17  C   UNL     1      45.347   4.742   9.696  0.00  0.00    +0.000 A 
ATOM     18  C   UNL     1      45.648   5.591  10.764  0.00  0.00    +0.000 A 
BRANCH  16  19
ATOM     19  C   UNL     1      44.751   2.454   8.796  0.00  0.00    +0.000 C 
BRANCH  19  20
ATOM     20  C   UNL     1      46.057   2.157   8.057  0.00  0.00    +0.000 C 
BRANCH  20  21
ATOM     21  N   UNL     1      46.346   0.724   8.092  0.00  0.00    +0.000 NA
ATOM     22  H   UNL     1      45.833   0.288   8.857  0.00  0.00    +0.000 HD
ATOM     23  H   UNL     1      47.334   0.580   8.289  0.00  0.00    +0.000 HD
ENDBRANCH  20  21
ENDBRANCH  19  20
ENDBRANCH  16  19
ENDBRANCH   1  13
TORSDOF 6
ENDMDL
MODEL 4
REMARK VINA RESULT:    -5.553      1.873      3.951
REMARK INTER + INTRA:          -8.031
REMARK INTER:                  -7.681
REMARK INTRA:                  -0.349
REMARK UNBOUND:                -0.692
REMARK  Name = 
REMARK  7 active torsions:
REMARK  status: ('A' for Active; 'I' for Inactive)
REMARK    1  A    between atoms: C_1  and  S_2
REMARK    2  A    between atoms: S_2  and  C_3
REMARK    3  A    between atoms: N_5  and  C_6
REMARK    4  A    between atoms: C_6  and  C_7
REMARK    5  A    between atoms: C_10  and  C_11
REMARK    6  A    between atoms: C_11  and  C_12
REMARK    7  A    between atoms: C_12  and  N_13
REMARK                            x       y       z     vdW  Elec       q    Type
REMARK                         _______ _______ _______ _____ _____    ______ ____
ROOT
ATOM      1  C   UNL     1      44.749   6.290  12.657  0.00  0.00    +0.000 C 
ENDROOT
BRANCH   1   4
ATOM      2  C   UNL     1      47.287   8.842  13.106  0.00  0.00    +0.000 A 
ATOM      3  C   UNL     1      46.820   7.561  13.266  0.00  0.00    +0.000 A 
ATOM      4  N   UNL     1      45.603   7.477  12.631  0.00  0.00    +0.000 N 
ATOM      5  C   UNL     1      45.317   8.674  11.997  0.00  0.00    +0.000 A 
ATOM      6  C   UNL     1      44.229   9.066  11.198  0.00  0.00    +0.000 A 
ATOM      7  C   UNL     1      44.197  10.375  10.712  0.00  0.00    +0.000 A 
ATOM      8  C   UNL     1      45.220  11.271  11.004  0.00  0.00    +0.000 A 
ATOM      9  C   UNL     1      46.305  10.874  11.791  0.00  0.00    +0.000 A 
ATOM     10  C   UNL     1      46.362   9.557  12.298  0.00  0.00    +0.000 A 
BRANCH   2  12
ATOM     11  C   UNL     1      48.408   9.261  15.541  0.00  0.00    +0.000 C 
ATOM     12  S   UNL     1      48.770   9.468  13.783  0.00  0.00    +0.000 S 
ENDBRANCH   2  12
ENDBRANCH   1   4
BRANCH   1  13
ATOM     13  C   UNL     1      44.996   5.432  11.439  0.00  0.00    +0.000 A 
ATOM     14  C   UNL     1      45.825   5.885  10.403  0.00  0.00    +0.000 A 
ATOM     15  C   UNL     1      45.909   5.180   9.200  0.00  0.00    +0.000 A 
ATOM     16  C   UNL     1      45.165   4.011   9.009  0.00  0.00    +0.000 A 
ATOM     17  C   UNL     1      44.409   3.507  10.074  0.00  0.00    +0.000 A 
ATOM     18  C   UNL     1      44.321   4.213  11.276  0.00  0.00    +0.000 A 
BRANCH  16  19
ATOM     19  C   UNL     1      45.121   3.352   7.651  0.00  0.00    +0.000 C 
BRANCH  19  20
ATOM     20  C   UNL     1      46.500   2.995   7.094  0.00  0.00    +0.000 C 
BRANCH  20  21
ATOM     21  N   UNL     1      46.841   3.877   5.977  0.00  0.00    +0.000 NA
ATOM     22  H   UNL     1      46.666   3.398   5.095  0.00  0.00    +0.000 HD
ATOM     23  H   UNL     1      47.836   4.086   6.000  0.00  0.00    +0.000 HD
ENDBRANCH  20  21
ENDBRANCH  19  20
ENDBRANCH  16  19
ENDBRANCH   1  13
TORSDOF 6
ENDMDL
MODEL 5
REMARK VINA RESULT:    -5.178      2.882      6.398
REMARK INTER + INTRA:          -7.535
REMARK INTER:                  -6.982
REMARK INTRA:                  -0.553
REMARK UNBOUND:                -0.692
REMARK  Name = 
REMARK  7 active torsions:
REMARK  status: ('A' for Active; 'I' for Inactive)
REMARK    1  A    between atoms: C_1  and  S_2
REMARK    2  A    between atoms: S_2  and  C_3
REMARK    3  A    between atoms: N_5  and  C_6
REMARK    4  A    between atoms: C_6  and  C_7
REMARK    5  A    between atoms: C_10  and  C_11
REMARK    6  A    between atoms: C_11  and  C_12
REMARK    7  A    between atoms: C_12  and  N_13
REMARK                            x       y       z     vdW  Elec       q    Type
REMARK                         _______ _______ _______ _____ _____    ______ ____
ROOT
ATOM      1  C   UNL     1      45.481   7.479  11.141  0.00  0.00    +0.000 C 
ENDROOT
BRANCH   1   4
ATOM      2  C   UNL     1      45.176   4.302   9.419  0.00  0.00    +0.000 A 
ATOM      3  C   UNL     1      45.641   5.591   9.503  0.00  0.00    +0.000 A 
ATOM      4  N   UNL     1      45.251   6.098  10.720  0.00  0.00    +0.000 N 
ATOM      5  C   UNL     1      44.602   5.119  11.454  0.00  0.00    +0.000 A 
ATOM      6  C   UNL     1      44.060   5.136  12.751  0.00  0.00    +0.000 A 
ATOM      7  C   UNL     1      43.426   3.984  13.222  0.00  0.00    +0.000 A 
ATOM      8  C   UNL     1      43.336   2.843  12.432  0.00  0.00    +0.000 A 
ATOM      9  C   UNL     1      43.886   2.828  11.147  0.00  0.00    +0.000 A 
ATOM     10  C   UNL     1      44.530   3.980  10.643  0.00  0.00    +0.000 A 
BRANCH   2  12
ATOM     11  C   UNL     1      46.828   3.995   7.288  0.00  0.00    +0.000 C 
ATOM     12  S   UNL     1      45.362   3.249   8.038  0.00  0.00    +0.000 S 
ENDBRANCH   2  12
ENDBRANCH   1   4
BRANCH   1  13
ATOM     13  C   UNL     1      46.644   7.554  12.101  0.00  0.00    +0.000 A 
ATOM     14  C   UNL     1      47.738   6.688  11.966  0.00  0.00    +0.000 A 
ATOM     15  C   UNL     1      48.724   6.627  12.954  0.00  0.00    +0.000 A 
ATOM     16  C   UNL     1      48.634   7.429  14.097  0.00  0.00    +0.000 A 
ATOM     17  C   UNL     1      47.593   8.361  14.190  0.00  0.00    +0.000 A 
ATOM     18  C   UNL     1      46.604   8.419  13.205  0.00  0.00    +0.000 A 
BRANCH  16  19
ATOM     19  C   UNL     1      49.601   7.235  15.240  0.00  0.00    +0.000 C 
BRANCH  19  20
ATOM     20  C   UNL     1      49.035   6.400  16.390  0.00  0.00    +0.000 C 
BRANCH  20  21
ATOM     21  N   UNL     1      49.894   5.246  16.651  0.00  0.00    +0.000 NA
ATOM     22  H   UNL     1      50.229   5.276  17.614  0.00  0.00    +0.000 HD
ATOM     23  H   UNL     1      50.719   5.293  16.058  0.00  0.00    +0.000 HD
ENDBRANCH  20  21
ENDBRANCH  19  20
ENDBRANCH  16  19
ENDBRANCH   1  13
TORSDOF 6
ENDMDL
MODEL 6
REMARK VINA RESULT:    -5.153      3.338      7.016
REMARK INTER + INTRA:          -7.503
REMARK INTER:                  -6.904
REMARK INTRA:                  -0.598
REMARK UNBOUND:                -0.692
REMARK  Name = 
REMARK  7 active torsions:
REMARK  status: ('A' for Active; 'I' for Inactive)
REMARK    1  A    between atoms: C_1  and  S_2
REMARK    2  A    between atoms: S_2  and  C_3
REMARK    3  A    between atoms: N_5  and  C_6
REMARK    4  A    between atoms: C_6  and  C_7
REMARK    5  A    between atoms: C_10  and  C_11
REMARK    6  A    between atoms: C_11  and  C_12
REMARK    7  A    between atoms: C_12  and  N_13
REMARK                            x       y       z     vdW  Elec       q    Type
REMARK                         _______ _______ _______ _____ _____    ______ ____
ROOT
ATOM      1  C   UNL     1      47.933   5.845  12.888  0.00  0.00    +0.000 C 
ENDROOT
BRANCH   1   4
ATOM      2  C   UNL     1      45.087   7.801  11.776  0.00  0.00    +0.000 A 
ATOM      3  C   UNL     1      46.407   7.685  12.136  0.00  0.00    +0.000 A 
ATOM      4  N   UNL     1      46.657   6.356  12.389  0.00  0.00    +0.000 N 
ATOM      5  C   UNL     1      45.526   5.603  12.121  0.00  0.00    +0.000 A 
ATOM      6  C   UNL     1      45.294   4.218  12.186  0.00  0.00    +0.000 A 
ATOM      7  C   UNL     1      44.017   3.742  11.880  0.00  0.00    +0.000 A 
ATOM      8  C   UNL     1      42.997   4.614  11.514  0.00  0.00    +0.000 A 
ATOM      9  C   UNL     1      43.235   5.990  11.441  0.00  0.00    +0.000 A 
ATOM     10  C   UNL     1      44.516   6.500  11.747  0.00  0.00    +0.000 A 
BRANCH   2  12
ATOM     11  C   UNL     1      45.605  10.464  11.762  0.00  0.00    +0.000 C 
ATOM     12  S   UNL     1      44.267   9.299  11.414  0.00  0.00    +0.000 S 
ENDBRANCH   2  12
ENDBRANCH   1   4
BRANCH   1  13
ATOM     13  C   UNL     1      47.929   5.791  14.396  0.00  0.00    +0.000 A 
ATOM     14  C   UNL     1      48.617   6.754  15.147  0.00  0.00    +0.000 A 
ATOM     15  C   UNL     1      48.771   6.605  16.527  0.00  0.00    +0.000 A 
ATOM     16  C   UNL     1      48.242   5.487  17.183  0.00  0.00    +0.000 A 
ATOM     17  C   UNL     1      47.476   4.572  16.452  0.00  0.00    +0.000 A 
ATOM     18  C   UNL     1      47.325   4.719  15.071  0.00  0.00    +0.000 A 
BRANCH  16  19
ATOM     19  C   UNL     1      48.561   5.239  18.638  0.00  0.00    +0.000 C 
BRANCH  19  20
ATOM     20  C   UNL     1      48.685   3.757  18.998  0.00  0.00    +0.000 C 
BRANCH  20  21
ATOM     21  N   UNL     1      48.331   3.544  20.401  0.00  0.00    +0.000 NA
ATOM     22  H   UNL     1      49.064   3.008  20.863  0.00  0.00    +0.000 HD
ATOM     23  H   UNL     1      47.484   2.983  20.458  0.00  0.00    +0.000 HD
ENDBRANCH  20  21
ENDBRANCH  19  20
ENDBRANCH  16  19
ENDBRANCH   1  13
TORSDOF 6
ENDMDL
MODEL 7
REMARK VINA RESULT:    -5.075      4.906      7.983
REMARK INTER + INTRA:          -7.399
REMARK INTER:                  -6.724
REMARK INTRA:                  -0.676
REMARK UNBOUND:                -0.692
REMARK  Name = 
REMARK  7 active torsions:
REMARK  status: ('A' for Active; 'I' for Inactive)
REMARK    1  A    between atoms: C_1  and  S_2
REMARK    2  A    between atoms: S_2  and  C_3
REMARK    3  A    between atoms: N_5  and  C_6
REMARK    4  A    between atoms: C_6  and  C_7
REMARK    5  A    between atoms: C_10  and  C_11
REMARK    6  A    between atoms: C_11  and  C_12
REMARK    7  A    between atoms: C_12  and  N_13
REMARK                            x       y       z     vdW  Elec       q    Type
REMARK                         _______ _______ _______ _____ _____    ______ ____
ROOT
ATOM      1  C   UNL     1      47.869   4.706  17.048  0.00  0.00    +0.000 C 
ENDROOT
BRANCH   1   4
ATOM      2  C   UNL     1      46.538   4.527  13.679  0.00  0.00    +0.000 A 
ATOM      3  C   UNL     1      46.583   4.103  14.984  0.00  0.00    +0.000 A 
ATOM      4  N   UNL     1      47.479   4.904  15.653  0.00  0.00    +0.000 N 
ATOM      5  C   UNL     1      47.956   5.890  14.805  0.00  0.00    +0.000 A 
ATOM      6  C   UNL     1      48.847   6.955  15.026  0.00  0.00    +0.000 A 
ATOM      7  C   UNL     1      49.170   7.786  13.951  0.00  0.00    +0.000 A 
ATOM      8  C   UNL     1      48.621   7.572  12.691  0.00  0.00    +0.000 A 
ATOM      9  C   UNL     1      47.728   6.518  12.478  0.00  0.00    +0.000 A 
ATOM     10  C   UNL     1      47.385   5.660  13.547  0.00  0.00    +0.000 A 
BRANCH   2  12
ATOM     11  C   UNL     1      44.213   4.959  12.347  0.00  0.00    +0.000 C 
ATOM     12  S   UNL     1      45.590   3.789  12.411  0.00  0.00    +0.000 S 
ENDBRANCH   2  12
ENDBRANCH   1   4
BRANCH   1  13
ATOM     13  C   UNL     1      49.214   4.026  17.132  0.00  0.00    +0.000 A 
ATOM     14  C   UNL     1      49.324   2.638  16.976  0.00  0.00    +0.000 A 
ATOM     15  C   UNL     1      50.531   1.985  17.235  0.00  0.00    +0.000 A 
ATOM     16  C   UNL     1      51.653   2.708  17.657  0.00  0.00    +0.000 A 
ATOM     17  C   UNL     1      51.572   4.105  17.723  0.00  0.00    +0.000 A 
ATOM     18  C   UNL     1      50.364   4.757  17.468  0.00  0.00    +0.000 A 
BRANCH  16  19
ATOM     19  C   UNL     1      52.899   1.984  18.105  0.00  0.00    +0.000 C 
BRANCH  19  20
ATOM     20  C   UNL     1      53.100   0.627  17.429  0.00  0.00    +0.000 C 
BRANCH  20  21
ATOM     21  N   UNL     1      53.043  -0.448  18.420  0.00  0.00    +0.000 NA
ATOM     22  H   UNL     1      53.945  -0.920  18.468  0.00  0.00    +0.000 HD
ATOM     23  H   UNL     1      52.367  -1.148  18.125  0.00  0.00    +0.000 HD
ENDBRANCH  20  21
ENDBRANCH  19  20
ENDBRANCH  16  19
ENDBRANCH   1  13
TORSDOF 6
ENDMDL
MODEL 8
REMARK VINA RESULT:    -4.970      4.345      6.986
REMARK INTER + INTRA:          -7.261
REMARK INTER:                  -6.615
REMARK INTRA:                  -0.646
REMARK UNBOUND:                -0.692
REMARK  Name = 
REMARK  7 active torsions:
REMARK  status: ('A' for Active; 'I' for Inactive)
REMARK    1  A    between atoms: C_1  and  S_2
REMARK    2  A    between atoms: S_2  and  C_3
REMARK    3  A    between atoms: N_5  and  C_6
REMARK    4  A    between atoms: C_6  and  C_7
REMARK    5  A    between atoms: C_10  and  C_11
REMARK    6  A    between atoms: C_11  and  C_12
REMARK    7  A    between atoms: C_12  and  N_13
REMARK                            x       y       z     vdW  Elec       q    Type
REMARK                         _______ _______ _______ _____ _____    ______ ____
ROOT
ATOM      1  C   UNL     1      48.966   6.983  14.422  0.00  0.00    +0.000 C 
ENDROOT
BRANCH   1   4
ATOM      2  C   UNL     1      48.883   5.998  17.912  0.00  0.00    +0.000 A 
ATOM      3  C   UNL     1      49.138   5.736  16.589  0.00  0.00    +0.000 A 
ATOM      4  N   UNL     1      48.893   6.889  15.880  0.00  0.00    +0.000 N 
ATOM      5  C   UNL     1      48.554   7.914  16.747  0.00  0.00    +0.000 A 
ATOM      6  C   UNL     1      48.256   9.268  16.513  0.00  0.00    +0.000 A 
ATOM      7  C   UNL     1      47.913  10.071  17.604  0.00  0.00    +0.000 A 
ATOM      8  C   UNL     1      47.872   9.548  18.892  0.00  0.00    +0.000 A 
ATOM      9  C   UNL     1      48.179   8.204  19.120  0.00  0.00    +0.000 A 
ATOM     10  C   UNL     1      48.526   7.367  18.036  0.00  0.00    +0.000 A 
BRANCH   2  12
ATOM     11  C   UNL     1      48.620   3.323  18.288  0.00  0.00    +0.000 C 
ATOM     12  S   UNL     1      48.989   4.834  19.210  0.00  0.00    +0.000 S 
ENDBRANCH   2  12
ENDBRANCH   1   4
BRANCH   1  13
ATOM     13  C   UNL     1      47.610   6.736  13.806  0.00  0.00    +0.000 A 
ATOM     14  C   UNL     1      47.141   5.429  13.613  0.00  0.00    +0.000 A 
ATOM     15  C   UNL     1      45.976   5.193  12.879  0.00  0.00    +0.000 A 
ATOM     16  C   UNL     1      45.259   6.257  12.322  0.00  0.00    +0.000 A 
ATOM     17  C   UNL     1      45.674   7.568  12.591  0.00  0.00    +0.000 A 
ATOM     18  C   UNL     1      46.841   7.805  13.322  0.00  0.00    +0.000 A 
BRANCH  16  19
ATOM     19  C   UNL     1      44.106   5.990  11.385  0.00  0.00    +0.000 C 
BRANCH  19  20
ATOM     20  C   UNL     1      43.084   4.993  11.934  0.00  0.00    +0.000 C 
BRANCH  20  21
ATOM     21  N   UNL     1      42.582   5.444  13.232  0.00  0.00    +0.000 NA
ATOM     22  H   UNL     1      41.689   5.920  13.109  0.00  0.00    +0.000 HD
ATOM     23  H   UNL     1      43.222   6.130  13.626  0.00  0.00    +0.000 HD
ENDBRANCH  20  21
ENDBRANCH  19  20
ENDBRANCH  16  19
ENDBRANCH   1  13
TORSDOF 6
ENDMDL
MODEL 9
REMARK VINA RESULT:    -4.934      3.056      4.563
REMARK INTER + INTRA:          -7.212
REMARK INTER:                  -6.527
REMARK INTRA:                  -0.685
REMARK UNBOUND:                -0.692
REMARK  Name = 
REMARK  7 active torsions:
REMARK  status: ('A' for Active; 'I' for Inactive)
REMARK    1  A    between atoms: C_1  and  S_2
REMARK    2  A    between atoms: S_2  and  C_3
REMARK    3  A    between atoms: N_5  and  C_6
REMARK    4  A    between atoms: C_6  and  C_7
REMARK    5  A    between atoms: C_10  and  C_11
REMARK    6  A    between atoms: C_11  and  C_12
REMARK    7  A    between atoms: C_12  and  N_13
REMARK                            x       y       z     vdW  Elec       q    Type
REMARK                         _______ _______ _______ _____ _____    ______ ____
ROOT
ATOM      1  C   UNL     1      46.141   7.894  13.039  0.00  0.00    +0.000 C 
ENDROOT
BRANCH   1   4
ATOM      2  C   UNL     1      49.573   8.805  12.299  0.00  0.00    +0.000 A 
ATOM      3  C   UNL     1      48.229   8.834  12.021  0.00  0.00    +0.000 A 
ATOM      4  N   UNL     1      47.579   8.157  13.027  0.00  0.00    +0.000 N 
ATOM      5  C   UNL     1      48.489   7.756  13.991  0.00  0.00    +0.000 A 
ATOM      6  C   UNL     1      48.314   7.077  15.209  0.00  0.00    +0.000 A 
ATOM      7  C   UNL     1      49.445   6.776  15.973  0.00  0.00    +0.000 A 
ATOM      8  C   UNL     1      50.716   7.144  15.543  0.00  0.00    +0.000 A 
ATOM      9  C   UNL     1      50.884   7.827  14.335  0.00  0.00    +0.000 A 
ATOM     10  C   UNL     1      49.759   8.142  13.542  0.00  0.00    +0.000 A 
BRANCH   2  12
ATOM     11  C   UNL     1      51.613   7.949  10.727  0.00  0.00    +0.000 C 
ATOM     12  S   UNL     1      50.827   9.478  11.287  0.00  0.00    +0.000 S 
ENDBRANCH   2  12
ENDBRANCH   1   4
BRANCH   1  13
ATOM     13  C   UNL     1      45.843   6.545  12.431  0.00  0.00    +0.000 A 
ATOM     14  C   UNL     1      45.718   6.399  11.042  0.00  0.00    +0.000 A 
ATOM     15  C   UNL     1      45.263   5.200  10.491  0.00  0.00    +0.000 A 
ATOM     16  C   UNL     1      44.920   4.123  11.316  0.00  0.00    +0.000 A 
ATOM     17  C   UNL     1      45.131   4.234  12.696  0.00  0.00    +0.000 A 
ATOM     18  C   UNL     1      45.583   5.435  13.249  0.00  0.00    +0.000 A 
BRANCH  16  19
ATOM     19  C   UNL     1      44.262   2.896  10.732  0.00  0.00    +0.000 C 
BRANCH  19  20
ATOM     20  C   UNL     1      44.554   2.690   9.245  0.00  0.00    +0.000 C 
BRANCH  20  21
ATOM     21  N   UNL     1      45.269   1.431   9.036  0.00  0.00    +0.000 NA
ATOM     22  H   UNL     1      46.225   1.518   9.376  0.00  0.00    +0.000 HD
ATOM     23  H   UNL     1      45.333   1.236   8.040  0.00  0.00    +0.000 HD
ENDBRANCH  20  21
ENDBRANCH  19  20
ENDBRANCH  16  19
ENDBRANCH   1  13
TORSDOF 6
ENDMDL
