MODEL 1
REMARK VINA RESULT:    -8.834      0.000      0.000
REMARK INTER + INTRA:         -12.104
REMARK INTER:                 -11.416
REMARK INTRA:                  -0.688
REMARK UNBOUND:                -0.688
REMARK  Name = 
REMARK  5 active torsions:
REMARK  status: ('A' for Active; 'I' for Inactive)
REMARK    1  A    between atoms: C_2  and  C_4
REMARK    2  A    between atoms: C_7  and  N_8
REMARK    3  A    between atoms: N_8  and  C_9
REMARK    4  A    between atoms: C_9  and  C_10
REMARK    5  A    between atoms: C_15  and  C_16
REMARK                            x       y       z     vdW  Elec       q    Type
REMARK                         _______ _______ _______ _____ _____    ______ ____
ROOT
ATOM      1  C   UNL     1      43.569   4.524  11.136  0.00  0.00    +0.000 C 
ENDROOT
BRANCH   1   2
ATOM      2  C   UNL     1      44.838   4.885  11.881  0.00  0.00    +0.000 A 
ATOM      3  C   UNL     1      45.447   3.973  12.746  0.00  0.00    +0.000 A 
ATOM      4  C   UNL     1      46.617   4.328  13.403  0.00  0.00    +0.000 A 
ATOM      5  F   UNL     1      47.198   3.448  14.231  0.00  0.00    +0.000 F 
ATOM      6  C   UNL     1      47.206   5.576  13.215  0.00  0.00    +0.000 A 
ATOM      7  C   UNL     1      46.621   6.529  12.366  0.00  0.00    +0.000 A 
ATOM      8  C   UNL     1      45.426   6.156  11.716  0.00  0.00    +0.000 A 
BRANCH   7   9
ATOM      9  C   UNL     1      47.234   7.862  12.155  0.00  0.00    +0.000 A 
ATOM     10  C   UNL     1      48.579   8.018  11.781  0.00  0.00    +0.000 A 
ATOM     11  C   UNL     1      49.125   9.287  11.585  0.00  0.00    +0.000 A 
ATOM     12  C   UNL     1      48.314  10.389  11.779  0.00  0.00    +0.000 A 
ATOM     13  N   UNL     1      47.020  10.302  12.143  0.00  0.00    +0.000 NA
ATOM     14  C   UNL     1      46.518   9.053  12.315  0.00  0.00    +0.000 A 
ENDBRANCH   7   9
ENDBRANCH   1   2
BRANCH   1  15
ATOM     15  N   UNL     1      43.740   4.864   9.727  0.00  0.00    +0.000 N 
ATOM     16  H   UNL     1      44.002   5.838   9.608  0.00  0.00    +0.000 HD
BRANCH  15  20
ATOM     17  C   UNL     1      46.342   2.321   7.811  0.00  0.00    +0.000 A 
ATOM     18  C   UNL     1      46.399   3.687   7.587  0.00  0.00    +0.000 A 
ATOM     19  N   UNL     1      45.548   4.565   8.187  0.00  0.00    +0.000 NA
ATOM     20  C   UNL     1      44.627   4.038   9.022  0.00  0.00    +0.000 A 
ATOM     21  C   UNL     1      44.588   2.651   9.234  0.00  0.00    +0.000 A 
ATOM     22  N   UNL     1      45.423   1.757   8.640  0.00  0.00    +0.000 NA
BRANCH  17  24
ATOM     23  N   UNL     1      48.377   2.033   6.532  0.00  0.00    +0.000 N 
ATOM     24  C   UNL     1      47.319   1.417   7.145  0.00  0.00    +0.000 C 
ATOM     25  O   UNL     1      47.187   0.200   7.139  0.00  0.00    +0.000 OA
ATOM     26  H   UNL     1      49.068   1.475   6.047  0.00  0.00    +0.000 HD
ATOM     27  H   UNL     1      48.454   3.044   6.545  0.00  0.00    +0.000 HD
ENDBRANCH  17  24
ENDBRANCH  15  20
ENDBRANCH   1  15
TORSDOF 5
ENDMDL
MODEL 2
REMARK VINA RESULT:    -8.429      2.377      3.643
REMARK INTER + INTRA:         -11.582
REMARK INTER:                 -10.858
REMARK INTRA:                  -0.723
REMARK UNBOUND:                -0.688
REMARK  Name = 
REMARK  5 active torsions:
REMARK  status: ('A' for Active; 'I' for Inactive)
REMARK    1  A    between atoms: C_2  and  C_4
REMARK    2  A    between atoms: C_7  and  N_8
REMARK    3  A    between atoms: N_8  and  C_9
REMARK    4  A    between atoms: C_9  and  C_10
REMARK    5  A    between atoms: C_15  and  C_16
REMARK                            x       y       z     vdW  Elec       q    Type
REMARK                         _______ _______ _______ _____ _____    ______ ____
ROOT
ATOM      1  C   UNL     1      43.887   4.548  11.405  0.00  0.00    +0.000 C 
ENDROOT
BRANCH   1   2
ATOM      2  C   UNL     1      44.990   5.366  12.045  0.00  0.00    +0.000 A 
ATOM      3  C   UNL     1      45.324   6.631  11.553  0.00  0.00    +0.000 A 
ATOM      4  C   UNL     1      46.330   7.362  12.169  0.00  0.00    +0.000 A 
ATOM      5  F   UNL     1      46.645   8.575  11.694  0.00  0.00    +0.000 F 
ATOM      6  C   UNL     1      47.016   6.866  13.276  0.00  0.00    +0.000 A 
ATOM      7  C   UNL     1      46.723   5.594  13.796  0.00  0.00    +0.000 A 
ATOM      8  C   UNL     1      45.707   4.860  13.149  0.00  0.00    +0.000 A 
BRANCH   7   9
ATOM      9  C   UNL     1      47.443   5.052  14.972  0.00  0.00    +0.000 A 
ATOM     10  C   UNL     1      47.165   3.780  15.499  0.00  0.00    +0.000 A 
ATOM     11  C   UNL     1      47.864   3.295  16.605  0.00  0.00    +0.000 A 
ATOM     12  C   UNL     1      48.829   4.101  17.178  0.00  0.00    +0.000 A 
ATOM     13  N   UNL     1      49.134   5.331  16.721  0.00  0.00    +0.000 NA
ATOM     14  C   UNL     1      48.443   5.768  15.638  0.00  0.00    +0.000 A 
ENDBRANCH   7   9
ENDBRANCH   1   2
BRANCH   1  15
ATOM     15  N   UNL     1      43.867   4.829   9.973  0.00  0.00    +0.000 N 
ATOM     16  H   UNL     1      44.048   5.810   9.783  0.00  0.00    +0.000 HD
BRANCH  15  20
ATOM     17  C   UNL     1      46.373   2.349   7.855  0.00  0.00    +0.000 A 
ATOM     18  C   UNL     1      46.372   3.715   7.624  0.00  0.00    +0.000 A 
ATOM     19  N   UNL     1      45.550   4.573   8.290  0.00  0.00    +0.000 NA
ATOM     20  C   UNL     1      44.715   4.024   9.199  0.00  0.00    +0.000 A 
ATOM     21  C   UNL     1      44.733   2.638   9.417  0.00  0.00    +0.000 A 
ATOM     22  N   UNL     1      45.541   1.765   8.759  0.00  0.00    +0.000 NA
BRANCH  17  24
ATOM     23  N   UNL     1      48.392   2.097   6.544  0.00  0.00    +0.000 N 
ATOM     24  C   UNL     1      47.316   1.470   7.113  0.00  0.00    +0.000 C 
ATOM     25  O   UNL     1      47.143   0.262   7.011  0.00  0.00    +0.000 OA
ATOM     26  H   UNL     1      49.062   1.558   6.013  0.00  0.00    +0.000 HD
ATOM     27  H   UNL     1      48.502   3.101   6.637  0.00  0.00    +0.000 HD
ENDBRANCH  17  24
ENDBRANCH  15  20
ENDBRANCH   1  15
TORSDOF 5
ENDMDL
MODEL 3
REMARK VINA RESULT:    -8.046      3.239      6.977
REMARK INTER + INTRA:         -11.086
REMARK INTER:                 -10.469
REMARK INTRA:                  -0.618
REMARK UNBOUND:                -0.688
REMARK  Name = 
REMARK  5 active torsions:
REMARK  status: ('A' for Active; 'I' for Inactive)
REMARK    1  A    between atoms: C_2  and  C_4
REMARK    2  A    between atoms: C_7  and  N_8
REMARK    3  A    between atoms: N_8  and  C_9
REMARK    4  A    between atoms: C_9  and  C_10
REMARK    5  A    between atoms: C_15  and  C_16
REMARK                            x       y       z     vdW  Elec       q    Type
REMARK                         _______ _______ _______ _____ _____    ______ ____
ROOT
ATOM      1  C   UNL     1      44.509   6.583  11.036  0.00  0.00    +0.000 C 
ENDROOT
BRANCH   1   2
ATOM      2  C   UNL     1      44.467   5.114  10.666  0.00  0.00    +0.000 A 
ATOM      3  C   UNL     1      43.686   4.212  11.392  0.00  0.00    +0.000 A 
ATOM      4  C   UNL     1      43.658   2.875  11.021  0.00  0.00    +0.000 A 
ATOM      5  F   UNL     1      42.905   2.015  11.720  0.00  0.00    +0.000 F 
ATOM      6  C   UNL     1      44.389   2.409   9.930  0.00  0.00    +0.000 A 
ATOM      7  C   UNL     1      45.199   3.277   9.180  0.00  0.00    +0.000 A 
ATOM      8  C   UNL     1      45.225   4.629   9.580  0.00  0.00    +0.000 A 
BRANCH   7   9
ATOM      9  C   UNL     1      45.984   2.797   8.017  0.00  0.00    +0.000 A 
ATOM     10  C   UNL     1      46.240   3.607   6.900  0.00  0.00    +0.000 A 
ATOM     11  C   UNL     1      46.987   3.128   5.823  0.00  0.00    +0.000 A 
ATOM     12  C   UNL     1      47.459   1.831   5.877  0.00  0.00    +0.000 A 
ATOM     13  N   UNL     1      47.240   1.004   6.918  0.00  0.00    +0.000 NA
ATOM     14  C   UNL     1      46.519   1.506   7.953  0.00  0.00    +0.000 A 
ENDBRANCH   7   9
ENDBRANCH   1   2
BRANCH   1  15
ATOM     15  N   UNL     1      44.597   6.697  12.488  0.00  0.00    +0.000 N 
ATOM     16  H   UNL     1      44.120   5.929  12.952  0.00  0.00    +0.000 HD
BRANCH  15  20
ATOM     17  C   UNL     1      48.382   6.928  14.079  0.00  0.00    +0.000 A 
ATOM     18  C   UNL     1      47.680   8.079  13.762  0.00  0.00    +0.000 A 
ATOM     19  N   UNL     1      46.430   8.051  13.220  0.00  0.00    +0.000 NA
ATOM     20  C   UNL     1      45.897   6.831  12.995  0.00  0.00    +0.000 A 
ATOM     21  C   UNL     1      46.627   5.678  13.325  0.00  0.00    +0.000 A 
ATOM     22  N   UNL     1      47.876   5.684  13.861  0.00  0.00    +0.000 NA
BRANCH  17  24
ATOM     23  N   UNL     1      50.657   7.751  13.990  0.00  0.00    +0.000 N 
ATOM     24  C   UNL     1      49.733   7.027  14.695  0.00  0.00    +0.000 C 
ATOM     25  O   UNL     1      50.007   6.494  15.763  0.00  0.00    +0.000 OA
ATOM     26  H   UNL     1      51.598   7.842  14.347  0.00  0.00    +0.000 HD
ATOM     27  H   UNL     1      50.403   8.172  13.104  0.00  0.00    +0.000 HD
ENDBRANCH  17  24
ENDBRANCH  15  20
ENDBRANCH   1  15
TORSDOF 5
ENDMDL
MODEL 4
REMARK VINA RESULT:    -7.945      2.295      2.828
REMARK INTER + INTRA:         -10.956
REMARK INTER:                 -10.278
REMARK INTRA:                  -0.678
REMARK UNBOUND:                -0.688
REMARK  Name = 
REMARK  5 active torsions:
REMARK  status: ('A' for Active; 'I' for Inactive)
REMARK    1  A    between atoms: C_2  and  C_4
REMARK    2  A    between atoms: C_7  and  N_8
REMARK    3  A    between atoms: N_8  and  C_9
REMARK    4  A    between atoms: C_9  and  C_10
REMARK    5  A    between atoms: C_15  and  C_16
REMARK                            x       y       z     vdW  Elec       q    Type
REMARK                         _______ _______ _______ _____ _____    ______ ____
ROOT
ATOM      1  C   UNL     1      44.225   4.801  11.429  0.00  0.00    +0.000 C 
ENDROOT
BRANCH   1   2
ATOM      2  C   UNL     1      44.909   6.115  11.746  0.00  0.00    +0.000 A 
ATOM      3  C   UNL     1      44.342   7.332  11.359  0.00  0.00    +0.000 A 
ATOM      4  C   UNL     1      44.985   8.520  11.677  0.00  0.00    +0.000 A 
ATOM      5  F   UNL     1      44.435   9.684  11.305  0.00  0.00    +0.000 F 
ATOM      6  C   UNL     1      46.188   8.530  12.380  0.00  0.00    +0.000 A 
ATOM      7  C   UNL     1      46.802   7.330  12.776  0.00  0.00    +0.000 A 
ATOM      8  C   UNL     1      46.140   6.132  12.434  0.00  0.00    +0.000 A 
BRANCH   7   9
ATOM      9  C   UNL     1      48.081   7.322  13.525  0.00  0.00    +0.000 A 
ATOM     10  C   UNL     1      49.181   8.103  13.137  0.00  0.00    +0.000 A 
ATOM     11  C   UNL     1      50.371   8.078  13.866  0.00  0.00    +0.000 A 
ATOM     12  C   UNL     1      50.445   7.255  14.973  0.00  0.00    +0.000 A 
ATOM     13  N   UNL     1      49.426   6.479  15.390  0.00  0.00    +0.000 NA
ATOM     14  C   UNL     1      48.280   6.536  14.665  0.00  0.00    +0.000 A 
ENDBRANCH   7   9
ENDBRANCH   1   2
BRANCH   1  15
ATOM     15  N   UNL     1      43.885   4.781  10.009  0.00  0.00    +0.000 N 
ATOM     16  H   UNL     1      43.763   5.720   9.642  0.00  0.00    +0.000 HD
BRANCH  15  20
ATOM     17  C   UNL     1      46.500   2.532   7.770  0.00  0.00    +0.000 A 
ATOM     18  C   UNL     1      46.475   3.912   7.648  0.00  0.00    +0.000 A 
ATOM     19  N   UNL     1      45.616   4.695   8.358  0.00  0.00    +0.000 NA
ATOM     20  C   UNL     1      44.771   4.059   9.197  0.00  0.00    +0.000 A 
ATOM     21  C   UNL     1      44.815   2.660   9.304  0.00  0.00    +0.000 A 
ATOM     22  N   UNL     1      45.659   1.860   8.601  0.00  0.00    +0.000 NA
BRANCH  17  24
ATOM     23  N   UNL     1      48.465   2.451   6.358  0.00  0.00    +0.000 N 
ATOM     24  C   UNL     1      47.482   1.734   6.986  0.00  0.00    +0.000 C 
ATOM     25  O   UNL     1      47.417   0.514   6.902  0.00  0.00    +0.000 OA
ATOM     26  H   UNL     1      49.154   1.969   5.797  0.00  0.00    +0.000 HD
ATOM     27  H   UNL     1      48.487   3.461   6.439  0.00  0.00    +0.000 HD
ENDBRANCH  17  24
ENDBRANCH  15  20
ENDBRANCH   1  15
TORSDOF 5
ENDMDL
MODEL 5
REMARK VINA RESULT:    -7.631      3.864      7.127
REMARK INTER + INTRA:         -10.550
REMARK INTER:                 -10.242
REMARK INTRA:                  -0.308
REMARK UNBOUND:                -0.688
REMARK  Name = 
REMARK  5 active torsions:
REMARK  status: ('A' for Active; 'I' for Inactive)
REMARK    1  A    between atoms: C_2  and  C_4
REMARK    2  A    between atoms: C_7  and  N_8
REMARK    3  A    between atoms: N_8  and  C_9
REMARK    4  A    between atoms: C_9  and  C_10
REMARK    5  A    between atoms: C_15  and  C_16
REMARK                            x       y       z     vdW  Elec       q    Type
REMARK                         _______ _______ _______ _____ _____    ______ ____
ROOT
ATOM      1  C   UNL     1      46.303   7.282  12.224  0.00  0.00    +0.000 C 
ENDROOT
BRANCH   1   2
ATOM      2  C   UNL     1      45.386   6.312  11.506  0.00  0.00    +0.000 A 
ATOM      3  C   UNL     1      44.019   6.271  11.791  0.00  0.00    +0.000 A 
ATOM      4  C   UNL     1      43.203   5.381  11.107  0.00  0.00    +0.000 A 
ATOM      5  F   UNL     1      41.892   5.347  11.383  0.00  0.00    +0.000 F 
ATOM      6  C   UNL     1      43.715   4.527  10.133  0.00  0.00    +0.000 A 
ATOM      7  C   UNL     1      45.086   4.524   9.823  0.00  0.00    +0.000 A 
ATOM      8  C   UNL     1      45.902   5.426  10.537  0.00  0.00    +0.000 A 
BRANCH   7   9
ATOM      9  C   UNL     1      45.647   3.622   8.790  0.00  0.00    +0.000 A 
ATOM     10  C   UNL     1      45.629   2.225   8.925  0.00  0.00    +0.000 A 
ATOM     11  C   UNL     1      46.161   1.402   7.932  0.00  0.00    +0.000 A 
ATOM     12  C   UNL     1      46.718   1.995   6.816  0.00  0.00    +0.000 A 
ATOM     13  N   UNL     1      46.770   3.329   6.633  0.00  0.00    +0.000 NA
ATOM     14  C   UNL     1      46.234   4.100   7.614  0.00  0.00    +0.000 A 
ENDBRANCH   7   9
ENDBRANCH   1   2
BRANCH   1  15
ATOM     15  N   UNL     1      47.566   6.609  12.509  0.00  0.00    +0.000 N 
ATOM     16  H   UNL     1      48.351   7.253  12.463  0.00  0.00    +0.000 HD
BRANCH  15  20
ATOM     17  C   UNL     1      47.477   4.468  16.019  0.00  0.00    +0.000 A 
ATOM     18  C   UNL     1      48.259   5.606  15.907  0.00  0.00    +0.000 A 
ATOM     19  N   UNL     1      48.331   6.338  14.761  0.00  0.00    +0.000 NA
ATOM     20  C   UNL     1      47.599   5.896  13.716  0.00  0.00    +0.000 A 
ATOM     21  C   UNL     1      46.814   4.741  13.852  0.00  0.00    +0.000 A 
ATOM     22  N   UNL     1      46.732   3.993  14.985  0.00  0.00    +0.000 NA
BRANCH  17  24
ATOM     23  N   UNL     1      48.360   4.083  18.240  0.00  0.00    +0.000 N 
ATOM     24  C   UNL     1      47.420   3.729  17.309  0.00  0.00    +0.000 C 
ATOM     25  O   UNL     1      46.590   2.856  17.527  0.00  0.00    +0.000 OA
ATOM     26  H   UNL     1      48.384   3.606  19.131  0.00  0.00    +0.000 HD
ATOM     27  H   UNL     1      49.041   4.802  18.026  0.00  0.00    +0.000 HD
ENDBRANCH  17  24
ENDBRANCH  15  20
ENDBRANCH   1  15
TORSDOF 5
ENDMDL
MODEL 6
REMARK VINA RESULT:    -7.307      5.038      8.032
REMARK INTER + INTRA:         -10.131
REMARK INTER:                  -9.618
REMARK INTRA:                  -0.513
REMARK UNBOUND:                -0.688
REMARK  Name = 
REMARK  5 active torsions:
REMARK  status: ('A' for Active; 'I' for Inactive)
REMARK    1  A    between atoms: C_2  and  C_4
REMARK    2  A    between atoms: C_7  and  N_8
REMARK    3  A    between atoms: N_8  and  C_9
REMARK    4  A    between atoms: C_9  and  C_10
REMARK    5  A    between atoms: C_15  and  C_16
REMARK                            x       y       z     vdW  Elec       q    Type
REMARK                         _______ _______ _______ _____ _____    ______ ____
ROOT
ATOM      1  C   UNL     1      46.114   5.482  13.867  0.00  0.00    +0.000 C 
ENDROOT
BRANCH   1   2
ATOM      2  C   UNL     1      45.192   5.175  12.705  0.00  0.00    +0.000 A 
ATOM      3  C   UNL     1      43.841   5.529  12.747  0.00  0.00    +0.000 A 
ATOM      4  C   UNL     1      43.024   5.246  11.661  0.00  0.00    +0.000 A 
ATOM      5  F   UNL     1      41.730   5.591  11.707  0.00  0.00    +0.000 F 
ATOM      6  C   UNL     1      43.522   4.619  10.521  0.00  0.00    +0.000 A 
ATOM      7  C   UNL     1      44.870   4.232  10.441  0.00  0.00    +0.000 A 
ATOM      8  C   UNL     1      45.682   4.516  11.559  0.00  0.00    +0.000 A 
BRANCH   7   9
ATOM      9  C   UNL     1      45.416   3.564   9.236  0.00  0.00    +0.000 A 
ATOM     10  C   UNL     1      45.870   4.284   8.120  0.00  0.00    +0.000 A 
ATOM     11  C   UNL     1      46.383   3.626   7.002  0.00  0.00    +0.000 A 
ATOM     12  C   UNL     1      46.424   2.245   7.014  0.00  0.00    +0.000 A 
ATOM     13  N   UNL     1      45.997   1.500   8.052  0.00  0.00    +0.000 NA
ATOM     14  C   UNL     1      45.514   2.173   9.127  0.00  0.00    +0.000 A 
ENDBRANCH   7   9
ENDBRANCH   1   2
BRANCH   1  15
ATOM     15  N   UNL     1      46.651   4.227  14.384  0.00  0.00    +0.000 N 
ATOM     16  H   UNL     1      47.234   3.760  13.696  0.00  0.00    +0.000 HD
BRANCH  15  20
ATOM     17  C   UNL     1      48.502   4.463  18.048  0.00  0.00    +0.000 A 
ATOM     18  C   UNL     1      48.786   5.386  17.055  0.00  0.00    +0.000 A 
ATOM     19  N   UNL     1      48.208   5.338  15.822  0.00  0.00    +0.000 NA
ATOM     20  C   UNL     1      47.335   4.332  15.603  0.00  0.00    +0.000 A 
ATOM     21  C   UNL     1      47.063   3.409  16.624  0.00  0.00    +0.000 A 
ATOM     22  N   UNL     1      47.633   3.435  17.859  0.00  0.00    +0.000 NA
BRANCH  17  24
ATOM     23  N   UNL     1      48.628   3.791  20.370  0.00  0.00    +0.000 N 
ATOM     24  C   UNL     1      49.146   4.587  19.384  0.00  0.00    +0.000 C 
ATOM     25  O   UNL     1      50.077   5.353  19.594  0.00  0.00    +0.000 OA
ATOM     26  H   UNL     1      49.011   3.840  21.305  0.00  0.00    +0.000 HD
ATOM     27  H   UNL     1      47.850   3.174  20.169  0.00  0.00    +0.000 HD
ENDBRANCH  17  24
ENDBRANCH  15  20
ENDBRANCH   1  15
TORSDOF 5
ENDMDL
MODEL 7
REMARK VINA RESULT:    -6.856      5.451      7.876
REMARK INTER + INTRA:          -9.548
REMARK INTER:                  -8.865
REMARK INTRA:                  -0.683
REMARK UNBOUND:                -0.688
REMARK  Name = 
REMARK  5 active torsions:
REMARK  status: ('A' for Active; 'I' for Inactive)
REMARK    1  A    between atoms: C_2  and  C_4
REMARK    2  A    between atoms: C_7  and  N_8
REMARK    3  A    between atoms: N_8  and  C_9
REMARK    4  A    between atoms: C_9  and  C_10
REMARK    5  A    between atoms: C_15  and  C_16
REMARK                            x       y       z     vdW  Elec       q    Type
REMARK                         _______ _______ _______ _____ _____    ______ ____
ROOT
ATOM      1  C   UNL     1      48.677   6.582  15.841  0.00  0.00    +0.000 C 
ENDROOT
BRANCH   1   2
ATOM      2  C   UNL     1      48.235   6.617  14.393  0.00  0.00    +0.000 A 
ATOM      3  C   UNL     1      48.900   7.413  13.457  0.00  0.00    +0.000 A 
ATOM      4  C   UNL     1      48.480   7.413  12.134  0.00  0.00    +0.000 A 
ATOM      5  F   UNL     1      49.124   8.177  11.241  0.00  0.00    +0.000 F 
ATOM      6  C   UNL     1      47.408   6.630  11.713  0.00  0.00    +0.000 A 
ATOM      7  C   UNL     1      46.701   5.825  12.621  0.00  0.00    +0.000 A 
ATOM      8  C   UNL     1      47.134   5.847  13.963  0.00  0.00    +0.000 A 
BRANCH   7   9
ATOM      9  C   UNL     1      45.558   4.986  12.189  0.00  0.00    +0.000 A 
ATOM     10  C   UNL     1      45.068   5.007  10.874  0.00  0.00    +0.000 A 
ATOM     11  C   UNL     1      43.993   4.201  10.497  0.00  0.00    +0.000 A 
ATOM     12  C   UNL     1      43.414   3.389  11.453  0.00  0.00    +0.000 A 
ATOM     13  N   UNL     1      43.836   3.330  12.731  0.00  0.00    +0.000 NA
ATOM     14  C   UNL     1      44.890   4.119  13.061  0.00  0.00    +0.000 A 
ENDBRANCH   7   9
ENDBRANCH   1   2
BRANCH   1  15
ATOM     15  N   UNL     1      48.094   5.407  16.481  0.00  0.00    +0.000 N 
ATOM     16  H   UNL     1      47.329   5.025  15.932  0.00  0.00    +0.000 HD
BRANCH  15  20
ATOM     17  C   UNL     1      50.917   2.553  17.375  0.00  0.00    +0.000 A 
ATOM     18  C   UNL     1      49.674   2.185  16.886  0.00  0.00    +0.000 A 
ATOM     19  N   UNL     1      48.703   3.095  16.590  0.00  0.00    +0.000 NA
ATOM     20  C   UNL     1      49.007   4.393  16.803  0.00  0.00    +0.000 A 
ATOM     21  C   UNL     1      50.273   4.742  17.298  0.00  0.00    +0.000 A 
ATOM     22  N   UNL     1      51.253   3.850  17.605  0.00  0.00    +0.000 NA
BRANCH  17  24
ATOM     23  N   UNL     1      51.465   0.306  18.089  0.00  0.00    +0.000 N 
ATOM     24  C   UNL     1      51.944   1.512  17.652  0.00  0.00    +0.000 C 
ATOM     25  O   UNL     1      53.141   1.718  17.503  0.00  0.00    +0.000 OA
ATOM     26  H   UNL     1      52.114  -0.438  18.310  0.00  0.00    +0.000 HD
ATOM     27  H   UNL     1      50.469   0.169  18.212  0.00  0.00    +0.000 HD
ENDBRANCH  17  24
ENDBRANCH  15  20
ENDBRANCH   1  15
TORSDOF 5
ENDMDL
MODEL 8
REMARK VINA RESULT:    -6.768      2.171      2.980
REMARK INTER + INTRA:          -9.435
REMARK INTER:                  -8.744
REMARK INTRA:                  -0.691
REMARK UNBOUND:                -0.688
REMARK  Name = 
REMARK  5 active torsions:
REMARK  status: ('A' for Active; 'I' for Inactive)
REMARK    1  A    between atoms: C_2  and  C_4
REMARK    2  A    between atoms: C_7  and  N_8
REMARK    3  A    between atoms: N_8  and  C_9
REMARK    4  A    between atoms: C_9  and  C_10
REMARK    5  A    between atoms: C_15  and  C_16
REMARK                            x       y       z     vdW  Elec       q    Type
REMARK                         _______ _______ _______ _____ _____    ______ ____
ROOT
ATOM      1  C   UNL     1      45.222   5.168  12.156  0.00  0.00    +0.000 C 
ENDROOT
BRANCH   1   2
ATOM      2  C   UNL     1      45.698   6.607  12.155  0.00  0.00    +0.000 A 
ATOM      3  C   UNL     1      44.800   7.661  12.340  0.00  0.00    +0.000 A 
ATOM      4  C   UNL     1      45.268   8.967  12.347  0.00  0.00    +0.000 A 
ATOM      5  F   UNL     1      44.402   9.974  12.527  0.00  0.00    +0.000 F 
ATOM      6  C   UNL     1      46.621   9.255  12.180  0.00  0.00    +0.000 A 
ATOM      7  C   UNL     1      47.558   8.228  11.978  0.00  0.00    +0.000 A 
ATOM      8  C   UNL     1      47.062   6.908  11.960  0.00  0.00    +0.000 A 
BRANCH   7   9
ATOM      9  C   UNL     1      49.000   8.517  11.798  0.00  0.00    +0.000 A 
ATOM     10  C   UNL     1      49.911   7.541  11.363  0.00  0.00    +0.000 A 
ATOM     11  C   UNL     1      51.263   7.845  11.198  0.00  0.00    +0.000 A 
ATOM     12  C   UNL     1      51.687   9.129  11.485  0.00  0.00    +0.000 A 
ATOM     13  N   UNL     1      50.862  10.105  11.912  0.00  0.00    +0.000 NA
ATOM     14  C   UNL     1      49.552   9.777  12.051  0.00  0.00    +0.000 A 
ENDBRANCH   7   9
ENDBRANCH   1   2
BRANCH   1  15
ATOM     15  N   UNL     1      44.413   4.942  10.962  0.00  0.00    +0.000 N 
ATOM     16  H   UNL     1      43.995   5.805  10.627  0.00  0.00    +0.000 HD
BRANCH  15  20
ATOM     17  C   UNL     1      46.316   3.181   7.770  0.00  0.00    +0.000 A 
ATOM     18  C   UNL     1      45.652   2.408   8.709  0.00  0.00    +0.000 A 
ATOM     19  N   UNL     1      45.021   2.946   9.789  0.00  0.00    +0.000 NA
ATOM     20  C   UNL     1      45.075   4.289   9.913  0.00  0.00    +0.000 A 
ATOM     21  C   UNL     1      45.753   5.052   8.949  0.00  0.00    +0.000 A 
ATOM     22  N   UNL     1      46.394   4.535   7.868  0.00  0.00    +0.000 NA
BRANCH  17  24
ATOM     23  N   UNL     1      48.046   1.743   6.874  0.00  0.00    +0.000 N 
ATOM     24  C   UNL     1      46.962   2.533   6.597  0.00  0.00    +0.000 C 
ATOM     25  O   UNL     1      46.557   2.696   5.453  0.00  0.00    +0.000 OA
ATOM     26  H   UNL     1      48.539   1.288   6.118  0.00  0.00    +0.000 HD
ATOM     27  H   UNL     1      48.364   1.636   7.831  0.00  0.00    +0.000 HD
ENDBRANCH  17  24
ENDBRANCH  15  20
ENDBRANCH   1  15
TORSDOF 5
ENDMDL
MODEL 9
REMARK VINA RESULT:    -6.533      5.116      8.249
REMARK INTER + INTRA:          -9.131
REMARK INTER:                  -8.506
REMARK INTRA:                  -0.625
REMARK UNBOUND:                -0.688
REMARK  Name = 
REMARK  5 active torsions:
REMARK  status: ('A' for Active; 'I' for Inactive)
REMARK    1  A    between atoms: C_2  and  C_4
REMARK    2  A    between atoms: C_7  and  N_8
REMARK    3  A    between atoms: N_8  and  C_9
REMARK    4  A    between atoms: C_9  and  C_10
REMARK    5  A    between atoms: C_15  and  C_16
REMARK                            x       y       z     vdW  Elec       q    Type
REMARK                         _______ _______ _______ _____ _____    ______ ____
ROOT
ATOM      1  C   UNL     1      48.917   7.074  13.788  0.00  0.00    +0.000 C 
ENDROOT
BRANCH   1   2
ATOM      2  C   UNL     1      47.583   7.206  13.082  0.00  0.00    +0.000 A 
ATOM      3  C   UNL     1      46.800   8.354  13.234  0.00  0.00    +0.000 A 
ATOM      4  C   UNL     1      45.589   8.451  12.563  0.00  0.00    +0.000 A 
ATOM      5  F   UNL     1      44.844   9.555  12.711  0.00  0.00    +0.000 F 
ATOM      6  C   UNL     1      45.134   7.429  11.733  0.00  0.00    +0.000 A 
ATOM      7  C   UNL     1      45.881   6.252  11.562  0.00  0.00    +0.000 A 
ATOM      8  C   UNL     1      47.103   6.165  12.261  0.00  0.00    +0.000 A 
BRANCH   7   9
ATOM      9  C   UNL     1      45.411   5.155  10.682  0.00  0.00    +0.000 A 
ATOM     10  C   UNL     1      45.678   5.132   9.304  0.00  0.00    +0.000 A 
ATOM     11  C   UNL     1      45.226   4.082   8.504  0.00  0.00    +0.000 A 
ATOM     12  C   UNL     1      44.499   3.069   9.098  0.00  0.00    +0.000 A 
ATOM     13  N   UNL     1      44.207   3.039  10.413  0.00  0.00    +0.000 NA
ATOM     14  C   UNL     1      44.670   4.070  11.164  0.00  0.00    +0.000 A 
ENDBRANCH   7   9
ENDBRANCH   1   2
BRANCH   1  15
ATOM     15  N   UNL     1      48.822   7.721  15.093  0.00  0.00    +0.000 N 
ATOM     16  H   UNL     1      48.033   8.360  15.136  0.00  0.00    +0.000 HD
BRANCH  15  20
ATOM     17  C   UNL     1      48.843   5.275  18.400  0.00  0.00    +0.000 A 
ATOM     18  C   UNL     1      48.743   4.738  17.127  0.00  0.00    +0.000 A 
ATOM     19  N   UNL     1      48.717   5.509  16.004  0.00  0.00    +0.000 NA
ATOM     20  C   UNL     1      48.789   6.845  16.188  0.00  0.00    +0.000 A 
ATOM     21  C   UNL     1      48.891   7.367  17.487  0.00  0.00    +0.000 A 
ATOM     22  N   UNL     1      48.912   6.616  18.620  0.00  0.00    +0.000 NA
BRANCH  17  24
ATOM     23  N   UNL     1      48.394   3.116  19.397  0.00  0.00    +0.000 N 
ATOM     24  C   UNL     1      48.895   4.376  19.584  0.00  0.00    +0.000 C 
ATOM     25  O   UNL     1      49.352   4.737  20.661  0.00  0.00    +0.000 OA
ATOM     26  H   UNL     1      48.385   2.462  20.168  0.00  0.00    +0.000 HD
ATOM     27  H   UNL     1      48.013   2.850  18.496  0.00  0.00    +0.000 HD
ENDBRANCH  17  24
ENDBRANCH  15  20
ENDBRANCH   1  15
TORSDOF 5
ENDMDL
