MODEL 1
REMARK VINA RESULT:    -7.655      0.000      0.000
REMARK INTER + INTRA:          -9.660
REMARK INTER:                  -9.669
REMARK INTRA:                   0.009
REMARK UNBOUND:                 0.009
REMARK  Name = 
REMARK  5 active torsions:
REMARK  status: ('A' for Active; 'I' for Inactive)
REMARK    1  A    between atoms: N_1  and  C_2
REMARK    2  A    between atoms: C_4  and  N_5
REMARK    3  A    between atoms: C_4  and  C_16
REMARK    4  A    between atoms: N_5  and  C_6
REMARK    5  A    between atoms: C_9  and  C_10
REMARK                            x       y       z     vdW  Elec       q    Type
REMARK                         _______ _______ _______ _____ _____    ______ ____
ROOT
ATOM      1  C   UNL     1      42.307   5.305  12.218  0.00  0.00    +0.000 C 
ATOM      2  C   UNL     1      43.165   6.262  11.383  0.00  0.00    +0.000 C 
ATOM      3  C   UNL     1      44.166   5.101  11.041  0.00  0.00    +0.000 C 
ATOM      4  C   UNL     1      43.161   4.119  11.738  0.00  0.00    +0.000 C 
ENDROOT
BRANCH   3   5
ATOM      5  C   UNL     1      45.621   5.264  11.565  0.00  0.00    +0.000 C 
ATOM      6  C   UNL     1      45.778   4.863  13.039  0.00  0.00    +0.000 C 
ATOM      7  C   UNL     1      47.205   5.050  13.543  0.00  0.00    +0.000 C 
ATOM      8  C   UNL     1      47.652   6.493  13.361  0.00  0.00    +0.000 C 
ATOM      9  C   UNL     1      47.544   6.915  11.900  0.00  0.00    +0.000 C 
ATOM     10  C   UNL     1      46.136   6.704  11.344  0.00  0.00    +0.000 C 
ENDBRANCH   3   5
BRANCH   1  11
ATOM     11  N   UNL     1      42.513   5.553  13.644  0.00  0.00    +0.000 NA
ATOM     12  H   UNL     1      43.378   5.181  14.032  0.00  0.00    +0.000 HD
ATOM     13  H   UNL     1      41.759   5.286  14.272  0.00  0.00    +0.000 HD
ENDBRANCH   1  11
BRANCH   3  14
ATOM     14  N   UNL     1      44.153   4.870   9.598  0.00  0.00    +0.000 N 
ATOM     15  H   UNL     1      43.714   5.622   9.072  0.00  0.00    +0.000 HD
BRANCH  14  16
ATOM     16  C   UNL     1      45.079   4.138   8.815  0.00  0.00    +0.000 A 
ATOM     17  C   UNL     1      46.022   4.750   7.986  0.00  0.00    +0.000 A 
ATOM     18  C   UNL     1      46.882   3.985   7.189  0.00  0.00    +0.000 A 
ATOM     19  C   UNL     1      46.821   2.585   7.205  0.00  0.00    +0.000 A 
ATOM     20  C   UNL     1      45.892   1.968   8.056  0.00  0.00    +0.000 A 
ATOM     21  C   UNL     1      45.039   2.737   8.851  0.00  0.00    +0.000 A 
BRANCH  19  22
ATOM     22  C   UNL     1      47.727   1.744   6.341  0.00  0.00    +0.000 C 
ATOM     23  F   UNL     1      47.805   2.171   5.049  0.00  0.00    +0.000 F 
ATOM     24  F   UNL     1      49.009   1.711   6.799  0.00  0.00    +0.000 F 
ATOM     25  F   UNL     1      47.323   0.444   6.276  0.00  0.00    +0.000 F 
ENDBRANCH  19  22
ENDBRANCH  14  16
ENDBRANCH   3  14
TORSDOF 5
ENDMDL
MODEL 2
REMARK VINA RESULT:    -7.394      1.145      2.049
REMARK INTER + INTRA:          -9.330
REMARK INTER:                  -9.935
REMARK INTRA:                   0.605
REMARK UNBOUND:                 0.009
REMARK  Name = 
REMARK  5 active torsions:
REMARK  status: ('A' for Active; 'I' for Inactive)
REMARK    1  A    between atoms: N_1  and  C_2
REMARK    2  A    between atoms: C_4  and  N_5
REMARK    3  A    between atoms: C_4  and  C_16
REMARK    4  A    between atoms: N_5  and  C_6
REMARK    5  A    between atoms: C_9  and  C_10
REMARK                            x       y       z     vdW  Elec       q    Type
REMARK                         _______ _______ _______ _____ _____    ______ ____
ROOT
ATOM      1  C   UNL     1      42.789   4.458  12.545  0.00  0.00    +0.000 C 
ATOM      2  C   UNL     1      42.791   5.778  11.765  0.00  0.00    +0.000 C 
ATOM      3  C   UNL     1      44.326   5.624  11.466  0.00  0.00    +0.000 C 
ATOM      4  C   UNL     1      44.237   4.192  12.102  0.00  0.00    +0.000 C 
ENDROOT
BRANCH   3   5
ATOM      5  C   UNL     1      45.260   6.712  12.068  0.00  0.00    +0.000 C 
ATOM      6  C   UNL     1      44.945   8.125  11.556  0.00  0.00    +0.000 C 
ATOM      7  C   UNL     1      45.884   9.175  12.139  0.00  0.00    +0.000 C 
ATOM      8  C   UNL     1      47.333   8.833  11.823  0.00  0.00    +0.000 C 
ATOM      9  C   UNL     1      47.691   7.449  12.350  0.00  0.00    +0.000 C 
ATOM     10  C   UNL     1      46.746   6.371  11.820  0.00  0.00    +0.000 C 
ENDBRANCH   3   5
BRANCH   1  11
ATOM     11  N   UNL     1      42.723   4.720  13.982  0.00  0.00    +0.000 NA
ATOM     12  H   UNL     1      43.622   4.826  14.448  0.00  0.00    +0.000 HD
ATOM     13  H   UNL     1      42.165   4.080  14.542  0.00  0.00    +0.000 HD
ENDBRANCH   1  11
BRANCH   3  14
ATOM     14  N   UNL     1      44.521   5.507  10.023  0.00  0.00    +0.000 N 
ATOM     15  H   UNL     1      44.655   6.403   9.560  0.00  0.00    +0.000 HD
BRANCH  14  16
ATOM     16  C   UNL     1      45.094   4.436   9.295  0.00  0.00    +0.000 A 
ATOM     17  C   UNL     1      44.785   3.098   9.546  0.00  0.00    +0.000 A 
ATOM     18  C   UNL     1      45.416   2.068   8.837  0.00  0.00    +0.000 A 
ATOM     19  C   UNL     1      46.373   2.357   7.854  0.00  0.00    +0.000 A 
ATOM     20  C   UNL     1      46.667   3.701   7.582  0.00  0.00    +0.000 A 
ATOM     21  C   UNL     1      46.030   4.723   8.292  0.00  0.00    +0.000 A 
BRANCH  19  22
ATOM     22  C   UNL     1      47.077   1.262   7.091  0.00  0.00    +0.000 C 
ATOM     23  F   UNL     1      48.435   1.360   7.120  0.00  0.00    +0.000 F 
ATOM     24  F   UNL     1      46.784   0.019   7.565  0.00  0.00    +0.000 F 
ATOM     25  F   UNL     1      46.735   1.246   5.772  0.00  0.00    +0.000 F 
ENDBRANCH  19  22
ENDBRANCH  14  16
ENDBRANCH   3  14
TORSDOF 5
ENDMDL
MODEL 3
REMARK VINA RESULT:    -7.065      4.234      6.569
REMARK INTER + INTRA:          -8.915
REMARK INTER:                  -9.430
REMARK INTRA:                   0.515
REMARK UNBOUND:                 0.009
REMARK  Name = 
REMARK  5 active torsions:
REMARK  status: ('A' for Active; 'I' for Inactive)
REMARK    1  A    between atoms: N_1  and  C_2
REMARK    2  A    between atoms: C_4  and  N_5
REMARK    3  A    between atoms: C_4  and  C_16
REMARK    4  A    between atoms: N_5  and  C_6
REMARK    5  A    between atoms: C_9  and  C_10
REMARK                            x       y       z     vdW  Elec       q    Type
REMARK                         _______ _______ _______ _____ _____    ______ ____
ROOT
ATOM      1  C   UNL     1      43.659   3.587  12.503  0.00  0.00    +0.000 C 
ATOM      2  C   UNL     1      45.057   3.880  11.947  0.00  0.00    +0.000 C 
ATOM      3  C   UNL     1      44.436   4.431  10.614  0.00  0.00    +0.000 C 
ATOM      4  C   UNL     1      43.028   4.298  11.294  0.00  0.00    +0.000 C 
ENDROOT
BRANCH   3   5
ATOM      5  C   UNL     1      44.776   3.646   9.315  0.00  0.00    +0.000 C 
ATOM      6  C   UNL     1      45.313   2.234   9.590  0.00  0.00    +0.000 C 
ATOM      7  C   UNL     1      45.662   1.487   8.308  0.00  0.00    +0.000 C 
ATOM      8  C   UNL     1      46.684   2.268   7.493  0.00  0.00    +0.000 C 
ATOM      9  C   UNL     1      46.167   3.665   7.171  0.00  0.00    +0.000 C 
ATOM     10  C   UNL     1      45.766   4.434   8.430  0.00  0.00    +0.000 C 
ENDBRANCH   3   5
BRANCH   1  11
ATOM     11  N   UNL     1      43.389   2.151  12.463  0.00  0.00    +0.000 NA
ATOM     12  H   UNL     1      43.790   1.653  11.670  0.00  0.00    +0.000 HD
ATOM     13  H   UNL     1      42.418   1.862  12.543  0.00  0.00    +0.000 HD
ENDBRANCH   1  11
BRANCH   3  14
ATOM     14  N   UNL     1      44.780   5.845  10.476  0.00  0.00    +0.000 N 
ATOM     15  H   UNL     1      44.081   6.384   9.971  0.00  0.00    +0.000 HD
BRANCH  14  16
ATOM     16  C   UNL     1      45.554   6.651  11.345  0.00  0.00    +0.000 A 
ATOM     17  C   UNL     1      44.992   7.607  12.194  0.00  0.00    +0.000 A 
ATOM     18  C   UNL     1      45.800   8.419  12.999  0.00  0.00    +0.000 A 
ATOM     19  C   UNL     1      47.196   8.291  12.974  0.00  0.00    +0.000 A 
ATOM     20  C   UNL     1      47.762   7.314  12.142  0.00  0.00    +0.000 A 
ATOM     21  C   UNL     1      46.949   6.505  11.344  0.00  0.00    +0.000 A 
BRANCH  19  22
ATOM     22  C   UNL     1      48.085   9.168  13.820  0.00  0.00    +0.000 C 
ATOM     23  F   UNL     1      47.770   9.152  15.145  0.00  0.00    +0.000 F 
ATOM     24  F   UNL     1      49.398   8.813  13.746  0.00  0.00    +0.000 F 
ATOM     25  F   UNL     1      48.034  10.477  13.443  0.00  0.00    +0.000 F 
ENDBRANCH  19  22
ENDBRANCH  14  16
ENDBRANCH   3  14
TORSDOF 5
ENDMDL
MODEL 4
REMARK VINA RESULT:    -7.020      1.797      2.602
REMARK INTER + INTRA:          -8.859
REMARK INTER:                  -8.999
REMARK INTRA:                   0.140
REMARK UNBOUND:                 0.009
REMARK  Name = 
REMARK  5 active torsions:
REMARK  status: ('A' for Active; 'I' for Inactive)
REMARK    1  A    between atoms: N_1  and  C_2
REMARK    2  A    between atoms: C_4  and  N_5
REMARK    3  A    between atoms: C_4  and  C_16
REMARK    4  A    between atoms: N_5  and  C_6
REMARK    5  A    between atoms: C_9  and  C_10
REMARK                            x       y       z     vdW  Elec       q    Type
REMARK                         _______ _______ _______ _____ _____    ______ ____
ROOT
ATOM      1  C   UNL     1      45.957   4.103  13.511  0.00  0.00    +0.000 C 
ATOM      2  C   UNL     1      44.534   4.589  13.211  0.00  0.00    +0.000 C 
ATOM      3  C   UNL     1      45.072   5.537  12.080  0.00  0.00    +0.000 C 
ATOM      4  C   UNL     1      46.479   4.872  12.285  0.00  0.00    +0.000 C 
ENDROOT
BRANCH   3   5
ATOM      5  C   UNL     1      44.866   7.062  12.300  0.00  0.00    +0.000 C 
ATOM      6  C   UNL     1      44.305   7.778  11.063  0.00  0.00    +0.000 C 
ATOM      7  C   UNL     1      44.131   9.276  11.288  0.00  0.00    +0.000 C 
ATOM      8  C   UNL     1      45.453   9.915  11.688  0.00  0.00    +0.000 C 
ATOM      9  C   UNL     1      46.021   9.252  12.937  0.00  0.00    +0.000 C 
ATOM     10  C   UNL     1      46.173   7.741  12.765  0.00  0.00    +0.000 C 
ENDBRANCH   3   5
BRANCH   1  11
ATOM     11  N   UNL     1      46.447   4.703  14.751  0.00  0.00    +0.000 NA
ATOM     12  H   UNL     1      45.839   4.591  15.560  0.00  0.00    +0.000 HD
ATOM     13  H   UNL     1      46.724   5.681  14.712  0.00  0.00    +0.000 HD
ENDBRANCH   1  11
BRANCH   3  14
ATOM     14  N   UNL     1      44.514   5.113  10.798  0.00  0.00    +0.000 N 
ATOM     15  H   UNL     1      43.759   5.711  10.469  0.00  0.00    +0.000 HD
BRANCH  14  16
ATOM     16  C   UNL     1      45.160   4.432   9.738  0.00  0.00    +0.000 A 
ATOM     17  C   UNL     1      45.931   5.086   8.775  0.00  0.00    +0.000 A 
ATOM     18  C   UNL     1      46.508   4.378   7.714  0.00  0.00    +0.000 A 
ATOM     19  C   UNL     1      46.329   2.993   7.593  0.00  0.00    +0.000 A 
ATOM     20  C   UNL     1      45.576   2.330   8.574  0.00  0.00    +0.000 A 
ATOM     21  C   UNL     1      45.006   3.042   9.632  0.00  0.00    +0.000 A 
BRANCH  19  22
ATOM     22  C   UNL     1      46.928   2.215   6.448  0.00  0.00    +0.000 C 
ATOM     23  F   UNL     1      46.415   2.549   5.231  0.00  0.00    +0.000 F 
ATOM     24  F   UNL     1      48.275   2.386   6.343  0.00  0.00    +0.000 F 
ATOM     25  F   UNL     1      46.734   0.872   6.575  0.00  0.00    +0.000 F 
ENDBRANCH  19  22
ENDBRANCH  14  16
ENDBRANCH   3  14
TORSDOF 5
ENDMDL
MODEL 5
REMARK VINA RESULT:    -6.144      4.518      6.830
REMARK INTER + INTRA:          -7.751
REMARK INTER:                  -8.131
REMARK INTRA:                   0.380
REMARK UNBOUND:                 0.009
REMARK  Name = 
REMARK  5 active torsions:
REMARK  status: ('A' for Active; 'I' for Inactive)
REMARK    1  A    between atoms: N_1  and  C_2
REMARK    2  A    between atoms: C_4  and  N_5
REMARK    3  A    between atoms: C_4  and  C_16
REMARK    4  A    between atoms: N_5  and  C_6
REMARK    5  A    between atoms: C_9  and  C_10
REMARK                            x       y       z     vdW  Elec       q    Type
REMARK                         _______ _______ _______ _____ _____    ______ ____
ROOT
ATOM      1  C   UNL     1      43.218   6.152  12.395  0.00  0.00    +0.000 C 
ATOM      2  C   UNL     1      43.982   4.828  12.495  0.00  0.00    +0.000 C 
ATOM      3  C   UNL     1      44.895   5.237  11.284  0.00  0.00    +0.000 C 
ATOM      4  C   UNL     1      44.220   6.652  11.341  0.00  0.00    +0.000 C 
ENDROOT
BRANCH   3   5
ATOM      5  C   UNL     1      44.792   4.351  10.010  0.00  0.00    +0.000 C 
ATOM      6  C   UNL     1      44.931   2.851  10.309  0.00  0.00    +0.000 C 
ATOM      7  C   UNL     1      44.851   1.998   9.047  0.00  0.00    +0.000 C 
ATOM      8  C   UNL     1      45.920   2.417   8.048  0.00  0.00    +0.000 C 
ATOM      9  C   UNL     1      45.788   3.895   7.701  0.00  0.00    +0.000 C 
ATOM     10  C   UNL     1      45.823   4.783   8.945  0.00  0.00    +0.000 C 
ENDBRANCH   3   5
BRANCH   1  11
ATOM     11  N   UNL     1      41.901   5.933  11.799  0.00  0.00    +0.000 NA
ATOM     12  H   UNL     1      41.304   6.756  11.743  0.00  0.00    +0.000 HD
ATOM     13  H   UNL     1      41.340   5.178  12.186  0.00  0.00    +0.000 HD
ENDBRANCH   1  11
BRANCH   3  14
ATOM     14  N   UNL     1      46.279   5.336  11.742  0.00  0.00    +0.000 N 
ATOM     15  H   UNL     1      46.824   6.027  11.232  0.00  0.00    +0.000 HD
BRANCH  14  16
ATOM     16  C   UNL     1      46.798   5.093  13.037  0.00  0.00    +0.000 A 
ATOM     17  C   UNL     1      46.713   3.849  13.666  0.00  0.00    +0.000 A 
ATOM     18  C   UNL     1      47.193   3.668  14.969  0.00  0.00    +0.000 A 
ATOM     19  C   UNL     1      47.775   4.730  15.673  0.00  0.00    +0.000 A 
ATOM     20  C   UNL     1      47.886   5.974  15.034  0.00  0.00    +0.000 A 
ATOM     21  C   UNL     1      47.407   6.147  13.732  0.00  0.00    +0.000 A 
BRANCH  19  22
ATOM     22  C   UNL     1      48.283   4.560  17.084  0.00  0.00    +0.000 C 
ATOM     23  F   UNL     1      49.626   4.345  17.161  0.00  0.00    +0.000 F 
ATOM     24  F   UNL     1      48.035   5.647  17.867  0.00  0.00    +0.000 F 
ATOM     25  F   UNL     1      47.701   3.504  17.721  0.00  0.00    +0.000 F 
ENDBRANCH  19  22
ENDBRANCH  14  16
ENDBRANCH   3  14
TORSDOF 5
ENDMDL
MODEL 6
REMARK VINA RESULT:    -5.977      4.631      7.007
REMARK INTER + INTRA:          -7.541
REMARK INTER:                  -8.100
REMARK INTRA:                   0.559
REMARK UNBOUND:                 0.009
REMARK  Name = 
REMARK  5 active torsions:
REMARK  status: ('A' for Active; 'I' for Inactive)
REMARK    1  A    between atoms: N_1  and  C_2
REMARK    2  A    between atoms: C_4  and  N_5
REMARK    3  A    between atoms: C_4  and  C_16
REMARK    4  A    between atoms: N_5  and  C_6
REMARK    5  A    between atoms: C_9  and  C_10
REMARK                            x       y       z     vdW  Elec       q    Type
REMARK                         _______ _______ _______ _____ _____    ______ ____
ROOT
ATOM      1  C   UNL     1      43.501   5.525  12.740  0.00  0.00    +0.000 C 
ATOM      2  C   UNL     1      44.795   4.750  12.468  0.00  0.00    +0.000 C 
ATOM      3  C   UNL     1      44.896   5.379  11.032  0.00  0.00    +0.000 C 
ATOM      4  C   UNL     1      43.685   6.297  11.423  0.00  0.00    +0.000 C 
ENDROOT
BRANCH   3   5
ATOM      5  C   UNL     1      44.800   4.391   9.836  0.00  0.00    +0.000 C 
ATOM      6  C   UNL     1      44.882   2.918  10.264  0.00  0.00    +0.000 C 
ATOM      7  C   UNL     1      44.809   1.964   9.077  0.00  0.00    +0.000 C 
ATOM      8  C   UNL     1      45.918   2.263   8.080  0.00  0.00    +0.000 C 
ATOM      9  C   UNL     1      45.845   3.709   7.605  0.00  0.00    +0.000 C 
ATOM     10  C   UNL     1      45.874   4.698   8.770  0.00  0.00    +0.000 C 
ENDBRANCH   3   5
BRANCH   1  11
ATOM     11  N   UNL     1      42.348   4.629  12.664  0.00  0.00    +0.000 NA
ATOM     12  H   UNL     1      41.439   5.087  12.658  0.00  0.00    +0.000 HD
ATOM     13  H   UNL     1      42.304   3.876  13.345  0.00  0.00    +0.000 HD
ENDBRANCH   1  11
BRANCH   3  14
ATOM     14  N   UNL     1      46.113   6.184  10.950  0.00  0.00    +0.000 N 
ATOM     15  H   UNL     1      46.232   6.645  10.051  0.00  0.00    +0.000 HD
BRANCH  14  16
ATOM     16  C   UNL     1      46.796   6.857  11.992  0.00  0.00    +0.000 A 
ATOM     17  C   UNL     1      47.817   6.262  12.736  0.00  0.00    +0.000 A 
ATOM     18  C   UNL     1      48.430   6.947  13.792  0.00  0.00    +0.000 A 
ATOM     19  C   UNL     1      48.035   8.250  14.127  0.00  0.00    +0.000 A 
ATOM     20  C   UNL     1      47.028   8.859  13.364  0.00  0.00    +0.000 A 
ATOM     21  C   UNL     1      46.423   8.171  12.310  0.00  0.00    +0.000 A 
BRANCH  19  22
ATOM     22  C   UNL     1      48.671   8.998  15.273  0.00  0.00    +0.000 C 
ATOM     23  F   UNL     1      48.052   8.797  16.470  0.00  0.00    +0.000 F 
ATOM     24  F   UNL     1      49.975   8.655  15.466  0.00  0.00    +0.000 F 
ATOM     25  F   UNL     1      48.668  10.347  15.077  0.00  0.00    +0.000 F 
ENDBRANCH  19  22
ENDBRANCH  14  16
ENDBRANCH   3  14
TORSDOF 5
ENDMDL
MODEL 7
REMARK VINA RESULT:    -5.969      3.580      5.556
REMARK INTER + INTRA:          -7.531
REMARK INTER:                  -7.549
REMARK INTRA:                   0.018
REMARK UNBOUND:                 0.009
REMARK  Name = 
REMARK  5 active torsions:
REMARK  status: ('A' for Active; 'I' for Inactive)
REMARK    1  A    between atoms: N_1  and  C_2
REMARK    2  A    between atoms: C_4  and  N_5
REMARK    3  A    between atoms: C_4  and  C_16
REMARK    4  A    between atoms: N_5  and  C_6
REMARK    5  A    between atoms: C_9  and  C_10
REMARK                            x       y       z     vdW  Elec       q    Type
REMARK                         _______ _______ _______ _____ _____    ______ ____
ROOT
ATOM      1  C   UNL     1      49.412   7.019  14.176  0.00  0.00    +0.000 C 
ATOM      2  C   UNL     1      48.290   7.887  14.757  0.00  0.00    +0.000 C 
ATOM      3  C   UNL     1      47.653   8.057  13.332  0.00  0.00    +0.000 C 
ATOM      4  C   UNL     1      48.700   7.010  12.813  0.00  0.00    +0.000 C 
ENDROOT
BRANCH   3   5
ATOM      5  C   UNL     1      47.613   9.503  12.759  0.00  0.00    +0.000 C 
ATOM      6  C   UNL     1      46.211   9.927  12.296  0.00  0.00    +0.000 C 
ATOM      7  C   UNL     1      46.194  11.338  11.718  0.00  0.00    +0.000 C 
ATOM      8  C   UNL     1      47.169  11.451  10.554  0.00  0.00    +0.000 C 
ATOM      9  C   UNL     1      48.579  11.072  10.989  0.00  0.00    +0.000 C 
ATOM     10  C   UNL     1      48.632   9.678  11.613  0.00  0.00    +0.000 C 
ENDBRANCH   3   5
BRANCH   1  11
ATOM     11  N   UNL     1      50.658   7.780  14.110  0.00  0.00    +0.000 NA
ATOM     12  H   UNL     1      50.898   8.300  14.952  0.00  0.00    +0.000 HD
ATOM     13  H   UNL     1      50.772   8.411  13.321  0.00  0.00    +0.000 HD
ENDBRANCH   1  11
BRANCH   3  14
ATOM     14  N   UNL     1      46.321   7.457  13.331  0.00  0.00    +0.000 N 
ATOM     15  H   UNL     1      45.579   8.120  13.542  0.00  0.00    +0.000 HD
BRANCH  14  16
ATOM     16  C   UNL     1      45.853   6.351  12.580  0.00  0.00    +0.000 A 
ATOM     17  C   UNL     1      45.637   5.091  13.140  0.00  0.00    +0.000 A 
ATOM     18  C   UNL     1      45.225   4.012  12.349  0.00  0.00    +0.000 A 
ATOM     19  C   UNL     1      45.015   4.172  10.972  0.00  0.00    +0.000 A 
ATOM     20  C   UNL     1      45.207   5.443  10.410  0.00  0.00    +0.000 A 
ATOM     21  C   UNL     1      45.615   6.516  11.208  0.00  0.00    +0.000 A 
BRANCH  19  22
ATOM     22  C   UNL     1      44.588   3.019  10.098  0.00  0.00    +0.000 C 
ATOM     23  F   UNL     1      45.605   2.175   9.766  0.00  0.00    +0.000 F 
ATOM     24  F   UNL     1      43.636   2.240  10.684  0.00  0.00    +0.000 F 
ATOM     25  F   UNL     1      44.051   3.434   8.916  0.00  0.00    +0.000 F 
ENDBRANCH  19  22
ENDBRANCH  14  16
ENDBRANCH   3  14
TORSDOF 5
ENDMDL
MODEL 8
REMARK VINA RESULT:    -5.790      3.323      5.224
REMARK INTER + INTRA:          -7.305
REMARK INTER:                  -7.669
REMARK INTRA:                   0.364
REMARK UNBOUND:                 0.009
REMARK  Name = 
REMARK  5 active torsions:
REMARK  status: ('A' for Active; 'I' for Inactive)
REMARK    1  A    between atoms: N_1  and  C_2
REMARK    2  A    between atoms: C_4  and  N_5
REMARK    3  A    between atoms: C_4  and  C_16
REMARK    4  A    between atoms: N_5  and  C_6
REMARK    5  A    between atoms: C_9  and  C_10
REMARK                            x       y       z     vdW  Elec       q    Type
REMARK                         _______ _______ _______ _____ _____    ______ ____
ROOT
ATOM      1  C   UNL     1      49.097   7.721  13.123  0.00  0.00    +0.000 C 
ATOM      2  C   UNL     1      48.717   6.250  12.920  0.00  0.00    +0.000 C 
ATOM      3  C   UNL     1      47.791   6.291  14.188  0.00  0.00    +0.000 C 
ATOM      4  C   UNL     1      48.052   7.838  14.245  0.00  0.00    +0.000 C 
ENDROOT
BRANCH   3   5
ATOM      5  C   UNL     1      48.195   5.366  15.370  0.00  0.00    +0.000 C 
ATOM      6  C   UNL     1      47.093   4.369  15.757  0.00  0.00    +0.000 C 
ATOM      7  C   UNL     1      47.497   3.485  16.932  0.00  0.00    +0.000 C 
ATOM      8  C   UNL     1      47.860   4.334  18.142  0.00  0.00    +0.000 C 
ATOM      9  C   UNL     1      48.978   5.312  17.803  0.00  0.00    +0.000 C 
ATOM     10  C   UNL     1      48.628   6.190  16.602  0.00  0.00    +0.000 C 
ENDBRANCH   3   5
BRANCH   1  11
ATOM     11  N   UNL     1      50.452   7.825  13.660  0.00  0.00    +0.000 NA
ATOM     12  H   UNL     1      51.186   7.975  12.969  0.00  0.00    +0.000 HD
ATOM     13  H   UNL     1      50.764   7.077  14.275  0.00  0.00    +0.000 HD
ENDBRANCH   1  11
BRANCH   3  14
ATOM     14  N   UNL     1      46.410   6.043  13.778  0.00  0.00    +0.000 N 
ATOM     15  H   UNL     1      45.753   6.735  14.132  0.00  0.00    +0.000 HD
BRANCH  14  16
ATOM     16  C   UNL     1      45.941   5.411  12.601  0.00  0.00    +0.000 A 
ATOM     17  C   UNL     1      45.463   4.099  12.584  0.00  0.00    +0.000 A 
ATOM     18  C   UNL     1      45.058   3.496  11.387  0.00  0.00    +0.000 A 
ATOM     19  C   UNL     1      45.120   4.196  10.175  0.00  0.00    +0.000 A 
ATOM     20  C   UNL     1      45.574   5.524  10.193  0.00  0.00    +0.000 A 
ATOM     21  C   UNL     1      45.974   6.120  11.392  0.00  0.00    +0.000 A 
BRANCH  19  22
ATOM     22  C   UNL     1      44.705   3.559   8.872  0.00  0.00    +0.000 C 
ATOM     23  F   UNL     1      44.102   2.347   9.022  0.00  0.00    +0.000 F 
ATOM     24  F   UNL     1      43.826   4.326   8.168  0.00  0.00    +0.000 F 
ATOM     25  F   UNL     1      45.762   3.347   8.038  0.00  0.00    +0.000 F 
ENDBRANCH  19  22
ENDBRANCH  14  16
ENDBRANCH   3  14
TORSDOF 5
ENDMDL
MODEL 9
REMARK VINA RESULT:    -5.634      3.661      5.789
REMARK INTER + INTRA:          -7.107
REMARK INTER:                  -7.184
REMARK INTRA:                   0.077
REMARK UNBOUND:                 0.009
REMARK  Name = 
REMARK  5 active torsions:
REMARK  status: ('A' for Active; 'I' for Inactive)
REMARK    1  A    between atoms: N_1  and  C_2
REMARK    2  A    between atoms: C_4  and  N_5
REMARK    3  A    between atoms: C_4  and  C_16
REMARK    4  A    between atoms: N_5  and  C_6
REMARK    5  A    between atoms: C_9  and  C_10
REMARK                            x       y       z     vdW  Elec       q    Type
REMARK                         _______ _______ _______ _____ _____    ______ ____
ROOT
ATOM      1  C   UNL     1      49.309   8.235  11.746  0.00  0.00    +0.000 C 
ATOM      2  C   UNL     1      49.010   6.952  12.529  0.00  0.00    +0.000 C 
ATOM      3  C   UNL     1      48.252   7.775  13.631  0.00  0.00    +0.000 C 
ATOM      4  C   UNL     1      48.409   9.032  12.705  0.00  0.00    +0.000 C 
ENDROOT
BRANCH   3   5
ATOM      5  C   UNL     1      48.868   7.749  15.059  0.00  0.00    +0.000 C 
ATOM      6  C   UNL     1      48.680   6.401  15.770  0.00  0.00    +0.000 C 
ATOM      7  C   UNL     1      49.269   6.401  17.177  0.00  0.00    +0.000 C 
ATOM      8  C   UNL     1      48.650   7.508  18.018  0.00  0.00    +0.000 C 
ATOM      9  C   UNL     1      48.850   8.867  17.358  0.00  0.00    +0.000 C 
ATOM     10  C   UNL     1      48.308   8.896  15.929  0.00  0.00    +0.000 C 
ENDBRANCH   3   5
BRANCH   1  11
ATOM     11  N   UNL     1      50.711   8.614  11.910  0.00  0.00    +0.000 NA
ATOM     12  H   UNL     1      50.980   9.495  11.475  0.00  0.00    +0.000 HD
ATOM     13  H   UNL     1      51.410   7.923  11.649  0.00  0.00    +0.000 HD
ENDBRANCH   1  11
BRANCH   3  14
ATOM     14  N   UNL     1      46.852   7.359  13.658  0.00  0.00    +0.000 N 
ATOM     15  H   UNL     1      46.210   8.117  13.877  0.00  0.00    +0.000 HD
BRANCH  14  16
ATOM     16  C   UNL     1      46.227   6.322  12.923  0.00  0.00    +0.000 A 
ATOM     17  C   UNL     1      46.134   5.011  13.392  0.00  0.00    +0.000 A 
ATOM     18  C   UNL     1      45.554   4.006  12.608  0.00  0.00    +0.000 A 
ATOM     19  C   UNL     1      45.048   4.293  11.333  0.00  0.00    +0.000 A 
ATOM     20  C   UNL     1      45.117   5.616  10.870  0.00  0.00    +0.000 A 
ATOM     21  C   UNL     1      45.694   6.613  11.659  0.00  0.00    +0.000 A 
BRANCH  19  22
ATOM     22  C   UNL     1      44.435   3.221  10.466  0.00  0.00    +0.000 C 
ATOM     23  F   UNL     1      45.333   2.305  10.008  0.00  0.00    +0.000 F 
ATOM     24  F   UNL     1      43.473   2.507  11.114  0.00  0.00    +0.000 F 
ATOM     25  F   UNL     1      43.831   3.734   9.356  0.00  0.00    +0.000 F 
ENDBRANCH  19  22
ENDBRANCH  14  16
ENDBRANCH   3  14
TORSDOF 5
ENDMDL
