MODEL 1
REMARK VINA RESULT:    -8.414      0.000      0.000
REMARK INTER + INTRA:         -11.277
REMARK INTER:                 -10.874
REMARK INTRA:                  -0.404
REMARK UNBOUND:                -0.404
REMARK  Name = 
REMARK  7 active torsions:
REMARK  status: ('A' for Active; 'I' for Inactive)
REMARK    1  A    between atoms: C_1  and  C_2
REMARK    2  A    between atoms: C_2  and  N_3
REMARK    3  A    between atoms: C_2  and  C_17
REMARK    4  A    between atoms: C_4  and  C_6
REMARK    5  A    between atoms: N_12  and  C_13
REMARK    6  A    between atoms: C_20  and  O_21
REMARK    7  A    between atoms: O_21  and  C_22
REMARK                            x       y       z     vdW  Elec       q    Type
REMARK                         _______ _______ _______ _____ _____    ______ ____
ROOT
ATOM      1  C   UNL     1      46.070   7.775  12.544  0.00  0.00    +0.000 C 
ATOM      2  C   UNL     1      45.288   6.500  12.866  0.00  0.00    +0.000 C 
ENDROOT
BRANCH   2   3
ATOM      3  C   UNL     1      45.141   5.534  11.699  0.00  0.00    +0.000 A 
ATOM      4  C   UNL     1      45.765   5.855  10.482  0.00  0.00    +0.000 A 
ATOM      5  C   UNL     1      45.606   5.046   9.353  0.00  0.00    +0.000 A 
ATOM      6  C   UNL     1      44.868   3.866   9.436  0.00  0.00    +0.000 A 
ATOM      7  C   UNL     1      44.198   3.561  10.621  0.00  0.00    +0.000 A 
ATOM      8  C   UNL     1      44.325   4.392  11.741  0.00  0.00    +0.000 A 
BRANCH   6   9
ATOM      9  O   UNL     1      44.682   2.990   8.389  0.00  0.00    +0.000 OA
BRANCH   9  10
ATOM     10  C   UNL     1      45.769   2.541   7.669  0.00  0.00    +0.000 A 
ATOM     11  C   UNL     1      46.356   3.233   6.613  0.00  0.00    +0.000 A 
ATOM     12  C   UNL     1      47.417   2.640   5.953  0.00  0.00    +0.000 A 
ATOM     13  N   UNL     1      47.955   1.454   6.312  0.00  0.00    +0.000 NA
ATOM     14  C   UNL     1      47.410   0.840   7.384  0.00  0.00    +0.000 A 
ATOM     15  C   UNL     1      46.327   1.338   8.089  0.00  0.00    +0.000 A 
ENDBRANCH   9  10
ENDBRANCH   6   9
ENDBRANCH   2   3
BRANCH   2  16
ATOM     16  N   UNL     1      45.899   5.795  13.975  0.00  0.00    +0.000 N 
ATOM     17  C   UNL     1      47.246   5.568  14.075  0.00  0.00    +0.000 C 
ATOM     18  O   UNL     1      48.036   5.900  13.195  0.00  0.00    +0.000 OA
ATOM     19  H   UNL     1      45.309   5.638  14.786  0.00  0.00    +0.000 HD
BRANCH  17  20
ATOM     20  C   UNL     1      47.696   4.857  15.280  0.00  0.00    +0.000 A 
ATOM     21  C   UNL     1      47.443   3.499  15.416  0.00  0.00    +0.000 A 
ATOM     22  S   UNL     1      48.020   2.841  16.880  0.00  0.00    +0.000 S 
ATOM     23  C   UNL     1      48.665   4.341  17.365  0.00  0.00    +0.000 A 
ATOM     24  N   UNL     1      49.333   4.467  18.539  0.00  0.00    +0.000 NA
ATOM     25  C   UNL     1      49.793   5.654  18.770  0.00  0.00    +0.000 A 
ATOM     26  N   UNL     1      49.642   6.743  17.944  0.00  0.00    +0.000 N 
ATOM     27  C   UNL     1      50.178   8.040  18.306  0.00  0.00    +0.000 C 
ATOM     28  C   UNL     1      48.934   6.658  16.748  0.00  0.00    +0.000 A 
ATOM     29  O   UNL     1      48.734   7.631  16.030  0.00  0.00    +0.000 OA
ATOM     30  C   UNL     1      48.422   5.333  16.437  0.00  0.00    +0.000 A 
ENDBRANCH  17  20
ENDBRANCH   2  16
TORSDOF 5
ENDMDL
MODEL 2
REMARK VINA RESULT:    -7.554      2.108      3.322
REMARK INTER + INTRA:         -10.165
REMARK INTER:                  -8.851
REMARK INTRA:                  -1.314
REMARK UNBOUND:                -0.404
REMARK  Name = 
REMARK  7 active torsions:
REMARK  status: ('A' for Active; 'I' for Inactive)
REMARK    1  A    between atoms: C_1  and  C_2
REMARK    2  A    between atoms: C_2  and  N_3
REMARK    3  A    between atoms: C_2  and  C_17
REMARK    4  A    between atoms: C_4  and  C_6
REMARK    5  A    between atoms: N_12  and  C_13
REMARK    6  A    between atoms: C_20  and  O_21
REMARK    7  A    between atoms: O_21  and  C_22
REMARK                            x       y       z     vdW  Elec       q    Type
REMARK                         _______ _______ _______ _____ _____    ______ ____
ROOT
ATOM      1  C   UNL     1      48.419   9.237  12.781  0.00  0.00    +0.000 C 
ATOM      2  C   UNL     1      47.681   8.191  13.619  0.00  0.00    +0.000 C 
ENDROOT
BRANCH   2   3
ATOM      3  C   UNL     1      46.787   7.254  12.818  0.00  0.00    +0.000 A 
ATOM      4  C   UNL     1      45.784   7.813  12.009  0.00  0.00    +0.000 A 
ATOM      5  C   UNL     1      44.886   7.004  11.309  0.00  0.00    +0.000 A 
ATOM      6  C   UNL     1      45.011   5.617  11.356  0.00  0.00    +0.000 A 
ATOM      7  C   UNL     1      45.967   5.044  12.195  0.00  0.00    +0.000 A 
ATOM      8  C   UNL     1      46.842   5.855  12.928  0.00  0.00    +0.000 A 
BRANCH   6   9
ATOM      9  O   UNL     1      44.195   4.739  10.675  0.00  0.00    +0.000 OA
BRANCH   9  10
ATOM     10  C   UNL     1      44.739   3.872   9.750  0.00  0.00    +0.000 A 
ATOM     11  C   UNL     1      44.597   2.488   9.788  0.00  0.00    +0.000 A 
ATOM     12  C   UNL     1      45.235   1.739   8.816  0.00  0.00    +0.000 A 
ATOM     13  N   UNL     1      45.939   2.277   7.797  0.00  0.00    +0.000 NA
ATOM     14  C   UNL     1      46.000   3.625   7.746  0.00  0.00    +0.000 A 
ATOM     15  C   UNL     1      45.423   4.458   8.690  0.00  0.00    +0.000 A 
ENDBRANCH   9  10
ENDBRANCH   6   9
ENDBRANCH   2   3
BRANCH   2  16
ATOM     16  N   UNL     1      48.621   7.394  14.381  0.00  0.00    +0.000 N 
ATOM     17  C   UNL     1      49.117   7.770  15.601  0.00  0.00    +0.000 C 
ATOM     18  O   UNL     1      48.841   8.850  16.116  0.00  0.00    +0.000 OA
ATOM     19  H   UNL     1      48.757   6.438  14.064  0.00  0.00    +0.000 HD
BRANCH  17  20
ATOM     20  C   UNL     1      50.043   6.827  16.243  0.00  0.00    +0.000 A 
ATOM     21  C   UNL     1      51.371   7.182  16.431  0.00  0.00    +0.000 A 
ATOM     22  S   UNL     1      52.303   5.964  17.176  0.00  0.00    +0.000 S 
ATOM     23  C   UNL     1      50.953   4.935  17.312  0.00  0.00    +0.000 A 
ATOM     24  N   UNL     1      51.060   3.716  17.898  0.00  0.00    +0.000 NA
ATOM     25  C   UNL     1      49.952   3.051  17.959  0.00  0.00    +0.000 A 
ATOM     26  N   UNL     1      48.737   3.479  17.477  0.00  0.00    +0.000 N 
ATOM     27  C   UNL     1      47.556   2.644  17.574  0.00  0.00    +0.000 C 
ATOM     28  C   UNL     1      48.598   4.708  16.840  0.00  0.00    +0.000 A 
ATOM     29  O   UNL     1      47.539   5.079  16.349  0.00  0.00    +0.000 OA
ATOM     30  C   UNL     1      49.815   5.501  16.774  0.00  0.00    +0.000 A 
ENDBRANCH  17  20
ENDBRANCH   2  16
TORSDOF 5
ENDMDL
MODEL 3
REMARK VINA RESULT:    -7.480      2.318      3.638
REMARK INTER + INTRA:         -10.070
REMARK INTER:                  -9.001
REMARK INTRA:                  -1.069
REMARK UNBOUND:                -0.404
REMARK  Name = 
REMARK  7 active torsions:
REMARK  status: ('A' for Active; 'I' for Inactive)
REMARK    1  A    between atoms: C_1  and  C_2
REMARK    2  A    between atoms: C_2  and  N_3
REMARK    3  A    between atoms: C_2  and  C_17
REMARK    4  A    between atoms: C_4  and  C_6
REMARK    5  A    between atoms: N_12  and  C_13
REMARK    6  A    between atoms: C_20  and  O_21
REMARK    7  A    between atoms: O_21  and  C_22
REMARK                            x       y       z     vdW  Elec       q    Type
REMARK                         _______ _______ _______ _____ _____    ______ ____
ROOT
ATOM      1  C   UNL     1      49.805   7.790  13.437  0.00  0.00    +0.000 C 
ATOM      2  C   UNL     1      48.369   7.981  13.929  0.00  0.00    +0.000 C 
ENDROOT
BRANCH   2   3
ATOM      3  C   UNL     1      47.320   7.215  13.134  0.00  0.00    +0.000 A 
ATOM      4  C   UNL     1      46.453   7.938  12.298  0.00  0.00    +0.000 A 
ATOM      5  C   UNL     1      45.423   7.302  11.601  0.00  0.00    +0.000 A 
ATOM      6  C   UNL     1      45.277   5.917  11.679  0.00  0.00    +0.000 A 
ATOM      7  C   UNL     1      46.096   5.191  12.545  0.00  0.00    +0.000 A 
ATOM      8  C   UNL     1      47.103   5.835  13.274  0.00  0.00    +0.000 A 
BRANCH   6   9
ATOM      9  O   UNL     1      44.315   5.197  11.004  0.00  0.00    +0.000 OA
BRANCH   9  10
ATOM     10  C   UNL     1      44.692   4.243  10.083  0.00  0.00    +0.000 A 
ATOM     11  C   UNL     1      44.353   2.895  10.161  0.00  0.00    +0.000 A 
ATOM     12  C   UNL     1      44.838   2.043   9.185  0.00  0.00    +0.000 A 
ATOM     13  N   UNL     1      45.571   2.453   8.128  0.00  0.00    +0.000 NA
ATOM     14  C   UNL     1      45.823   3.776   8.041  0.00  0.00    +0.000 A 
ATOM     15  C   UNL     1      45.410   4.702   8.984  0.00  0.00    +0.000 A 
ENDBRANCH   9  10
ENDBRANCH   6   9
ENDBRANCH   2   3
BRANCH   2  16
ATOM     16  N   UNL     1      48.256   7.607  15.324  0.00  0.00    +0.000 N 
ATOM     17  C   UNL     1      48.665   8.408  16.357  0.00  0.00    +0.000 C 
ATOM     18  O   UNL     1      49.216   9.490  16.170  0.00  0.00    +0.000 OA
ATOM     19  H   UNL     1      47.677   6.797  15.525  0.00  0.00    +0.000 HD
BRANCH  17  20
ATOM     20  C   UNL     1      48.452   7.879  17.711  0.00  0.00    +0.000 A 
ATOM     21  C   UNL     1      48.005   8.722  18.720  0.00  0.00    +0.000 A 
ATOM     22  S   UNL     1      47.827   7.945  20.228  0.00  0.00    +0.000 S 
ATOM     23  C   UNL     1      48.303   6.446  19.576  0.00  0.00    +0.000 A 
ATOM     24  N   UNL     1      48.340   5.329  20.346  0.00  0.00    +0.000 NA
ATOM     25  C   UNL     1      48.692   4.255  19.717  0.00  0.00    +0.000 A 
ATOM     26  N   UNL     1      49.028   4.184  18.385  0.00  0.00    +0.000 N 
ATOM     27  C   UNL     1      49.432   2.931  17.779  0.00  0.00    +0.000 C 
ATOM     28  C   UNL     1      49.033   5.315  17.573  0.00  0.00    +0.000 A 
ATOM     29  O   UNL     1      49.389   5.283  16.401  0.00  0.00    +0.000 OA
ATOM     30  C   UNL     1      48.617   6.541  18.235  0.00  0.00    +0.000 A 
ENDBRANCH  17  20
ENDBRANCH   2  16
TORSDOF 5
ENDMDL
MODEL 4
REMARK VINA RESULT:    -7.257      4.409      7.775
REMARK INTER + INTRA:          -9.781
REMARK INTER:                  -8.826
REMARK INTRA:                  -0.955
REMARK UNBOUND:                -0.404
REMARK  Name = 
REMARK  7 active torsions:
REMARK  status: ('A' for Active; 'I' for Inactive)
REMARK    1  A    between atoms: C_1  and  C_2
REMARK    2  A    between atoms: C_2  and  N_3
REMARK    3  A    between atoms: C_2  and  C_17
REMARK    4  A    between atoms: C_4  and  C_6
REMARK    5  A    between atoms: N_12  and  C_13
REMARK    6  A    between atoms: C_20  and  O_21
REMARK    7  A    between atoms: O_21  and  C_22
REMARK                            x       y       z     vdW  Elec       q    Type
REMARK                         _______ _______ _______ _____ _____    ______ ____
ROOT
ATOM      1  C   UNL     1      45.652   8.885  13.236  0.00  0.00    +0.000 C 
ATOM      2  C   UNL     1      46.256   8.330  11.945  0.00  0.00    +0.000 C 
ENDROOT
BRANCH   2   3
ATOM      3  C   UNL     1      47.777   8.386  11.881  0.00  0.00    +0.000 A 
ATOM      4  C   UNL     1      48.501   7.208  12.130  0.00  0.00    +0.000 A 
ATOM      5  C   UNL     1      49.898   7.211  12.159  0.00  0.00    +0.000 A 
ATOM      6  C   UNL     1      50.601   8.382  11.878  0.00  0.00    +0.000 A 
ATOM      7  C   UNL     1      49.897   9.571  11.681  0.00  0.00    +0.000 A 
ATOM      8  C   UNL     1      48.497   9.575  11.691  0.00  0.00    +0.000 A 
BRANCH   6   9
ATOM      9  O   UNL     1      51.975   8.477  11.850  0.00  0.00    +0.000 OA
BRANCH   9  10
ATOM     10  C   UNL     1      52.694   7.759  10.918  0.00  0.00    +0.000 A 
ATOM     11  C   UNL     1      53.949   7.201  11.148  0.00  0.00    +0.000 A 
ATOM     12  C   UNL     1      54.572   6.542  10.104  0.00  0.00    +0.000 A 
ATOM     13  N   UNL     1      54.007   6.356   8.892  0.00  0.00    +0.000 NA
ATOM     14  C   UNL     1      52.761   6.846   8.721  0.00  0.00    +0.000 A 
ATOM     15  C   UNL     1      52.069   7.547   9.693  0.00  0.00    +0.000 A 
ENDBRANCH   9  10
ENDBRANCH   6   9
ENDBRANCH   2   3
BRANCH   2  16
ATOM     16  N   UNL     1      45.835   6.959  11.734  0.00  0.00    +0.000 N 
ATOM     17  C   UNL     1      44.570   6.609  11.342  0.00  0.00    +0.000 C 
ATOM     18  O   UNL     1      43.676   7.437  11.194  0.00  0.00    +0.000 OA
ATOM     19  H   UNL     1      46.575   6.265  11.700  0.00  0.00    +0.000 HD
BRANCH  17  20
ATOM     20  C   UNL     1      44.325   5.173  11.153  0.00  0.00    +0.000 A 
ATOM     21  C   UNL     1      43.512   4.487  12.045  0.00  0.00    +0.000 A 
ATOM     22  S   UNL     1      43.350   2.828  11.683  0.00  0.00    +0.000 S 
ATOM     23  C   UNL     1      44.329   2.977  10.297  0.00  0.00    +0.000 A 
ATOM     24  N   UNL     1      44.575   1.909   9.498  0.00  0.00    +0.000 NA
ATOM     25  C   UNL     1      45.311   2.169   8.466  0.00  0.00    +0.000 A 
ATOM     26  N   UNL     1      45.842   3.399   8.155  0.00  0.00    +0.000 N 
ATOM     27  C   UNL     1      46.676   3.580   6.983  0.00  0.00    +0.000 C 
ATOM     28  C   UNL     1      45.638   4.508   8.969  0.00  0.00    +0.000 A 
ATOM     29  O   UNL     1      46.154   5.596   8.742  0.00  0.00    +0.000 OA
ATOM     30  C   UNL     1      44.793   4.266  10.128  0.00  0.00    +0.000 A 
ENDBRANCH  17  20
ENDBRANCH   2  16
TORSDOF 5
ENDMDL
MODEL 5
REMARK VINA RESULT:    -7.256      2.791      4.077
REMARK INTER + INTRA:          -9.781
REMARK INTER:                  -8.677
REMARK INTRA:                  -1.104
REMARK UNBOUND:                -0.404
REMARK  Name = 
REMARK  7 active torsions:
REMARK  status: ('A' for Active; 'I' for Inactive)
REMARK    1  A    between atoms: C_1  and  C_2
REMARK    2  A    between atoms: C_2  and  N_3
REMARK    3  A    between atoms: C_2  and  C_17
REMARK    4  A    between atoms: C_4  and  C_6
REMARK    5  A    between atoms: N_12  and  C_13
REMARK    6  A    between atoms: C_20  and  O_21
REMARK    7  A    between atoms: O_21  and  C_22
REMARK                            x       y       z     vdW  Elec       q    Type
REMARK                         _______ _______ _______ _____ _____    ______ ____
ROOT
ATOM      1  C   UNL     1      47.180   4.194  16.561  0.00  0.00    +0.000 C 
ATOM      2  C   UNL     1      47.752   4.891  15.325  0.00  0.00    +0.000 C 
ENDROOT
BRANCH   2   3
ATOM      3  C   UNL     1      46.938   4.696  14.053  0.00  0.00    +0.000 A 
ATOM      4  C   UNL     1      46.501   5.834  13.356  0.00  0.00    +0.000 A 
ATOM      5  C   UNL     1      45.689   5.721  12.224  0.00  0.00    +0.000 A 
ATOM      6  C   UNL     1      45.348   4.462  11.731  0.00  0.00    +0.000 A 
ATOM      7  C   UNL     1      45.729   3.323  12.441  0.00  0.00    +0.000 A 
ATOM      8  C   UNL     1      46.510   3.438  13.598  0.00  0.00    +0.000 A 
BRANCH   6   9
ATOM      9  O   UNL     1      44.582   4.249  10.605  0.00  0.00    +0.000 OA
BRANCH   9  10
ATOM     10  C   UNL     1      45.124   3.594   9.520  0.00  0.00    +0.000 A 
ATOM     11  C   UNL     1      45.095   2.214   9.337  0.00  0.00    +0.000 A 
ATOM     12  C   UNL     1      45.717   1.691   8.217  0.00  0.00    +0.000 A 
ATOM     13  N   UNL     1      46.298   2.446   7.261  0.00  0.00    +0.000 NA
ATOM     14  C   UNL     1      46.248   3.784   7.430  0.00  0.00    +0.000 A 
ATOM     15  C   UNL     1      45.678   4.401   8.531  0.00  0.00    +0.000 A 
ENDBRANCH   9  10
ENDBRANCH   6   9
ENDBRANCH   2   3
BRANCH   2  16
ATOM     16  N   UNL     1      47.898   6.313  15.565  0.00  0.00    +0.000 N 
ATOM     17  C   UNL     1      49.107   6.926  15.761  0.00  0.00    +0.000 C 
ATOM     18  O   UNL     1      50.162   6.298  15.804  0.00  0.00    +0.000 OA
ATOM     19  H   UNL     1      47.076   6.883  15.390  0.00  0.00    +0.000 HD
BRANCH  17  20
ATOM     20  C   UNL     1      49.071   8.380  15.966  0.00  0.00    +0.000 A 
ATOM     21  C   UNL     1      49.574   9.229  14.990  0.00  0.00    +0.000 A 
ATOM     22  S   UNL     1      49.465  10.881  15.401  0.00  0.00    +0.000 S 
ATOM     23  C   UNL     1      48.705  10.521  16.881  0.00  0.00    +0.000 A 
ATOM     24  N   UNL     1      48.311  11.510  17.723  0.00  0.00    +0.000 NA
ATOM     25  C   UNL     1      47.723  11.097  18.798  0.00  0.00    +0.000 A 
ATOM     26  N   UNL     1      47.497   9.781  19.129  0.00  0.00    +0.000 N 
ATOM     27  C   UNL     1      46.847   9.421  20.374  0.00  0.00    +0.000 C 
ATOM     28  C   UNL     1      47.916   8.740  18.306  0.00  0.00    +0.000 A 
ATOM     29  O   UNL     1      47.780   7.561  18.612  0.00  0.00    +0.000 OA
ATOM     30  C   UNL     1      48.559   9.161  17.071  0.00  0.00    +0.000 A 
ENDBRANCH  17  20
ENDBRANCH   2  16
TORSDOF 5
ENDMDL
MODEL 6
REMARK VINA RESULT:    -7.198      3.134      4.649
REMARK INTER + INTRA:          -9.706
REMARK INTER:                  -8.350
REMARK INTRA:                  -1.356
REMARK UNBOUND:                -0.404
REMARK  Name = 
REMARK  7 active torsions:
REMARK  status: ('A' for Active; 'I' for Inactive)
REMARK    1  A    between atoms: C_1  and  C_2
REMARK    2  A    between atoms: C_2  and  N_3
REMARK    3  A    between atoms: C_2  and  C_17
REMARK    4  A    between atoms: C_4  and  C_6
REMARK    5  A    between atoms: N_12  and  C_13
REMARK    6  A    between atoms: C_20  and  O_21
REMARK    7  A    between atoms: O_21  and  C_22
REMARK                            x       y       z     vdW  Elec       q    Type
REMARK                         _______ _______ _______ _____ _____    ______ ____
ROOT
ATOM      1  C   UNL     1      50.400   8.224  11.562  0.00  0.00    +0.000 C 
ATOM      2  C   UNL     1      49.679   8.216  12.912  0.00  0.00    +0.000 C 
ENDROOT
BRANCH   2   3
ATOM      3  C   UNL     1      48.252   7.688  12.865  0.00  0.00    +0.000 A 
ATOM      4  C   UNL     1      48.023   6.346  13.211  0.00  0.00    +0.000 A 
ATOM      5  C   UNL     1      46.747   5.783  13.117  0.00  0.00    +0.000 A 
ATOM      6  C   UNL     1      45.662   6.570  12.734  0.00  0.00    +0.000 A 
ATOM      7  C   UNL     1      45.881   7.890  12.337  0.00  0.00    +0.000 A 
ATOM      8  C   UNL     1      47.166   8.443  12.394  0.00  0.00    +0.000 A 
BRANCH   6   9
ATOM      9  O   UNL     1      44.365   6.115  12.644  0.00  0.00    +0.000 OA
BRANCH   9  10
ATOM     10  C   UNL     1      44.096   4.930  11.991  0.00  0.00    +0.000 A 
ATOM     11  C   UNL     1      43.516   3.815  12.589  0.00  0.00    +0.000 A 
ATOM     12  C   UNL     1      43.344   2.678  11.820  0.00  0.00    +0.000 A 
ATOM     13  N   UNL     1      43.651   2.607  10.507  0.00  0.00    +0.000 NA
ATOM     14  C   UNL     1      44.145   3.727   9.938  0.00  0.00    +0.000 A 
ATOM     15  C   UNL     1      44.384   4.902  10.631  0.00  0.00    +0.000 A 
ENDBRANCH   9  10
ENDBRANCH   6   9
ENDBRANCH   2   3
BRANCH   2  16
ATOM     16  N   UNL     1      50.427   7.442  13.883  0.00  0.00    +0.000 N 
ATOM     17  C   UNL     1      51.005   7.986  14.999  0.00  0.00    +0.000 C 
ATOM     18  O   UNL     1      50.981   9.192  15.230  0.00  0.00    +0.000 OA
ATOM     19  H   UNL     1      50.344   6.433  13.809  0.00  0.00    +0.000 HD
BRANCH  17  20
ATOM     20  C   UNL     1      51.705   7.048  15.888  0.00  0.00    +0.000 A 
ATOM     21  C   UNL     1      53.090   7.082  15.976  0.00  0.00    +0.000 A 
ATOM     22  S   UNL     1      53.733   5.916  17.042  0.00  0.00    +0.000 S 
ATOM     23  C   UNL     1      52.180   5.353  17.454  0.00  0.00    +0.000 A 
ATOM     24  N   UNL     1      52.016   4.358  18.362  0.00  0.00    +0.000 NA
ATOM     25  C   UNL     1      50.783   4.048  18.601  0.00  0.00    +0.000 A 
ATOM     26  N   UNL     1      49.685   4.628  18.010  0.00  0.00    +0.000 N 
ATOM     27  C   UNL     1      48.341   4.190  18.331  0.00  0.00    +0.000 C 
ATOM     28  C   UNL     1      49.817   5.627  17.050  0.00  0.00    +0.000 A 
ATOM     29  O   UNL     1      48.855   6.112  16.467  0.00  0.00    +0.000 OA
ATOM     30  C   UNL     1      51.187   6.026  16.771  0.00  0.00    +0.000 A 
ENDBRANCH  17  20
ENDBRANCH   2  16
TORSDOF 5
ENDMDL
MODEL 7
REMARK VINA RESULT:    -6.914      3.752      5.674
REMARK INTER + INTRA:          -9.339
REMARK INTER:                  -8.368
REMARK INTRA:                  -0.971
REMARK UNBOUND:                -0.404
REMARK  Name = 
REMARK  7 active torsions:
REMARK  status: ('A' for Active; 'I' for Inactive)
REMARK    1  A    between atoms: C_1  and  C_2
REMARK    2  A    between atoms: C_2  and  N_3
REMARK    3  A    between atoms: C_2  and  C_17
REMARK    4  A    between atoms: C_4  and  C_6
REMARK    5  A    between atoms: N_12  and  C_13
REMARK    6  A    between atoms: C_20  and  O_21
REMARK    7  A    between atoms: O_21  and  C_22
REMARK                            x       y       z     vdW  Elec       q    Type
REMARK                         _______ _______ _______ _____ _____    ______ ____
ROOT
ATOM      1  C   UNL     1      44.937   4.178  13.068  0.00  0.00    +0.000 C 
ATOM      2  C   UNL     1      46.138   5.123  13.138  0.00  0.00    +0.000 C 
ENDROOT
BRANCH   2   3
ATOM      3  C   UNL     1      45.840   6.559  12.729  0.00  0.00    +0.000 A 
ATOM      4  C   UNL     1      44.800   6.792  11.814  0.00  0.00    +0.000 A 
ATOM      5  C   UNL     1      44.526   8.080  11.344  0.00  0.00    +0.000 A 
ATOM      6  C   UNL     1      45.249   9.169  11.828  0.00  0.00    +0.000 A 
ATOM      7  C   UNL     1      46.319   8.949  12.696  0.00  0.00    +0.000 A 
ATOM      8  C   UNL     1      46.618   7.654  13.137  0.00  0.00    +0.000 A 
BRANCH   6   9
ATOM      9  O   UNL     1      45.031  10.477  11.450  0.00  0.00    +0.000 OA
BRANCH   9  10
ATOM     10  C   UNL     1      43.847  10.826  10.836  0.00  0.00    +0.000 A 
ATOM     11  C   UNL     1      42.666  11.121  11.511  0.00  0.00    +0.000 A 
ATOM     12  C   UNL     1      41.541  11.415  10.760  0.00  0.00    +0.000 A 
ATOM     13  N   UNL     1      41.538  11.490   9.412  0.00  0.00    +0.000 NA
ATOM     14  C   UNL     1      42.715  11.268   8.789  0.00  0.00    +0.000 A 
ATOM     15  C   UNL     1      43.886  10.936   9.450  0.00  0.00    +0.000 A 
ENDBRANCH   9  10
ENDBRANCH   6   9
ENDBRANCH   2   3
BRANCH   2  16
ATOM     16  N   UNL     1      46.702   5.131  14.473  0.00  0.00    +0.000 N 
ATOM     17  C   UNL     1      47.379   4.070  15.013  0.00  0.00    +0.000 C 
ATOM     18  O   UNL     1      47.509   3.003  14.420  0.00  0.00    +0.000 OA
ATOM     19  H   UNL     1      46.748   6.034  14.934  0.00  0.00    +0.000 HD
BRANCH  17  20
ATOM     20  C   UNL     1      47.905   4.261  16.372  0.00  0.00    +0.000 A 
ATOM     21  C   UNL     1      47.545   3.381  17.383  0.00  0.00    +0.000 A 
ATOM     22  S   UNL     1      48.234   3.761  18.896  0.00  0.00    +0.000 S 
ATOM     23  C   UNL     1      49.071   5.093  18.243  0.00  0.00    +0.000 A 
ATOM     24  N   UNL     1      49.888   5.852  19.017  0.00  0.00    +0.000 NA
ATOM     25  C   UNL     1      50.482   6.813  18.387  0.00  0.00    +0.000 A 
ATOM     26  N   UNL     1      50.332   7.104  17.051  0.00  0.00    +0.000 N 
ATOM     27  C   UNL     1      51.028   8.222  16.445  0.00  0.00    +0.000 C 
ATOM     28  C   UNL     1      49.478   6.368  16.236  0.00  0.00    +0.000 A 
ATOM     29  O   UNL     1      49.283   6.651  15.060  0.00  0.00    +0.000 OA
ATOM     30  C   UNL     1      48.809   5.260  16.898  0.00  0.00    +0.000 A 
ENDBRANCH  17  20
ENDBRANCH   2  16
TORSDOF 5
ENDMDL
MODEL 8
REMARK VINA RESULT:    -6.898      2.854      4.281
REMARK INTER + INTRA:          -9.318
REMARK INTER:                  -8.300
REMARK INTRA:                  -1.018
REMARK UNBOUND:                -0.404
REMARK  Name = 
REMARK  7 active torsions:
REMARK  status: ('A' for Active; 'I' for Inactive)
REMARK    1  A    between atoms: C_1  and  C_2
REMARK    2  A    between atoms: C_2  and  N_3
REMARK    3  A    between atoms: C_2  and  C_17
REMARK    4  A    between atoms: C_4  and  C_6
REMARK    5  A    between atoms: N_12  and  C_13
REMARK    6  A    between atoms: C_20  and  O_21
REMARK    7  A    between atoms: O_21  and  C_22
REMARK                            x       y       z     vdW  Elec       q    Type
REMARK                         _______ _______ _______ _____ _____    ______ ____
ROOT
ATOM      1  C   UNL     1      46.983   3.887  16.661  0.00  0.00    +0.000 C 
ATOM      2  C   UNL     1      47.633   4.583  15.464  0.00  0.00    +0.000 C 
ENDROOT
BRANCH   2   3
ATOM      3  C   UNL     1      46.838   4.492  14.169  0.00  0.00    +0.000 A 
ATOM      4  C   UNL     1      46.368   5.681  13.587  0.00  0.00    +0.000 A 
ATOM      5  C   UNL     1      45.570   5.657  12.439  0.00  0.00    +0.000 A 
ATOM      6  C   UNL     1      45.278   4.445  11.815  0.00  0.00    +0.000 A 
ATOM      7  C   UNL     1      45.693   3.253  12.409  0.00  0.00    +0.000 A 
ATOM      8  C   UNL     1      46.459   3.275  13.581  0.00  0.00    +0.000 A 
BRANCH   6   9
ATOM      9  O   UNL     1      44.530   4.323  10.664  0.00  0.00    +0.000 OA
BRANCH   9  10
ATOM     10  C   UNL     1      45.090   3.760   9.537  0.00  0.00    +0.000 A 
ATOM     11  C   UNL     1      45.708   4.481   8.519  0.00  0.00    +0.000 A 
ATOM     12  C   UNL     1      46.189   3.785   7.425  0.00  0.00    +0.000 A 
ATOM     13  N   UNL     1      46.147   2.440   7.315  0.00  0.00    +0.000 NA
ATOM     14  C   UNL     1      45.606   1.762   8.350  0.00  0.00    +0.000 A 
ATOM     15  C   UNL     1      45.070   2.371   9.472  0.00  0.00    +0.000 A 
ENDBRANCH   9  10
ENDBRANCH   6   9
ENDBRANCH   2   3
BRANCH   2  16
ATOM     16  N   UNL     1      47.875   5.981  15.759  0.00  0.00    +0.000 N 
ATOM     17  C   UNL     1      49.067   6.457  16.239  0.00  0.00    +0.000 C 
ATOM     18  O   UNL     1      50.008   5.716  16.509  0.00  0.00    +0.000 OA
ATOM     19  H   UNL     1      47.184   6.638  15.412  0.00  0.00    +0.000 HD
BRANCH  17  20
ATOM     20  C   UNL     1      49.145   7.907  16.459  0.00  0.00    +0.000 A 
ATOM     21  C   UNL     1      49.297   8.404  17.746  0.00  0.00    +0.000 A 
ATOM     22  S   UNL     1      49.352  10.107  17.818  0.00  0.00    +0.000 S 
ATOM     23  C   UNL     1      49.216  10.239  16.126  0.00  0.00    +0.000 A 
ATOM     24  N   UNL     1      49.229  11.451  15.516  0.00  0.00    +0.000 NA
ATOM     25  C   UNL     1      49.146  11.405  14.226  0.00  0.00    +0.000 A 
ATOM     26  N   UNL     1      49.036  10.257  13.475  0.00  0.00    +0.000 N 
ATOM     27  C   UNL     1      48.925  10.315  12.031  0.00  0.00    +0.000 C 
ATOM     28  C   UNL     1      48.986   9.000  14.068  0.00  0.00    +0.000 A 
ATOM     29  O   UNL     1      48.826   7.972  13.421  0.00  0.00    +0.000 OA
ATOM     30  C   UNL     1      49.104   9.005  15.518  0.00  0.00    +0.000 A 
ENDBRANCH  17  20
ENDBRANCH   2  16
TORSDOF 5
ENDMDL
MODEL 9
REMARK VINA RESULT:    -6.870      2.274      3.114
REMARK INTER + INTRA:          -9.282
REMARK INTER:                  -8.497
REMARK INTRA:                  -0.785
REMARK UNBOUND:                -0.404
REMARK  Name = 
REMARK  7 active torsions:
REMARK  status: ('A' for Active; 'I' for Inactive)
REMARK    1  A    between atoms: C_1  and  C_2
REMARK    2  A    between atoms: C_2  and  N_3
REMARK    3  A    between atoms: C_2  and  C_17
REMARK    4  A    between atoms: C_4  and  C_6
REMARK    5  A    between atoms: N_12  and  C_13
REMARK    6  A    between atoms: C_20  and  O_21
REMARK    7  A    between atoms: O_21  and  C_22
REMARK                            x       y       z     vdW  Elec       q    Type
REMARK                         _______ _______ _______ _____ _____    ______ ____
ROOT
ATOM      1  C   UNL     1      47.980   9.132  12.949  0.00  0.00    +0.000 C 
ATOM      2  C   UNL     1      47.112   8.119  13.697  0.00  0.00    +0.000 C 
ENDROOT
BRANCH   2   3
ATOM      3  C   UNL     1      46.296   7.198  12.800  0.00  0.00    +0.000 A 
ATOM      4  C   UNL     1      46.604   5.827  12.790  0.00  0.00    +0.000 A 
ATOM      5  C   UNL     1      45.941   4.944  11.934  0.00  0.00    +0.000 A 
ATOM      6  C   UNL     1      44.913   5.405  11.113  0.00  0.00    +0.000 A 
ATOM      7  C   UNL     1      44.631   6.771  11.072  0.00  0.00    +0.000 A 
ATOM      8  C   UNL     1      45.322   7.662  11.902  0.00  0.00    +0.000 A 
BRANCH   6   9
ATOM      9  O   UNL     1      44.180   4.606  10.261  0.00  0.00    +0.000 OA
BRANCH   9  10
ATOM     10  C   UNL     1      44.826   3.723   9.422  0.00  0.00    +0.000 A 
ATOM     11  C   UNL     1      44.720   2.338   9.503  0.00  0.00    +0.000 A 
ATOM     12  C   UNL     1      45.461   1.574   8.619  0.00  0.00    +0.000 A 
ATOM     13  N   UNL     1      46.235   2.095   7.644  0.00  0.00    +0.000 NA
ATOM     14  C   UNL     1      46.262   3.441   7.545  0.00  0.00    +0.000 A 
ATOM     15  C   UNL     1      45.582   4.290   8.401  0.00  0.00    +0.000 A 
ENDBRANCH   9  10
ENDBRANCH   6   9
ENDBRANCH   2   3
BRANCH   2  16
ATOM     16  N   UNL     1      47.926   7.304  14.577  0.00  0.00    +0.000 N 
ATOM     17  C   UNL     1      48.620   7.806  15.645  0.00  0.00    +0.000 C 
ATOM     18  O   UNL     1      48.648   9.006  15.904  0.00  0.00    +0.000 OA
ATOM     19  H   UNL     1      47.810   6.299  14.490  0.00  0.00    +0.000 HD
BRANCH  17  20
ATOM     20  C   UNL     1      49.374   6.831  16.445  0.00  0.00    +0.000 A 
ATOM     21  C   UNL     1      48.702   5.978  17.309  0.00  0.00    +0.000 A 
ATOM     22  S   UNL     1      49.733   4.925  18.167  0.00  0.00    +0.000 S 
ATOM     23  C   UNL     1      51.112   5.546  17.383  0.00  0.00    +0.000 A 
ATOM     24  N   UNL     1      52.347   5.049  17.645  0.00  0.00    +0.000 NA
ATOM     25  C   UNL     1      53.300   5.592  16.959  0.00  0.00    +0.000 A 
ATOM     26  N   UNL     1      53.145   6.601  16.038  0.00  0.00    +0.000 N 
ATOM     27  C   UNL     1      54.286   7.159  15.338  0.00  0.00    +0.000 C 
ATOM     28  C   UNL     1      51.898   7.158  15.770  0.00  0.00    +0.000 A 
ATOM     29  O   UNL     1      51.749   8.100  15.000  0.00  0.00    +0.000 OA
ATOM     30  C   UNL     1      50.793   6.557  16.500  0.00  0.00    +0.000 A 
ENDBRANCH  17  20
ENDBRANCH   2  16
TORSDOF 5
ENDMDL
