MODEL 1
REMARK VINA RESULT:    -8.592      0.000      0.000
REMARK INTER + INTRA:         -13.162
REMARK INTER:                 -12.108
REMARK INTRA:                  -1.054
REMARK UNBOUND:                -1.054
REMARK  Name = 
REMARK  8 active torsions:
REMARK  status: ('A' for Active; 'I' for Inactive)
REMARK    1  A    between atoms: C_1  and  C_2
REMARK    2  A    between atoms: C_2  and  N_3
REMARK    3  A    between atoms: C_2  and  C_16
REMARK    4  A    between atoms: C_4  and  C_6
REMARK    5  A    between atoms: C_19  and  C_20
REMARK    6  A    between atoms: C_20  and  O_21
REMARK    7  A    between atoms: O_21  and  C_22
REMARK    8  A    between atoms: C_22  and  C_23
REMARK                            x       y       z     vdW  Elec       q    Type
REMARK                         _______ _______ _______ _____ _____    ______ ____
ROOT
ATOM      1  C   UNL     1      48.835   7.934  12.854  0.00  0.00    +0.000 C 
ATOM      2  C   UNL     1      48.452   6.580  13.455  0.00  0.00    +0.000 C 
ENDROOT
BRANCH   2   3
ATOM      3  C   UNL     1      47.210   6.044  12.758  0.00  0.00    +0.000 A 
ATOM      4  C   UNL     1      46.671   6.709  11.652  0.00  0.00    +0.000 A 
ATOM      5  C   UNL     1      45.585   6.167  10.955  0.00  0.00    +0.000 A 
ATOM      6  C   UNL     1      45.012   4.951  11.353  0.00  0.00    +0.000 A 
ATOM      7  C   UNL     1      45.523   4.308  12.484  0.00  0.00    +0.000 A 
ATOM      8  C   UNL     1      46.604   4.848  13.181  0.00  0.00    +0.000 A 
BRANCH   6   9
ATOM      9  C   UNL     1      43.867   4.346  10.581  0.00  0.00    +0.000 C 
BRANCH   9  10
ATOM     10  O   UNL     1      44.351   3.261   9.792  0.00  0.00    +0.000 OA
BRANCH  10  11
ATOM     11  C   UNL     1      44.670   3.675   8.465  0.00  0.00    +0.000 C 
BRANCH  11  12
ATOM     12  C   UNL     1      45.823   2.869   7.919  0.00  0.00    +0.000 A 
ATOM     13  C   UNL     1      45.914   1.501   8.202  0.00  0.00    +0.000 A 
ATOM     14  C   UNL     1      46.958   0.772   7.654  0.00  0.00    +0.000 A 
ATOM     15  N   UNL     1      47.903   1.299   6.849  0.00  0.00    +0.000 NA
ATOM     16  C   UNL     1      47.797   2.618   6.580  0.00  0.00    +0.000 A 
ATOM     17  C   UNL     1      46.788   3.430   7.077  0.00  0.00    +0.000 A 
ENDBRANCH  11  12
ENDBRANCH  10  11
ENDBRANCH   9  10
ENDBRANCH   6   9
ENDBRANCH   2   3
BRANCH   2  18
ATOM     18  N   UNL     1      48.208   6.661  14.885  0.00  0.00    +0.000 N 
ATOM     19  C   UNL     1      49.220   6.692  15.810  0.00  0.00    +0.000 C 
ATOM     20  O   UNL     1      50.408   6.677  15.496  0.00  0.00    +0.000 OA
ATOM     21  H   UNL     1      47.300   6.314  15.197  0.00  0.00    +0.000 HD
BRANCH  19  22
ATOM     22  C   UNL     1      48.818   6.815  17.212  0.00  0.00    +0.000 A 
ATOM     23  C   UNL     1      48.410   8.044  17.712  0.00  0.00    +0.000 A 
ATOM     24  S   UNL     1      47.996   8.000  19.366  0.00  0.00    +0.000 S 
ATOM     25  C   UNL     1      48.383   6.346  19.474  0.00  0.00    +0.000 A 
ATOM     26  N   UNL     1      48.301   5.678  20.656  0.00  0.00    +0.000 NA
ATOM     27  C   UNL     1      48.664   4.440  20.594  0.00  0.00    +0.000 A 
ATOM     28  N   UNL     1      49.082   3.803  19.456  0.00  0.00    +0.000 N 
ATOM     29  C   UNL     1      49.130   4.422  18.229  0.00  0.00    +0.000 A 
ATOM     30  O   UNL     1      49.426   3.806  17.212  0.00  0.00    +0.000 OA
ATOM     31  C   UNL     1      48.781   5.827  18.256  0.00  0.00    +0.000 A 
ATOM     32  H   UNL     1      49.327   2.823  19.464  0.00  0.00    +0.000 HD
ENDBRANCH  19  22
ENDBRANCH   2  18
TORSDOF 7
ENDMDL
MODEL 2
REMARK VINA RESULT:    -8.206      1.270      2.120
REMARK INTER + INTRA:         -12.618
REMARK INTER:                 -11.442
REMARK INTRA:                  -1.176
REMARK UNBOUND:                -1.054
REMARK  Name = 
REMARK  8 active torsions:
REMARK  status: ('A' for Active; 'I' for Inactive)
REMARK    1  A    between atoms: C_1  and  C_2
REMARK    2  A    between atoms: C_2  and  N_3
REMARK    3  A    between atoms: C_2  and  C_16
REMARK    4  A    between atoms: C_4  and  C_6
REMARK    5  A    between atoms: C_19  and  C_20
REMARK    6  A    between atoms: C_20  and  O_21
REMARK    7  A    between atoms: O_21  and  C_22
REMARK    8  A    between atoms: C_22  and  C_23
REMARK                            x       y       z     vdW  Elec       q    Type
REMARK                         _______ _______ _______ _____ _____    ______ ____
ROOT
ATOM      1  C   UNL     1      48.233   8.330  13.576  0.00  0.00    +0.000 C 
ATOM      2  C   UNL     1      48.328   6.814  13.772  0.00  0.00    +0.000 C 
ENDROOT
BRANCH   2   3
ATOM      3  C   UNL     1      47.266   6.122  12.933  0.00  0.00    +0.000 A 
ATOM      4  C   UNL     1      46.680   4.929  13.368  0.00  0.00    +0.000 A 
ATOM      5  C   UNL     1      45.638   4.340  12.642  0.00  0.00    +0.000 A 
ATOM      6  C   UNL     1      45.163   4.930  11.462  0.00  0.00    +0.000 A 
ATOM      7  C   UNL     1      45.778   6.100  11.004  0.00  0.00    +0.000 A 
ATOM      8  C   UNL     1      46.817   6.686  11.725  0.00  0.00    +0.000 A 
BRANCH   6   9
ATOM      9  C   UNL     1      44.015   4.319  10.699  0.00  0.00    +0.000 C 
BRANCH   9  10
ATOM     10  O   UNL     1      44.509   3.280   9.857  0.00  0.00    +0.000 OA
BRANCH  10  11
ATOM     11  C   UNL     1      44.741   3.743   8.528  0.00  0.00    +0.000 C 
BRANCH  11  12
ATOM     12  C   UNL     1      45.831   2.937   7.866  0.00  0.00    +0.000 A 
ATOM     13  C   UNL     1      46.051   1.610   8.253  0.00  0.00    +0.000 A 
ATOM     14  C   UNL     1      47.029   0.875   7.601  0.00  0.00    +0.000 A 
ATOM     15  N   UNL     1      47.791   1.359   6.598  0.00  0.00    +0.000 NA
ATOM     16  C   UNL     1      47.561   2.639   6.232  0.00  0.00    +0.000 A 
ATOM     17  C   UNL     1      46.604   3.452   6.820  0.00  0.00    +0.000 A 
ENDBRANCH  11  12
ENDBRANCH  10  11
ENDBRANCH   9  10
ENDBRANCH   6   9
ENDBRANCH   2   3
BRANCH   2  18
ATOM     18  N   UNL     1      48.175   6.428  15.165  0.00  0.00    +0.000 N 
ATOM     19  C   UNL     1      49.240   6.268  16.013  0.00  0.00    +0.000 C 
ATOM     20  O   UNL     1      50.403   6.462  15.664  0.00  0.00    +0.000 OA
ATOM     21  H   UNL     1      47.318   5.920  15.388  0.00  0.00    +0.000 HD
BRANCH  19  22
ATOM     22  C   UNL     1      48.923   5.916  17.398  0.00  0.00    +0.000 A 
ATOM     23  C   UNL     1      49.105   4.614  17.843  0.00  0.00    +0.000 A 
ATOM     24  S   UNL     1      48.667   4.388  19.476  0.00  0.00    +0.000 S 
ATOM     25  C   UNL     1      48.186   6.013  19.627  0.00  0.00    +0.000 A 
ATOM     26  N   UNL     1      47.651   6.485  20.786  0.00  0.00    +0.000 NA
ATOM     27  C   UNL     1      47.295   7.727  20.741  0.00  0.00    +0.000 A 
ATOM     28  N   UNL     1      47.444   8.545  19.652  0.00  0.00    +0.000 N 
ATOM     29  C   UNL     1      48.029   8.127  18.480  0.00  0.00    +0.000 A 
ATOM     30  O   UNL     1      48.226   8.902  17.551  0.00  0.00    +0.000 OA
ATOM     31  C   UNL     1      48.397   6.727  18.463  0.00  0.00    +0.000 A 
ATOM     32  H   UNL     1      47.172   9.516  19.687  0.00  0.00    +0.000 HD
ENDBRANCH  19  22
ENDBRANCH   2  18
TORSDOF 7
ENDMDL
MODEL 3
REMARK VINA RESULT:    -7.646      3.512      8.151
REMARK INTER + INTRA:         -11.829
REMARK INTER:                 -10.196
REMARK INTRA:                  -1.634
REMARK UNBOUND:                -1.054
REMARK  Name = 
REMARK  8 active torsions:
REMARK  status: ('A' for Active; 'I' for Inactive)
REMARK    1  A    between atoms: C_1  and  C_2
REMARK    2  A    between atoms: C_2  and  N_3
REMARK    3  A    between atoms: C_2  and  C_16
REMARK    4  A    between atoms: C_4  and  C_6
REMARK    5  A    between atoms: C_19  and  C_20
REMARK    6  A    between atoms: C_20  and  O_21
REMARK    7  A    between atoms: O_21  and  C_22
REMARK    8  A    between atoms: C_22  and  C_23
REMARK                            x       y       z     vdW  Elec       q    Type
REMARK                         _______ _______ _______ _____ _____    ______ ____
ROOT
ATOM      1  C   UNL     1      49.548   8.387  11.515  0.00  0.00    +0.000 C 
ATOM      2  C   UNL     1      48.213   8.106  12.209  0.00  0.00    +0.000 C 
ENDROOT
BRANCH   2   3
ATOM      3  C   UNL     1      48.447   7.867  13.692  0.00  0.00    +0.000 A 
ATOM      4  C   UNL     1      48.368   8.924  14.605  0.00  0.00    +0.000 A 
ATOM      5  C   UNL     1      48.492   8.688  15.979  0.00  0.00    +0.000 A 
ATOM      6  C   UNL     1      48.703   7.391  16.469  0.00  0.00    +0.000 A 
ATOM      7  C   UNL     1      48.825   6.342  15.553  0.00  0.00    +0.000 A 
ATOM      8  C   UNL     1      48.704   6.575  14.184  0.00  0.00    +0.000 A 
BRANCH   6   9
ATOM      9  C   UNL     1      48.799   7.129  17.951  0.00  0.00    +0.000 C 
BRANCH   9  10
ATOM     10  O   UNL     1      47.881   6.098  18.308  0.00  0.00    +0.000 OA
BRANCH  10  11
ATOM     11  C   UNL     1      48.522   5.048  19.030  0.00  0.00    +0.000 C 
BRANCH  11  12
ATOM     12  C   UNL     1      48.900   3.919  18.104  0.00  0.00    +0.000 A 
ATOM     13  C   UNL     1      47.931   3.339  17.278  0.00  0.00    +0.000 A 
ATOM     14  C   UNL     1      48.311   2.333  16.404  0.00  0.00    +0.000 A 
ATOM     15  N   UNL     1      49.573   1.871  16.290  0.00  0.00    +0.000 NA
ATOM     16  C   UNL     1      50.498   2.446  17.089  0.00  0.00    +0.000 A 
ATOM     17  C   UNL     1      50.217   3.461  17.992  0.00  0.00    +0.000 A 
ENDBRANCH  11  12
ENDBRANCH  10  11
ENDBRANCH   9  10
ENDBRANCH   6   9
ENDBRANCH   2   3
BRANCH   2  18
ATOM     18  N   UNL     1      47.524   6.962  11.635  0.00  0.00    +0.000 N 
ATOM     19  C   UNL     1      46.166   6.930  11.448  0.00  0.00    +0.000 C 
ATOM     20  O   UNL     1      45.434   7.876  11.729  0.00  0.00    +0.000 OA
ATOM     21  H   UNL     1      48.005   6.067  11.732  0.00  0.00    +0.000 HD
BRANCH  19  22
ATOM     22  C   UNL     1      45.624   5.723  10.822  0.00  0.00    +0.000 A 
ATOM     23  C   UNL     1      45.792   5.511   9.460  0.00  0.00    +0.000 A 
ATOM     24  S   UNL     1      45.080   4.063   8.906  0.00  0.00    +0.000 S 
ATOM     25  C   UNL     1      44.495   3.693  10.460  0.00  0.00    +0.000 A 
ATOM     26  N   UNL     1      43.737   2.586  10.683  0.00  0.00    +0.000 NA
ATOM     27  C   UNL     1      43.330   2.456  11.902  0.00  0.00    +0.000 A 
ATOM     28  N   UNL     1      43.628   3.319  12.924  0.00  0.00    +0.000 N 
ATOM     29  C   UNL     1      44.435   4.420  12.758  0.00  0.00    +0.000 A 
ATOM     30  O   UNL     1      44.755   5.128  13.705  0.00  0.00    +0.000 OA
ATOM     31  C   UNL     1      44.874   4.638  11.395  0.00  0.00    +0.000 A 
ATOM     32  H   UNL     1      43.304   3.149  13.864  0.00  0.00    +0.000 HD
ENDBRANCH  19  22
ENDBRANCH   2  18
TORSDOF 7
ENDMDL
MODEL 4
REMARK VINA RESULT:    -7.645      2.735      4.680
REMARK INTER + INTRA:         -11.827
REMARK INTER:                 -10.462
REMARK INTRA:                  -1.365
REMARK UNBOUND:                -1.054
REMARK  Name = 
REMARK  8 active torsions:
REMARK  status: ('A' for Active; 'I' for Inactive)
REMARK    1  A    between atoms: C_1  and  C_2
REMARK    2  A    between atoms: C_2  and  N_3
REMARK    3  A    between atoms: C_2  and  C_16
REMARK    4  A    between atoms: C_4  and  C_6
REMARK    5  A    between atoms: C_19  and  C_20
REMARK    6  A    between atoms: C_20  and  O_21
REMARK    7  A    between atoms: O_21  and  C_22
REMARK    8  A    between atoms: C_22  and  C_23
REMARK                            x       y       z     vdW  Elec       q    Type
REMARK                         _______ _______ _______ _____ _____    ______ ____
ROOT
ATOM      1  C   UNL     1      47.481   4.119  15.624  0.00  0.00    +0.000 C 
ATOM      2  C   UNL     1      47.222   5.422  14.865  0.00  0.00    +0.000 C 
ENDROOT
BRANCH   2   3
ATOM      3  C   UNL     1      46.371   5.139  13.637  0.00  0.00    +0.000 A 
ATOM      4  C   UNL     1      46.089   3.824  13.253  0.00  0.00    +0.000 A 
ATOM      5  C   UNL     1      45.231   3.564  12.178  0.00  0.00    +0.000 A 
ATOM      6  C   UNL     1      44.639   4.614  11.462  0.00  0.00    +0.000 A 
ATOM      7  C   UNL     1      44.955   5.929  11.818  0.00  0.00    +0.000 A 
ATOM      8  C   UNL     1      45.812   6.190  12.887  0.00  0.00    +0.000 A 
BRANCH   6   9
ATOM      9  C   UNL     1      43.684   4.337  10.328  0.00  0.00    +0.000 C 
BRANCH   9  10
ATOM     10  O   UNL     1      44.242   3.340   9.474  0.00  0.00    +0.000 OA
BRANCH  10  11
ATOM     11  C   UNL     1      44.886   3.919   8.340  0.00  0.00    +0.000 C 
BRANCH  11  12
ATOM     12  C   UNL     1      45.884   2.955   7.747  0.00  0.00    +0.000 A 
ATOM     13  C   UNL     1      46.755   3.384   6.738  0.00  0.00    +0.000 A 
ATOM     14  C   UNL     1      47.692   2.493   6.239  0.00  0.00    +0.000 A 
ATOM     15  N   UNL     1      47.828   1.223   6.672  0.00  0.00    +0.000 NA
ATOM     16  C   UNL     1      46.986   0.827   7.651  0.00  0.00    +0.000 A 
ATOM     17  C   UNL     1      46.019   1.644   8.216  0.00  0.00    +0.000 A 
ENDBRANCH  11  12
ENDBRANCH  10  11
ENDBRANCH   9  10
ENDBRANCH   6   9
ENDBRANCH   2   3
BRANCH   2  18
ATOM     18  N   UNL     1      48.455   6.078  14.460  0.00  0.00    +0.000 N 
ATOM     19  C   UNL     1      49.069   7.039  15.221  0.00  0.00    +0.000 C 
ATOM     20  O   UNL     1      48.636   7.399  16.313  0.00  0.00    +0.000 OA
ATOM     21  H   UNL     1      48.637   6.089  13.456  0.00  0.00    +0.000 HD
BRANCH  19  22
ATOM     22  C   UNL     1      50.326   7.577  14.699  0.00  0.00    +0.000 A 
ATOM     23  C   UNL     1      51.482   7.509  15.465  0.00  0.00    +0.000 A 
ATOM     24  S   UNL     1      52.842   8.201  14.702  0.00  0.00    +0.000 S 
ATOM     25  C   UNL     1      51.921   8.646  13.342  0.00  0.00    +0.000 A 
ATOM     26  N   UNL     1      52.475   9.336  12.310  0.00  0.00    +0.000 NA
ATOM     27  C   UNL     1      51.646   9.639  11.366  0.00  0.00    +0.000 A 
ATOM     28  N   UNL     1      50.319   9.298  11.350  0.00  0.00    +0.000 N 
ATOM     29  C   UNL     1      49.729   8.554  12.344  0.00  0.00    +0.000 A 
ATOM     30  O   UNL     1      48.561   8.190  12.263  0.00  0.00    +0.000 OA
ATOM     31  C   UNL     1      50.606   8.234  13.450  0.00  0.00    +0.000 A 
ATOM     32  H   UNL     1      49.727   9.539  10.569  0.00  0.00    +0.000 HD
ENDBRANCH  19  22
ENDBRANCH   2  18
TORSDOF 7
ENDMDL
MODEL 5
REMARK VINA RESULT:    -7.261      2.208      3.013
REMARK INTER + INTRA:         -11.286
REMARK INTER:                 -10.232
REMARK INTRA:                  -1.055
REMARK UNBOUND:                -1.054
REMARK  Name = 
REMARK  8 active torsions:
REMARK  status: ('A' for Active; 'I' for Inactive)
REMARK    1  A    between atoms: C_1  and  C_2
REMARK    2  A    between atoms: C_2  and  N_3
REMARK    3  A    between atoms: C_2  and  C_16
REMARK    4  A    between atoms: C_4  and  C_6
REMARK    5  A    between atoms: C_19  and  C_20
REMARK    6  A    between atoms: C_20  and  O_21
REMARK    7  A    between atoms: O_21  and  C_22
REMARK    8  A    between atoms: C_22  and  C_23
REMARK                            x       y       z     vdW  Elec       q    Type
REMARK                         _______ _______ _______ _____ _____    ______ ____
ROOT
ATOM      1  C   UNL     1      47.867   3.080  15.597  0.00  0.00    +0.000 C 
ATOM      2  C   UNL     1      47.176   4.443  15.522  0.00  0.00    +0.000 C 
ENDROOT
BRANCH   2   3
ATOM      3  C   UNL     1      46.641   4.671  14.117  0.00  0.00    +0.000 A 
ATOM      4  C   UNL     1      45.924   3.667  13.457  0.00  0.00    +0.000 A 
ATOM      5  C   UNL     1      45.353   3.908  12.202  0.00  0.00    +0.000 A 
ATOM      6  C   UNL     1      45.491   5.156  11.578  0.00  0.00    +0.000 A 
ATOM      7  C   UNL     1      46.243   6.145  12.220  0.00  0.00    +0.000 A 
ATOM      8  C   UNL     1      46.815   5.906  13.468  0.00  0.00    +0.000 A 
BRANCH   6   9
ATOM      9  C   UNL     1      44.844   5.431  10.244  0.00  0.00    +0.000 C 
BRANCH   9  10
ATOM     10  O   UNL     1      45.677   4.925   9.203  0.00  0.00    +0.000 OA
BRANCH  10  11
ATOM     11  C   UNL     1      44.989   3.973   8.394  0.00  0.00    +0.000 C 
BRANCH  11  12
ATOM     12  C   UNL     1      45.956   2.970   7.814  0.00  0.00    +0.000 A 
ATOM     13  C   UNL     1      46.901   3.379   6.866  0.00  0.00    +0.000 A 
ATOM     14  C   UNL     1      47.807   2.449   6.379  0.00  0.00    +0.000 A 
ATOM     15  N   UNL     1      47.844   1.159   6.770  0.00  0.00    +0.000 NA
ATOM     16  C   UNL     1      46.931   0.782   7.691  0.00  0.00    +0.000 A 
ATOM     17  C   UNL     1      45.987   1.638   8.239  0.00  0.00    +0.000 A 
ENDBRANCH  11  12
ENDBRANCH  10  11
ENDBRANCH   9  10
ENDBRANCH   6   9
ENDBRANCH   2   3
BRANCH   2  18
ATOM     18  N   UNL     1      48.067   5.533  15.885  0.00  0.00    +0.000 N 
ATOM     19  C   UNL     1      48.306   5.896  17.185  0.00  0.00    +0.000 C 
ATOM     20  O   UNL     1      47.802   5.311  18.142  0.00  0.00    +0.000 OA
ATOM     21  H   UNL     1      48.203   6.246  15.167  0.00  0.00    +0.000 HD
BRANCH  19  22
ATOM     22  C   UNL     1      49.259   6.987  17.392  0.00  0.00    +0.000 A 
ATOM     23  C   UNL     1      48.800   8.273  17.638  0.00  0.00    +0.000 A 
ATOM     24  S   UNL     1      50.053   9.414  17.836  0.00  0.00    +0.000 S 
ATOM     25  C   UNL     1      51.245   8.232  17.561  0.00  0.00    +0.000 A 
ATOM     26  N   UNL     1      52.566   8.556  17.539  0.00  0.00    +0.000 NA
ATOM     27  C   UNL     1      53.353   7.564  17.279  0.00  0.00    +0.000 A 
ATOM     28  N   UNL     1      52.942   6.276  17.061  0.00  0.00    +0.000 N 
ATOM     29  C   UNL     1      51.623   5.892  17.128  0.00  0.00    +0.000 A 
ATOM     30  O   UNL     1      51.292   4.718  17.012  0.00  0.00    +0.000 OA
ATOM     31  C   UNL     1      50.697   6.979  17.365  0.00  0.00    +0.000 A 
ATOM     32  H   UNL     1      53.608   5.536  16.890  0.00  0.00    +0.000 HD
ENDBRANCH  19  22
ENDBRANCH   2  18
TORSDOF 7
ENDMDL
MODEL 6
REMARK VINA RESULT:    -7.228      3.384      5.125
REMARK INTER + INTRA:         -11.240
REMARK INTER:                 -10.163
REMARK INTRA:                  -1.078
REMARK UNBOUND:                -1.054
REMARK  Name = 
REMARK  8 active torsions:
REMARK  status: ('A' for Active; 'I' for Inactive)
REMARK    1  A    between atoms: C_1  and  C_2
REMARK    2  A    between atoms: C_2  and  N_3
REMARK    3  A    between atoms: C_2  and  C_16
REMARK    4  A    between atoms: C_4  and  C_6
REMARK    5  A    between atoms: C_19  and  C_20
REMARK    6  A    between atoms: C_20  and  O_21
REMARK    7  A    between atoms: O_21  and  C_22
REMARK    8  A    between atoms: C_22  and  C_23
REMARK                            x       y       z     vdW  Elec       q    Type
REMARK                         _______ _______ _______ _____ _____    ______ ____
ROOT
ATOM      1  C   UNL     1      48.166   5.725  15.230  0.00  0.00    +0.000 C 
ATOM      2  C   UNL     1      47.969   6.643  14.021  0.00  0.00    +0.000 C 
ENDROOT
BRANCH   2   3
ATOM      3  C   UNL     1      46.961   6.024  13.067  0.00  0.00    +0.000 A 
ATOM      4  C   UNL     1      46.254   4.872  13.425  0.00  0.00    +0.000 A 
ATOM      5  C   UNL     1      45.261   4.355  12.586  0.00  0.00    +0.000 A 
ATOM      6  C   UNL     1      44.955   4.978  11.367  0.00  0.00    +0.000 A 
ATOM      7  C   UNL     1      45.691   6.106  10.989  0.00  0.00    +0.000 A 
ATOM      8  C   UNL     1      46.682   6.620  11.823  0.00  0.00    +0.000 A 
BRANCH   6   9
ATOM      9  C   UNL     1      43.859   4.446  10.479  0.00  0.00    +0.000 C 
BRANCH   9  10
ATOM     10  O   UNL     1      44.367   3.366   9.698  0.00  0.00    +0.000 OA
BRANCH  10  11
ATOM     11  C   UNL     1      44.759   3.797   8.396  0.00  0.00    +0.000 C 
BRANCH  11  12
ATOM     12  C   UNL     1      45.828   2.891   7.837  0.00  0.00    +0.000 A 
ATOM     13  C   UNL     1      46.794   3.406   6.965  0.00  0.00    +0.000 A 
ATOM     14  C   UNL     1      47.792   2.565   6.498  0.00  0.00    +0.000 A 
ATOM     15  N   UNL     1      47.900   1.265   6.838  0.00  0.00    +0.000 NA
ATOM     16  C   UNL     1      46.965   0.785   7.687  0.00  0.00    +0.000 A 
ATOM     17  C   UNL     1      45.932   1.547   8.210  0.00  0.00    +0.000 A 
ENDBRANCH  11  12
ENDBRANCH  10  11
ENDBRANCH   9  10
ENDBRANCH   6   9
ENDBRANCH   2   3
BRANCH   2  18
ATOM     18  N   UNL     1      49.214   6.898  13.315  0.00  0.00    +0.000 N 
ATOM     19  C   UNL     1      49.687   8.163  13.077  0.00  0.00    +0.000 C 
ATOM     20  O   UNL     1      49.105   9.174  13.464  0.00  0.00    +0.000 OA
ATOM     21  H   UNL     1      49.520   6.157  12.683  0.00  0.00    +0.000 HD
BRANCH  19  22
ATOM     22  C   UNL     1      50.975   8.257  12.388  0.00  0.00    +0.000 A 
ATOM     23  C   UNL     1      51.040   8.094  11.011  0.00  0.00    +0.000 A 
ATOM     24  S   UNL     1      52.623   8.219  10.388  0.00  0.00    +0.000 S 
ATOM     25  C   UNL     1      53.274   8.459  11.941  0.00  0.00    +0.000 A 
ATOM     26  N   UNL     1      54.614   8.588  12.132  0.00  0.00    +0.000 NA
ATOM     27  C   UNL     1      54.966   8.724  13.368  0.00  0.00    +0.000 A 
ATOM     28  N   UNL     1      54.099   8.762  14.428  0.00  0.00    +0.000 N 
ATOM     29  C   UNL     1      52.734   8.690  14.279  0.00  0.00    +0.000 A 
ATOM     30  O   UNL     1      51.978   8.813  15.236  0.00  0.00    +0.000 OA
ATOM     31  C   UNL     1      52.294   8.486  12.915  0.00  0.00    +0.000 A 
ATOM     32  H   UNL     1      54.432   8.899  15.371  0.00  0.00    +0.000 HD
ENDBRANCH  19  22
ENDBRANCH   2  18
TORSDOF 7
ENDMDL
MODEL 7
REMARK VINA RESULT:    -6.980      3.534      5.206
REMARK INTER + INTRA:         -10.891
REMARK INTER:                  -9.628
REMARK INTRA:                  -1.263
REMARK UNBOUND:                -1.054
REMARK  Name = 
REMARK  8 active torsions:
REMARK  status: ('A' for Active; 'I' for Inactive)
REMARK    1  A    between atoms: C_1  and  C_2
REMARK    2  A    between atoms: C_2  and  N_3
REMARK    3  A    between atoms: C_2  and  C_16
REMARK    4  A    between atoms: C_4  and  C_6
REMARK    5  A    between atoms: C_19  and  C_20
REMARK    6  A    between atoms: C_20  and  O_21
REMARK    7  A    between atoms: O_21  and  C_22
REMARK    8  A    between atoms: C_22  and  C_23
REMARK                            x       y       z     vdW  Elec       q    Type
REMARK                         _______ _______ _______ _____ _____    ______ ____
ROOT
ATOM      1  C   UNL     1      47.548   2.895  17.374  0.00  0.00    +0.000 C 
ATOM      2  C   UNL     1      48.408   4.161  17.346  0.00  0.00    +0.000 C 
ENDROOT
BRANCH   2   3
ATOM      3  C   UNL     1      48.075   4.980  16.109  0.00  0.00    +0.000 A 
ATOM      4  C   UNL     1      48.656   6.236  15.908  0.00  0.00    +0.000 A 
ATOM      5  C   UNL     1      48.421   6.948  14.726  0.00  0.00    +0.000 A 
ATOM      6  C   UNL     1      47.595   6.423  13.723  0.00  0.00    +0.000 A 
ATOM      7  C   UNL     1      46.979   5.186  13.943  0.00  0.00    +0.000 A 
ATOM      8  C   UNL     1      47.211   4.476  15.120  0.00  0.00    +0.000 A 
BRANCH   6   9
ATOM      9  C   UNL     1      47.371   7.171  12.434  0.00  0.00    +0.000 C 
BRANCH   9  10
ATOM     10  O   UNL     1      46.865   6.272  11.449  0.00  0.00    +0.000 OA
BRANCH  10  11
ATOM     11  C   UNL     1      45.479   6.497  11.193  0.00  0.00    +0.000 C 
BRANCH  11  12
ATOM     12  C   UNL     1      44.734   5.187  11.116  0.00  0.00    +0.000 A 
ATOM     13  C   UNL     1      44.911   4.346  10.011  0.00  0.00    +0.000 A 
ATOM     14  C   UNL     1      44.249   3.129   9.982  0.00  0.00    +0.000 A 
ATOM     15  N   UNL     1      43.438   2.690  10.966  0.00  0.00    +0.000 NA
ATOM     16  C   UNL     1      43.283   3.510  12.029  0.00  0.00    +0.000 A 
ATOM     17  C   UNL     1      43.905   4.744  12.151  0.00  0.00    +0.000 A 
ENDBRANCH  11  12
ENDBRANCH  10  11
ENDBRANCH   9  10
ENDBRANCH   6   9
ENDBRANCH   2   3
BRANCH   2  18
ATOM     18  N   UNL     1      49.830   3.860  17.360  0.00  0.00    +0.000 N 
ATOM     19  C   UNL     1      50.638   4.140  18.432  0.00  0.00    +0.000 C 
ATOM     20  O   UNL     1      50.215   4.645  19.469  0.00  0.00    +0.000 OA
ATOM     21  H   UNL     1      50.275   3.795  16.443  0.00  0.00    +0.000 HD
BRANCH  19  22
ATOM     22  C   UNL     1      52.041   3.742  18.311  0.00  0.00    +0.000 A 
ATOM     23  C   UNL     1      53.049   4.655  18.588  0.00  0.00    +0.000 A 
ATOM     24  S   UNL     1      54.618   4.018  18.377  0.00  0.00    +0.000 S 
ATOM     25  C   UNL     1      53.998   2.515  17.875  0.00  0.00    +0.000 A 
ATOM     26  N   UNL     1      54.824   1.506  17.487  0.00  0.00    +0.000 NA
ATOM     27  C   UNL     1      54.212   0.438  17.094  0.00  0.00    +0.000 A 
ATOM     28  N   UNL     1      52.851   0.279  17.073  0.00  0.00    +0.000 N 
ATOM     29  C   UNL     1      51.980   1.250  17.508  0.00  0.00    +0.000 A 
ATOM     30  O   UNL     1      50.772   1.050  17.558  0.00  0.00    +0.000 OA
ATOM     31  C   UNL     1      52.617   2.486  17.910  0.00  0.00    +0.000 A 
ATOM     32  H   UNL     1      52.431  -0.591  16.781  0.00  0.00    +0.000 HD
ENDBRANCH  19  22
ENDBRANCH   2  18
TORSDOF 7
ENDMDL
MODEL 8
REMARK VINA RESULT:    -6.835      3.476      5.666
REMARK INTER + INTRA:         -10.686
REMARK INTER:                  -9.396
REMARK INTRA:                  -1.290
REMARK UNBOUND:                -1.054
REMARK  Name = 
REMARK  8 active torsions:
REMARK  status: ('A' for Active; 'I' for Inactive)
REMARK    1  A    between atoms: C_1  and  C_2
REMARK    2  A    between atoms: C_2  and  N_3
REMARK    3  A    between atoms: C_2  and  C_16
REMARK    4  A    between atoms: C_4  and  C_6
REMARK    5  A    between atoms: C_19  and  C_20
REMARK    6  A    between atoms: C_20  and  O_21
REMARK    7  A    between atoms: O_21  and  C_22
REMARK    8  A    between atoms: C_22  and  C_23
REMARK                            x       y       z     vdW  Elec       q    Type
REMARK                         _______ _______ _______ _____ _____    ______ ____
ROOT
ATOM      1  C   UNL     1      48.895   6.326  15.897  0.00  0.00    +0.000 C 
ATOM      2  C   UNL     1      48.796   7.155  14.613  0.00  0.00    +0.000 C 
ENDROOT
BRANCH   2   3
ATOM      3  C   UNL     1      47.808   6.504  13.659  0.00  0.00    +0.000 A 
ATOM      4  C   UNL     1      47.153   5.319  14.010  0.00  0.00    +0.000 A 
ATOM      5  C   UNL     1      46.176   4.770  13.172  0.00  0.00    +0.000 A 
ATOM      6  C   UNL     1      45.836   5.391  11.962  0.00  0.00    +0.000 A 
ATOM      7  C   UNL     1      46.521   6.553  11.591  0.00  0.00    +0.000 A 
ATOM      8  C   UNL     1      47.496   7.099  12.423  0.00  0.00    +0.000 A 
BRANCH   6   9
ATOM      9  C   UNL     1      44.757   4.823  11.076  0.00  0.00    +0.000 C 
BRANCH   9  10
ATOM     10  O   UNL     1      45.092   3.482  10.725  0.00  0.00    +0.000 OA
BRANCH  10  11
ATOM     11  C   UNL     1      44.462   3.082   9.509  0.00  0.00    +0.000 C 
BRANCH  11  12
ATOM     12  C   UNL     1      45.493   2.688   8.481  0.00  0.00    +0.000 A 
ATOM     13  C   UNL     1      46.034   3.657   7.627  0.00  0.00    +0.000 A 
ATOM     14  C   UNL     1      47.012   3.280   6.720  0.00  0.00    +0.000 A 
ATOM     15  N   UNL     1      47.489   2.023   6.607  0.00  0.00    +0.000 NA
ATOM     16  C   UNL     1      46.962   1.102   7.442  0.00  0.00    +0.000 A 
ATOM     17  C   UNL     1      45.984   1.382   8.385  0.00  0.00    +0.000 A 
ENDBRANCH  11  12
ENDBRANCH  10  11
ENDBRANCH   9  10
ENDBRANCH   6   9
ENDBRANCH   2   3
BRANCH   2  18
ATOM     18  N   UNL     1      50.083   7.302  13.953  0.00  0.00    +0.000 N 
ATOM     19  C   UNL     1      50.705   8.515  13.802  0.00  0.00    +0.000 C 
ATOM     20  O   UNL     1      50.231   9.564  14.234  0.00  0.00    +0.000 OA
ATOM     21  H   UNL     1      50.322   6.567  13.287  0.00  0.00    +0.000 HD
BRANCH  19  22
ATOM     22  C   UNL     1      52.016   8.497  13.151  0.00  0.00    +0.000 A 
ATOM     23  C   UNL     1      53.144   8.904  13.850  0.00  0.00    +0.000 A 
ATOM     24  S   UNL     1      54.577   8.832  12.927  0.00  0.00    +0.000 S 
ATOM     25  C   UNL     1      53.729   8.291  11.555  0.00  0.00    +0.000 A 
ATOM     26  N   UNL     1      54.365   8.077  10.372  0.00  0.00    +0.000 NA
ATOM     27  C   UNL     1      53.588   7.707   9.408  0.00  0.00    +0.000 A 
ATOM     28  N   UNL     1      52.237   7.511   9.524  0.00  0.00    +0.000 N 
ATOM     29  C   UNL     1      51.560   7.662  10.711  0.00  0.00    +0.000 A 
ATOM     30  O   UNL     1      50.368   7.398  10.806  0.00  0.00    +0.000 OA
ATOM     31  C   UNL     1      52.380   8.126  11.810  0.00  0.00    +0.000 A 
ATOM     32  H   UNL     1      51.686   7.194   8.740  0.00  0.00    +0.000 HD
ENDBRANCH  19  22
ENDBRANCH   2  18
TORSDOF 7
ENDMDL
MODEL 9
REMARK VINA RESULT:    -6.498      3.911      4.577
REMARK INTER + INTRA:         -10.211
REMARK INTER:                  -9.137
REMARK INTRA:                  -1.074
REMARK UNBOUND:                -1.054
REMARK  Name = 
REMARK  8 active torsions:
REMARK  status: ('A' for Active; 'I' for Inactive)
REMARK    1  A    between atoms: C_1  and  C_2
REMARK    2  A    between atoms: C_2  and  N_3
REMARK    3  A    between atoms: C_2  and  C_16
REMARK    4  A    between atoms: C_4  and  C_6
REMARK    5  A    between atoms: C_19  and  C_20
REMARK    6  A    between atoms: C_20  and  O_21
REMARK    7  A    between atoms: O_21  and  C_22
REMARK    8  A    between atoms: C_22  and  C_23
REMARK                            x       y       z     vdW  Elec       q    Type
REMARK                         _______ _______ _______ _____ _____    ______ ____
ROOT
ATOM      1  C   UNL     1      45.373   9.292  12.867  0.00  0.00    +0.000 C 
ATOM      2  C   UNL     1      46.449   8.454  12.172  0.00  0.00    +0.000 C 
ENDROOT
BRANCH   2   3
ATOM      3  C   UNL     1      45.936   7.038  11.958  0.00  0.00    +0.000 A 
ATOM      4  C   UNL     1      45.133   6.418  12.922  0.00  0.00    +0.000 A 
ATOM      5  C   UNL     1      44.586   5.152  12.685  0.00  0.00    +0.000 A 
ATOM      6  C   UNL     1      44.833   4.477  11.481  0.00  0.00    +0.000 A 
ATOM      7  C   UNL     1      45.670   5.078  10.536  0.00  0.00    +0.000 A 
ATOM      8  C   UNL     1      46.218   6.338  10.772  0.00  0.00    +0.000 A 
BRANCH   6   9
ATOM      9  C   UNL     1      44.213   3.130  11.208  0.00  0.00    +0.000 C 
BRANCH   9  10
ATOM     10  O   UNL     1      43.908   3.024   9.819  0.00  0.00    +0.000 OA
BRANCH  10  11
ATOM     11  C   UNL     1      44.394   1.803   9.264  0.00  0.00    +0.000 C 
BRANCH  11  12
ATOM     12  C   UNL     1      45.517   2.070   8.293  0.00  0.00    +0.000 A 
ATOM     13  C   UNL     1      45.631   3.326   7.685  0.00  0.00    +0.000 A 
ATOM     14  C   UNL     1      46.696   3.562   6.829  0.00  0.00    +0.000 A 
ATOM     15  N   UNL     1      47.648   2.650   6.543  0.00  0.00    +0.000 NA
ATOM     16  C   UNL     1      47.528   1.446   7.143  0.00  0.00    +0.000 A 
ATOM     17  C   UNL     1      46.502   1.116   8.016  0.00  0.00    +0.000 A 
ENDBRANCH  11  12
ENDBRANCH  10  11
ENDBRANCH   9  10
ENDBRANCH   6   9
ENDBRANCH   2   3
BRANCH   2  18
ATOM     18  N   UNL     1      47.689   8.412  12.929  0.00  0.00    +0.000 N 
ATOM     19  C   UNL     1      48.616   9.421  12.892  0.00  0.00    +0.000 C 
ATOM     20  O   UNL     1      48.456  10.446  12.234  0.00  0.00    +0.000 OA
ATOM     21  H   UNL     1      48.022   7.479  13.175  0.00  0.00    +0.000 HD
BRANCH  19  22
ATOM     22  C   UNL     1      49.796   9.252  13.741  0.00  0.00    +0.000 A 
ATOM     23  C   UNL     1      49.749   9.622  15.078  0.00  0.00    +0.000 A 
ATOM     24  S   UNL     1      51.221   9.369  15.904  0.00  0.00    +0.000 S 
ATOM     25  C   UNL     1      51.976   8.792  14.492  0.00  0.00    +0.000 A 
ATOM     26  N   UNL     1      53.289   8.440  14.489  0.00  0.00    +0.000 NA
ATOM     27  C   UNL     1      53.736   8.058  13.338  0.00  0.00    +0.000 A 
ATOM     28  N   UNL     1      52.985   7.977  12.195  0.00  0.00    +0.000 N 
ATOM     29  C   UNL     1      51.642   8.270  12.163  0.00  0.00    +0.000 A 
ATOM     30  O   UNL     1      50.975   8.107  11.148  0.00  0.00    +0.000 OA
ATOM     31  C   UNL     1      51.106   8.752  13.419  0.00  0.00    +0.000 A 
ATOM     32  H   UNL     1      53.384   7.644  11.330  0.00  0.00    +0.000 HD
ENDBRANCH  19  22
ENDBRANCH   2  18
TORSDOF 7
ENDMDL
