MODEL 1
REMARK VINA RESULT:    -8.402      0.000      0.000
REMARK INTER + INTRA:         -12.268
REMARK INTER:                 -11.349
REMARK INTRA:                  -0.920
REMARK UNBOUND:                -0.920
REMARK  Name = 
REMARK  7 active torsions:
REMARK  status: ('A' for Active; 'I' for Inactive)
REMARK    1  A    between atoms: C_1  and  C_2
REMARK    2  A    between atoms: C_2  and  N_3
REMARK    3  A    between atoms: C_2  and  C_21
REMARK    4  A    between atoms: C_4  and  C_6
REMARK    5  A    between atoms: C_9  and  C_10
REMARK    6  A    between atoms: C_10  and  N_11
REMARK    7  A    between atoms: C_12  and  C_14
REMARK                            x       y       z     vdW  Elec       q    Type
REMARK                         _______ _______ _______ _____ _____    ______ ____
ROOT
ATOM      1  N   UNL     1      47.251   4.781  16.061  0.00  0.00    +0.000 N 
ATOM      2  C   UNL     1      47.518   5.325  14.822  0.00  0.00    +0.000 C 
ATOM      3  O   UNL     1      48.387   6.158  14.615  0.00  0.00    +0.000 OA
ATOM      4  H   UNL     1      46.721   3.915  16.124  0.00  0.00    +0.000 HD
ENDROOT
BRANCH   2   5
ATOM      5  C   UNL     1      46.690   4.827  13.705  0.00  0.00    +0.000 A 
ATOM      6  C   UNL     1      46.139   5.724  12.796  0.00  0.00    +0.000 A 
ATOM      7  C   UNL     1      45.373   5.241  11.738  0.00  0.00    +0.000 A 
ATOM      8  C   UNL     1      45.159   3.866  11.630  0.00  0.00    +0.000 A 
ATOM      9  N   UNL     1      45.673   2.976  12.517  0.00  0.00    +0.000 NA
ATOM     10  C   UNL     1      46.416   3.475  13.536  0.00  0.00    +0.000 A 
BRANCH   8  11
ATOM     11  C   UNL     1      44.375   3.309  10.467  0.00  0.00    +0.000 C 
BRANCH  11  12
ATOM     12  N   UNL     1      45.242   2.798   9.429  0.00  0.00    +0.000 N 
ATOM     13  C   UNL     1      45.683   3.563   8.379  0.00  0.00    +0.000 C 
ATOM     14  O   UNL     1      45.397   4.750   8.245  0.00  0.00    +0.000 OA
ATOM     15  H   UNL     1      45.654   1.878   9.549  0.00  0.00    +0.000 HD
BRANCH  13  16
ATOM     16  C   UNL     1      46.513   2.848   7.439  0.00  0.00    +0.000 A 
ATOM     17  N   UNL     1      46.964   1.618   7.594  0.00  0.00    +0.000 NA
ATOM     18  N   UNL     1      47.688   1.291   6.468  0.00  0.00    +0.000 NA
ATOM     19  C   UNL     1      47.666   2.329   5.663  0.00  0.00    +0.000 A 
ATOM     20  N   UNL     1      46.940   3.328   6.231  0.00  0.00    +0.000 N 
ATOM     21  H   UNL     1      46.739   4.244   5.855  0.00  0.00    +0.000 HD
ENDBRANCH  13  16
ENDBRANCH  11  12
ENDBRANCH   8  11
ENDBRANCH   2   5
BRANCH   1  23
ATOM     22  C   UNL     1      47.092   5.157  18.458  0.00  0.00    +0.000 C 
ATOM     23  C   UNL     1      48.009   5.137  17.237  0.00  0.00    +0.000 C 
BRANCH  23  24
ATOM     24  C   UNL     1      49.166   4.177  17.382  0.00  0.00    +0.000 A 
ATOM     25  C   UNL     1      49.071   2.816  17.137  0.00  0.00    +0.000 A 
ATOM     26  S   UNL     1      50.565   1.997  17.272  0.00  0.00    +0.000 S 
ATOM     27  C   UNL     1      51.383   3.433  17.676  0.00  0.00    +0.000 A 
ATOM     28  N   UNL     1      52.731   3.457  17.872  0.00  0.00    +0.000 NA
ATOM     29  C   UNL     1      53.206   4.629  18.133  0.00  0.00    +0.000 A 
ATOM     30  N   UNL     1      52.458   5.774  18.253  0.00  0.00    +0.000 N 
ATOM     31  C   UNL     1      51.085   5.774  18.191  0.00  0.00    +0.000 A 
ATOM     32  O   UNL     1      50.418   6.754  18.504  0.00  0.00    +0.000 OA
ATOM     33  C   UNL     1      50.520   4.504  17.768  0.00  0.00    +0.000 A 
ATOM     34  H   UNL     1      52.893   6.645  18.523  0.00  0.00    +0.000 HD
ENDBRANCH  23  24
ENDBRANCH   1  23
TORSDOF 6
ENDMDL
MODEL 2
REMARK VINA RESULT:    -8.126      1.376      1.937
REMARK INTER + INTRA:         -11.895
REMARK INTER:                 -11.031
REMARK INTRA:                  -0.864
REMARK UNBOUND:                -0.920
REMARK  Name = 
REMARK  7 active torsions:
REMARK  status: ('A' for Active; 'I' for Inactive)
REMARK    1  A    between atoms: C_1  and  C_2
REMARK    2  A    between atoms: C_2  and  N_3
REMARK    3  A    between atoms: C_2  and  C_21
REMARK    4  A    between atoms: C_4  and  C_6
REMARK    5  A    between atoms: C_9  and  C_10
REMARK    6  A    between atoms: C_10  and  N_11
REMARK    7  A    between atoms: C_12  and  C_14
REMARK                            x       y       z     vdW  Elec       q    Type
REMARK                         _______ _______ _______ _____ _____    ______ ____
ROOT
ATOM      1  N   UNL     1      47.553   5.247  16.313  0.00  0.00    +0.000 N 
ATOM      2  C   UNL     1      47.720   5.726  15.031  0.00  0.00    +0.000 C 
ATOM      3  O   UNL     1      48.485   6.631  14.733  0.00  0.00    +0.000 OA
ATOM      4  H   UNL     1      47.124   4.337  16.455  0.00  0.00    +0.000 HD
ENDROOT
BRANCH   2   5
ATOM      5  C   UNL     1      46.919   5.061  13.982  0.00  0.00    +0.000 A 
ATOM      6  C   UNL     1      46.290   5.823  13.003  0.00  0.00    +0.000 A 
ATOM      7  C   UNL     1      45.551   5.184  12.011  0.00  0.00    +0.000 A 
ATOM      8  C   UNL     1      45.441   3.793  12.039  0.00  0.00    +0.000 A 
ATOM      9  N   UNL     1      46.032   3.033  12.997  0.00  0.00    +0.000 NA
ATOM     10  C   UNL     1      46.747   3.683  13.949  0.00  0.00    +0.000 A 
BRANCH   8  11
ATOM     11  C   UNL     1      44.688   3.069  10.950  0.00  0.00    +0.000 C 
BRANCH  11  12
ATOM     12  N   UNL     1      45.558   2.672   9.866  0.00  0.00    +0.000 N 
ATOM     13  C   UNL     1      45.438   3.166   8.591  0.00  0.00    +0.000 C 
ATOM     14  O   UNL     1      44.597   4.002   8.271  0.00  0.00    +0.000 OA
ATOM     15  H   UNL     1      46.376   2.111  10.080  0.00  0.00    +0.000 HD
BRANCH  13  16
ATOM     16  C   UNL     1      46.387   2.614   7.655  0.00  0.00    +0.000 A 
ATOM     17  N   UNL     1      46.865   1.384   7.680  0.00  0.00    +0.000 NA
ATOM     18  N   UNL     1      47.714   1.241   6.605  0.00  0.00    +0.000 NA
ATOM     19  C   UNL     1      47.738   2.384   5.958  0.00  0.00    +0.000 A 
ATOM     20  N   UNL     1      46.919   3.274   6.581  0.00  0.00    +0.000 N 
ATOM     21  H   UNL     1      46.725   4.230   6.320  0.00  0.00    +0.000 HD
ENDBRANCH  13  16
ENDBRANCH  11  12
ENDBRANCH   8  11
ENDBRANCH   2   5
BRANCH   1  23
ATOM     22  C   UNL     1      47.598   5.408  18.739  0.00  0.00    +0.000 C 
ATOM     23  C   UNL     1      48.302   5.768  17.432  0.00  0.00    +0.000 C 
BRANCH  23  24
ATOM     24  C   UNL     1      49.717   5.245  17.359  0.00  0.00    +0.000 A 
ATOM     25  C   UNL     1      50.836   6.062  17.326  0.00  0.00    +0.000 A 
ATOM     26  S   UNL     1      52.309   5.195  17.358  0.00  0.00    +0.000 S 
ATOM     27  C   UNL     1      51.497   3.701  17.405  0.00  0.00    +0.000 A 
ATOM     28  N   UNL     1      52.173   2.522  17.503  0.00  0.00    +0.000 NA
ATOM     29  C   UNL     1      51.412   1.481  17.566  0.00  0.00    +0.000 A 
ATOM     30  N   UNL     1      50.041   1.501  17.503  0.00  0.00    +0.000 N 
ATOM     31  C   UNL     1      49.325   2.652  17.276  0.00  0.00    +0.000 A 
ATOM     32  O   UNL     1      48.127   2.634  17.014  0.00  0.00    +0.000 OA
ATOM     33  C   UNL     1      50.129   3.860  17.332  0.00  0.00    +0.000 A 
ATOM     34  H   UNL     1      49.515   0.639  17.494  0.00  0.00    +0.000 HD
ENDBRANCH  23  24
ENDBRANCH   1  23
TORSDOF 6
ENDMDL
MODEL 3
REMARK VINA RESULT:    -7.894      2.476      3.025
REMARK INTER + INTRA:         -11.582
REMARK INTER:                 -10.463
REMARK INTRA:                  -1.119
REMARK UNBOUND:                -0.920
REMARK  Name = 
REMARK  7 active torsions:
REMARK  status: ('A' for Active; 'I' for Inactive)
REMARK    1  A    between atoms: C_1  and  C_2
REMARK    2  A    between atoms: C_2  and  N_3
REMARK    3  A    between atoms: C_2  and  C_21
REMARK    4  A    between atoms: C_4  and  C_6
REMARK    5  A    between atoms: C_9  and  C_10
REMARK    6  A    between atoms: C_10  and  N_11
REMARK    7  A    between atoms: C_12  and  C_14
REMARK                            x       y       z     vdW  Elec       q    Type
REMARK                         _______ _______ _______ _____ _____    ______ ____
ROOT
ATOM      1  N   UNL     1      47.906   7.252  15.504  0.00  0.00    +0.000 N 
ATOM      2  C   UNL     1      48.346   6.691  14.324  0.00  0.00    +0.000 C 
ATOM      3  O   UNL     1      49.476   6.832  13.880  0.00  0.00    +0.000 OA
ATOM      4  H   UNL     1      47.069   6.886  15.952  0.00  0.00    +0.000 HD
ENDROOT
BRANCH   2   5
ATOM      5  C   UNL     1      47.363   5.864  13.595  0.00  0.00    +0.000 A 
ATOM      6  C   UNL     1      46.730   6.372  12.466  0.00  0.00    +0.000 A 
ATOM      7  C   UNL     1      45.817   5.577  11.778  0.00  0.00    +0.000 A 
ATOM      8  C   UNL     1      45.545   4.294  12.256  0.00  0.00    +0.000 A 
ATOM      9  N   UNL     1      46.138   3.786  13.366  0.00  0.00    +0.000 NA
ATOM     10  C   UNL     1      47.024   4.583  14.014  0.00  0.00    +0.000 A 
BRANCH   8  11
ATOM     11  C   UNL     1      44.598   3.390  11.504  0.00  0.00    +0.000 C 
BRANCH  11  12
ATOM     12  N   UNL     1      45.275   2.640  10.471  0.00  0.00    +0.000 N 
ATOM     13  C   UNL     1      45.286   3.022   9.153  0.00  0.00    +0.000 C 
ATOM     14  O   UNL     1      44.741   4.045   8.746  0.00  0.00    +0.000 OA
ATOM     15  H   UNL     1      45.882   1.874  10.745  0.00  0.00    +0.000 HD
BRANCH  13  16
ATOM     16  C   UNL     1      45.994   2.115   8.283  0.00  0.00    +0.000 A 
ATOM     17  N   UNL     1      46.021   0.800   8.402  0.00  0.00    +0.000 NA
ATOM     18  N   UNL     1      46.776   0.300   7.364  0.00  0.00    +0.000 NA
ATOM     19  C   UNL     1      47.194   1.318   6.646  0.00  0.00    +0.000 A 
ATOM     20  N   UNL     1      46.726   2.476   7.185  0.00  0.00    +0.000 N 
ATOM     21  H   UNL     1      46.873   3.419   6.857  0.00  0.00    +0.000 HD
ENDBRANCH  13  16
ENDBRANCH  11  12
ENDBRANCH   8  11
ENDBRANCH   2   5
BRANCH   1  23
ATOM     22  C   UNL     1      48.548   9.532  16.059  0.00  0.00    +0.000 C 
ATOM     23  C   UNL     1      48.768   8.047  16.347  0.00  0.00    +0.000 C 
BRANCH  23  24
ATOM     24  C   UNL     1      48.516   7.681  17.789  0.00  0.00    +0.000 A 
ATOM     25  C   UNL     1      47.968   8.552  18.719  0.00  0.00    +0.000 A 
ATOM     26  S   UNL     1      47.693   7.830  20.244  0.00  0.00    +0.000 S 
ATOM     27  C   UNL     1      48.309   6.335  19.714  0.00  0.00    +0.000 A 
ATOM     28  N   UNL     1      48.314   5.237  20.520  0.00  0.00    +0.000 NA
ATOM     29  C   UNL     1      48.778   4.171  19.958  0.00  0.00    +0.000 A 
ATOM     30  N   UNL     1      49.273   4.106  18.680  0.00  0.00    +0.000 N 
ATOM     31  C   UNL     1      49.405   5.214  17.877  0.00  0.00    +0.000 A 
ATOM     32  O   UNL     1      50.035   5.185  16.825  0.00  0.00    +0.000 OA
ATOM     33  C   UNL     1      48.775   6.405  18.418  0.00  0.00    +0.000 A 
ATOM     34  H   UNL     1      49.679   3.250  18.330  0.00  0.00    +0.000 HD
ENDBRANCH  23  24
ENDBRANCH   1  23
TORSDOF 6
ENDMDL
MODEL 4
REMARK VINA RESULT:    -7.597      2.277      2.693
REMARK INTER + INTRA:         -11.181
REMARK INTER:                 -10.259
REMARK INTRA:                  -0.922
REMARK UNBOUND:                -0.920
REMARK  Name = 
REMARK  7 active torsions:
REMARK  status: ('A' for Active; 'I' for Inactive)
REMARK    1  A    between atoms: C_1  and  C_2
REMARK    2  A    between atoms: C_2  and  N_3
REMARK    3  A    between atoms: C_2  and  C_21
REMARK    4  A    between atoms: C_4  and  C_6
REMARK    5  A    between atoms: C_9  and  C_10
REMARK    6  A    between atoms: C_10  and  N_11
REMARK    7  A    between atoms: C_12  and  C_14
REMARK                            x       y       z     vdW  Elec       q    Type
REMARK                         _______ _______ _______ _____ _____    ______ ____
ROOT
ATOM      1  N   UNL     1      47.975   7.447  14.829  0.00  0.00    +0.000 N 
ATOM      2  C   UNL     1      47.428   7.755  13.601  0.00  0.00    +0.000 C 
ATOM      3  O   UNL     1      47.616   8.810  13.015  0.00  0.00    +0.000 OA
ATOM      4  H   UNL     1      48.010   6.477  15.133  0.00  0.00    +0.000 HD
ENDROOT
BRANCH   2   5
ATOM      5  C   UNL     1      46.586   6.708  12.987  0.00  0.00    +0.000 A 
ATOM      6  C   UNL     1      45.887   6.978  11.815  0.00  0.00    +0.000 A 
ATOM      7  C   UNL     1      45.109   5.978  11.238  0.00  0.00    +0.000 A 
ATOM      8  C   UNL     1      45.033   4.734  11.865  0.00  0.00    +0.000 A 
ATOM      9  N   UNL     1      45.692   4.456  13.019  0.00  0.00    +0.000 NA
ATOM     10  C   UNL     1      46.443   5.449  13.557  0.00  0.00    +0.000 A 
BRANCH   8  11
ATOM     11  C   UNL     1      44.237   3.616  11.237  0.00  0.00    +0.000 C 
BRANCH  11  12
ATOM     12  N   UNL     1      45.048   2.808  10.355  0.00  0.00    +0.000 N 
ATOM     13  C   UNL     1      45.098   3.000   8.997  0.00  0.00    +0.000 C 
ATOM     14  O   UNL     1      44.475   3.889   8.421  0.00  0.00    +0.000 OA
ATOM     15  H   UNL     1      45.714   2.160  10.764  0.00  0.00    +0.000 HD
BRANCH  13  16
ATOM     16  C   UNL     1      45.946   2.064   8.300  0.00  0.00    +0.000 A 
ATOM     17  N   UNL     1      45.934   0.753   8.457  0.00  0.00    +0.000 NA
ATOM     18  N   UNL     1      46.865   0.218   7.593  0.00  0.00    +0.000 NA
ATOM     19  C   UNL     1      47.422   1.213   6.939  0.00  0.00    +0.000 A 
ATOM     20  N   UNL     1      46.876   2.388   7.350  0.00  0.00    +0.000 N 
ATOM     21  H   UNL     1      47.093   3.321   7.031  0.00  0.00    +0.000 HD
ENDBRANCH  13  16
ENDBRANCH  11  12
ENDBRANCH   8  11
ENDBRANCH   2   5
BRANCH   1  23
ATOM     22  C   UNL     1      48.192   8.827  16.820  0.00  0.00    +0.000 C 
ATOM     23  C   UNL     1      48.856   8.353  15.528  0.00  0.00    +0.000 C 
BRANCH  23  24
ATOM     24  C   UNL     1      50.180   7.666  15.761  0.00  0.00    +0.000 A 
ATOM     25  C   UNL     1      51.391   8.158  15.301  0.00  0.00    +0.000 A 
ATOM     26  S   UNL     1      52.735   7.232  15.809  0.00  0.00    +0.000 S 
ATOM     27  C   UNL     1      51.740   6.138  16.649  0.00  0.00    +0.000 A 
ATOM     28  N   UNL     1      52.260   5.109  17.375  0.00  0.00    +0.000 NA
ATOM     29  C   UNL     1      51.375   4.393  17.985  0.00  0.00    +0.000 A 
ATOM     30  N   UNL     1      50.018   4.583  17.909  0.00  0.00    +0.000 N 
ATOM     31  C   UNL     1      49.445   5.526  17.090  0.00  0.00    +0.000 A 
ATOM     32  O   UNL     1      48.239   5.552  16.869  0.00  0.00    +0.000 OA
ATOM     33  C   UNL     1      50.403   6.438  16.490  0.00  0.00    +0.000 A 
ATOM     34  H   UNL     1      49.384   3.942  18.364  0.00  0.00    +0.000 HD
ENDBRANCH  23  24
ENDBRANCH   1  23
TORSDOF 6
ENDMDL
MODEL 5
REMARK VINA RESULT:    -7.557      2.809      3.623
REMARK INTER + INTRA:         -11.128
REMARK INTER:                 -10.274
REMARK INTRA:                  -0.854
REMARK UNBOUND:                -0.920
REMARK  Name = 
REMARK  7 active torsions:
REMARK  status: ('A' for Active; 'I' for Inactive)
REMARK    1  A    between atoms: C_1  and  C_2
REMARK    2  A    between atoms: C_2  and  N_3
REMARK    3  A    between atoms: C_2  and  C_21
REMARK    4  A    between atoms: C_4  and  C_6
REMARK    5  A    between atoms: C_9  and  C_10
REMARK    6  A    between atoms: C_10  and  N_11
REMARK    7  A    between atoms: C_12  and  C_14
REMARK                            x       y       z     vdW  Elec       q    Type
REMARK                         _______ _______ _______ _____ _____    ______ ____
ROOT
ATOM      1  N   UNL     1      47.805   5.657  15.566  0.00  0.00    +0.000 N 
ATOM      2  C   UNL     1      47.202   4.511  15.092  0.00  0.00    +0.000 C 
ATOM      3  O   UNL     1      47.170   3.453  15.703  0.00  0.00    +0.000 OA
ATOM      4  H   UNL     1      47.568   6.555  15.152  0.00  0.00    +0.000 HD
ENDROOT
BRANCH   2   5
ATOM      5  C   UNL     1      46.552   4.620  13.770  0.00  0.00    +0.000 A 
ATOM      6  C   UNL     1      46.699   5.782  13.019  0.00  0.00    +0.000 A 
ATOM      7  C   UNL     1      46.094   5.868  11.768  0.00  0.00    +0.000 A 
ATOM      8  C   UNL     1      45.336   4.790  11.308  0.00  0.00    +0.000 A 
ATOM      9  N   UNL     1      45.167   3.654  12.033  0.00  0.00    +0.000 NA
ATOM     10  C   UNL     1      45.768   3.600  13.248  0.00  0.00    +0.000 A 
BRANCH   8  11
ATOM     11  C   UNL     1      44.711   4.833   9.935  0.00  0.00    +0.000 C 
BRANCH  11  12
ATOM     12  N   UNL     1      45.569   4.243   8.933  0.00  0.00    +0.000 N 
ATOM     13  C   UNL     1      45.477   2.929   8.548  0.00  0.00    +0.000 C 
ATOM     14  O   UNL     1      44.644   2.152   9.007  0.00  0.00    +0.000 OA
ATOM     15  H   UNL     1      46.174   4.852   8.392  0.00  0.00    +0.000 HD
BRANCH  13  16
ATOM     16  C   UNL     1      46.449   2.537   7.557  0.00  0.00    +0.000 A 
ATOM     17  N   UNL     1      47.062   1.370   7.501  0.00  0.00    +0.000 NA
ATOM     18  N   UNL     1      47.885   1.379   6.396  0.00  0.00    +0.000 NA
ATOM     19  C   UNL     1      47.758   2.549   5.812  0.00  0.00    +0.000 A 
ATOM     20  N   UNL     1      46.866   3.308   6.506  0.00  0.00    +0.000 N 
ATOM     21  H   UNL     1      46.558   4.247   6.302  0.00  0.00    +0.000 HD
ENDBRANCH  13  16
ENDBRANCH  11  12
ENDBRANCH   8  11
ENDBRANCH   2   5
BRANCH   1  23
ATOM     22  C   UNL     1      49.871   5.189  16.761  0.00  0.00    +0.000 C 
ATOM     23  C   UNL     1      48.440   5.713  16.861  0.00  0.00    +0.000 C 
BRANCH  23  24
ATOM     24  C   UNL     1      48.363   7.128  17.382  0.00  0.00    +0.000 A 
ATOM     25  C   UNL     1      48.557   8.250  16.591  0.00  0.00    +0.000 A 
ATOM     26  S   UNL     1      48.298   9.720  17.424  0.00  0.00    +0.000 S 
ATOM     27  C   UNL     1      47.933   8.904  18.871  0.00  0.00    +0.000 A 
ATOM     28  N   UNL     1      47.557   9.575  19.996  0.00  0.00    +0.000 NA
ATOM     29  C   UNL     1      47.276   8.812  20.998  0.00  0.00    +0.000 A 
ATOM     30  N   UNL     1      47.370   7.442  20.996  0.00  0.00    +0.000 N 
ATOM     31  C   UNL     1      47.867   6.734  19.928  0.00  0.00    +0.000 A 
ATOM     32  O   UNL     1      48.142   5.541  20.008  0.00  0.00    +0.000 OA
ATOM     33  C   UNL     1      48.068   7.538  18.736  0.00  0.00    +0.000 A 
ATOM     34  H   UNL     1      47.195   6.915  21.840  0.00  0.00    +0.000 HD
ENDBRANCH  23  24
ENDBRANCH   1  23
TORSDOF 6
ENDMDL
MODEL 6
REMARK VINA RESULT:    -7.381      2.949      3.729
REMARK INTER + INTRA:         -10.890
REMARK INTER:                  -9.974
REMARK INTRA:                  -0.916
REMARK UNBOUND:                -0.920
REMARK  Name = 
REMARK  7 active torsions:
REMARK  status: ('A' for Active; 'I' for Inactive)
REMARK    1  A    between atoms: C_1  and  C_2
REMARK    2  A    between atoms: C_2  and  N_3
REMARK    3  A    between atoms: C_2  and  C_21
REMARK    4  A    between atoms: C_4  and  C_6
REMARK    5  A    between atoms: C_9  and  C_10
REMARK    6  A    between atoms: C_10  and  N_11
REMARK    7  A    between atoms: C_12  and  C_14
REMARK                            x       y       z     vdW  Elec       q    Type
REMARK                         _______ _______ _______ _____ _____    ______ ____
ROOT
ATOM      1  N   UNL     1      47.922   5.740  15.544  0.00  0.00    +0.000 N 
ATOM      2  C   UNL     1      47.220   4.619  15.155  0.00  0.00    +0.000 C 
ATOM      3  O   UNL     1      47.119   3.607  15.832  0.00  0.00    +0.000 OA
ATOM      4  H   UNL     1      47.746   6.627  15.079  0.00  0.00    +0.000 HD
ENDROOT
BRANCH   2   5
ATOM      5  C   UNL     1      46.550   4.698  13.841  0.00  0.00    +0.000 A 
ATOM      6  C   UNL     1      46.508   5.908  13.156  0.00  0.00    +0.000 A 
ATOM      7  C   UNL     1      45.888   5.967  11.911  0.00  0.00    +0.000 A 
ATOM      8  C   UNL     1      45.302   4.811  11.392  0.00  0.00    +0.000 A 
ATOM      9  N   UNL     1      45.316   3.626  12.053  0.00  0.00    +0.000 NA
ATOM     10  C   UNL     1      45.928   3.598  13.263  0.00  0.00    +0.000 A 
BRANCH   8  11
ATOM     11  C   UNL     1      44.665   4.832  10.024  0.00  0.00    +0.000 C 
BRANCH  11  12
ATOM     12  N   UNL     1      45.528   4.253   9.019  0.00  0.00    +0.000 N 
ATOM     13  C   UNL     1      45.385   2.968   8.560  0.00  0.00    +0.000 C 
ATOM     14  O   UNL     1      44.498   2.211   8.947  0.00  0.00    +0.000 OA
ATOM     15  H   UNL     1      46.182   4.858   8.532  0.00  0.00    +0.000 HD
BRANCH  13  16
ATOM     16  C   UNL     1      46.371   2.580   7.581  0.00  0.00    +0.000 A 
ATOM     17  N   UNL     1      47.010   1.425   7.550  0.00  0.00    +0.000 NA
ATOM     18  N   UNL     1      47.838   1.432   6.449  0.00  0.00    +0.000 NA
ATOM     19  C   UNL     1      47.689   2.589   5.843  0.00  0.00    +0.000 A 
ATOM     20  N   UNL     1      46.777   3.340   6.518  0.00  0.00    +0.000 N 
ATOM     21  H   UNL     1      46.449   4.269   6.296  0.00  0.00    +0.000 HD
ENDBRANCH  13  16
ENDBRANCH  11  12
ENDBRANCH   8  11
ENDBRANCH   2   5
BRANCH   1  23
ATOM     22  C   UNL     1      50.094   5.642  16.633  0.00  0.00    +0.000 C 
ATOM     23  C   UNL     1      48.589   5.825  16.822  0.00  0.00    +0.000 C 
BRANCH  23  24
ATOM     24  C   UNL     1      48.230   7.138  17.475  0.00  0.00    +0.000 A 
ATOM     25  C   UNL     1      47.648   7.238  18.729  0.00  0.00    +0.000 A 
ATOM     26  S   UNL     1      47.459   8.852  19.261  0.00  0.00    +0.000 S 
ATOM     27  C   UNL     1      48.135   9.467  17.826  0.00  0.00    +0.000 A 
ATOM     28  N   UNL     1      48.327  10.803  17.641  0.00  0.00    +0.000 NA
ATOM     29  C   UNL     1      48.886  11.106  16.517  0.00  0.00    +0.000 A 
ATOM     30  N   UNL     1      49.238  10.204  15.544  0.00  0.00    +0.000 N 
ATOM     31  C   UNL     1      48.946   8.864  15.633  0.00  0.00    +0.000 A 
ATOM     32  O   UNL     1      49.074   8.104  14.678  0.00  0.00    +0.000 OA
ATOM     33  C   UNL     1      48.440   8.461  16.933  0.00  0.00    +0.000 A 
ATOM     34  H   UNL     1      49.613  10.522  14.662  0.00  0.00    +0.000 HD
ENDBRANCH  23  24
ENDBRANCH   1  23
TORSDOF 6
ENDMDL
MODEL 7
REMARK VINA RESULT:    -7.078      2.960      3.757
REMARK INTER + INTRA:         -10.481
REMARK INTER:                 -10.426
REMARK INTRA:                  -0.054
REMARK UNBOUND:                -0.920
REMARK  Name = 
REMARK  7 active torsions:
REMARK  status: ('A' for Active; 'I' for Inactive)
REMARK    1  A    between atoms: C_1  and  C_2
REMARK    2  A    between atoms: C_2  and  N_3
REMARK    3  A    between atoms: C_2  and  C_21
REMARK    4  A    between atoms: C_4  and  C_6
REMARK    5  A    between atoms: C_9  and  C_10
REMARK    6  A    between atoms: C_10  and  N_11
REMARK    7  A    between atoms: C_12  and  C_14
REMARK                            x       y       z     vdW  Elec       q    Type
REMARK                         _______ _______ _______ _____ _____    ______ ____
ROOT
ATOM      1  N   UNL     1      47.848   5.912  14.785  0.00  0.00    +0.000 N 
ATOM      2  C   UNL     1      46.983   4.844  14.677  0.00  0.00    +0.000 C 
ATOM      3  O   UNL     1      46.719   4.083  15.595  0.00  0.00    +0.000 OA
ATOM      4  H   UNL     1      47.818   6.654  14.090  0.00  0.00    +0.000 HD
ENDROOT
BRANCH   2   5
ATOM      5  C   UNL     1      46.347   4.658  13.357  0.00  0.00    +0.000 A 
ATOM      6  C   UNL     1      45.680   3.472  13.069  0.00  0.00    +0.000 A 
ATOM      7  C   UNL     1      45.071   3.314  11.827  0.00  0.00    +0.000 A 
ATOM      8  C   UNL     1      45.165   4.347  10.892  0.00  0.00    +0.000 A 
ATOM      9  N   UNL     1      45.827   5.504  11.146  0.00  0.00    +0.000 NA
ATOM     10  C   UNL     1      46.409   5.629  12.365  0.00  0.00    +0.000 A 
BRANCH   8  11
ATOM     11  C   UNL     1      44.474   4.226   9.556  0.00  0.00    +0.000 C 
BRANCH  11  12
ATOM     12  N   UNL     1      45.390   3.839   8.508  0.00  0.00    +0.000 N 
ATOM     13  C   UNL     1      45.722   2.533   8.248  0.00  0.00    +0.000 C 
ATOM     14  O   UNL     1      45.250   1.583   8.868  0.00  0.00    +0.000 OA
ATOM     15  H   UNL     1      45.699   4.544   7.847  0.00  0.00    +0.000 HD
BRANCH  13  16
ATOM     16  C   UNL     1      46.678   2.370   7.179  0.00  0.00    +0.000 A 
ATOM     17  N   UNL     1      47.536   1.374   7.061  0.00  0.00    +0.000 NA
ATOM     18  N   UNL     1      48.246   1.567   5.896  0.00  0.00    +0.000 NA
ATOM     19  C   UNL     1      47.810   2.674   5.340  0.00  0.00    +0.000 A 
ATOM     20  N   UNL     1      46.826   3.211   6.110  0.00  0.00    +0.000 N 
ATOM     21  H   UNL     1      46.295   4.054   5.944  0.00  0.00    +0.000 HD
ENDBRANCH  13  16
ENDBRANCH  11  12
ENDBRANCH   8  11
ENDBRANCH   2   5
BRANCH   1  23
ATOM     22  C   UNL     1      48.812   4.970  16.809  0.00  0.00    +0.000 C 
ATOM     23  C   UNL     1      48.507   6.245  16.026  0.00  0.00    +0.000 C 
BRANCH  23  24
ATOM     24  C   UNL     1      49.741   7.061  15.721  0.00  0.00    +0.000 A 
ATOM     25  C   UNL     1      51.004   6.751  16.201  0.00  0.00    +0.000 A 
ATOM     26  S   UNL     1      52.228   7.783  15.602  0.00  0.00    +0.000 S 
ATOM     27  C   UNL     1      51.107   8.684  14.693  0.00  0.00    +0.000 A 
ATOM     28  N   UNL     1      51.499   9.705  13.881  0.00  0.00    +0.000 NA
ATOM     29  C   UNL     1      50.534  10.263  13.230  0.00  0.00    +0.000 A 
ATOM     30  N   UNL     1      49.209   9.923  13.339  0.00  0.00    +0.000 N 
ATOM     31  C   UNL     1      48.754   8.988  14.239  0.00  0.00    +0.000 A 
ATOM     32  O   UNL     1      47.560   8.840  14.478  0.00  0.00    +0.000 OA
ATOM     33  C   UNL     1      49.815   8.244  14.894  0.00  0.00    +0.000 A 
ATOM     34  H   UNL     1      48.501  10.448  12.845  0.00  0.00    +0.000 HD
ENDBRANCH  23  24
ENDBRANCH   1  23
TORSDOF 6
ENDMDL
MODEL 8
REMARK VINA RESULT:    -6.966      3.496      8.933
REMARK INTER + INTRA:         -10.329
REMARK INTER:                  -9.848
REMARK INTRA:                  -0.481
REMARK UNBOUND:                -0.920
REMARK  Name = 
REMARK  7 active torsions:
REMARK  status: ('A' for Active; 'I' for Inactive)
REMARK    1  A    between atoms: C_1  and  C_2
REMARK    2  A    between atoms: C_2  and  N_3
REMARK    3  A    between atoms: C_2  and  C_21
REMARK    4  A    between atoms: C_4  and  C_6
REMARK    5  A    between atoms: C_9  and  C_10
REMARK    6  A    between atoms: C_10  and  N_11
REMARK    7  A    between atoms: C_12  and  C_14
REMARK                            x       y       z     vdW  Elec       q    Type
REMARK                         _______ _______ _______ _____ _____    ______ ____
ROOT
ATOM      1  N   UNL     1      47.128   6.038  12.914  0.00  0.00    +0.000 N 
ATOM      2  C   UNL     1      47.598   6.736  14.006  0.00  0.00    +0.000 C 
ATOM      3  O   UNL     1      47.650   7.955  14.066  0.00  0.00    +0.000 OA
ATOM      4  H   UNL     1      46.856   5.064  13.022  0.00  0.00    +0.000 HD
ENDROOT
BRANCH   2   5
ATOM      5  C   UNL     1      48.037   5.920  15.157  0.00  0.00    +0.000 A 
ATOM      6  C   UNL     1      49.074   6.366  15.969  0.00  0.00    +0.000 A 
ATOM      7  C   UNL     1      49.468   5.596  17.059  0.00  0.00    +0.000 A 
ATOM      8  C   UNL     1      48.824   4.380  17.296  0.00  0.00    +0.000 A 
ATOM      9  N   UNL     1      47.822   3.919  16.506  0.00  0.00    +0.000 NA
ATOM     10  C   UNL     1      47.459   4.691  15.451  0.00  0.00    +0.000 A 
BRANCH   8  11
ATOM     11  C   UNL     1      49.195   3.547  18.499  0.00  0.00    +0.000 C 
BRANCH  11  12
ATOM     12  N   UNL     1      50.506   2.956  18.360  0.00  0.00    +0.000 N 
ATOM     13  C   UNL     1      50.809   2.021  17.401  0.00  0.00    +0.000 C 
ATOM     14  O   UNL     1      49.997   1.627  16.568  0.00  0.00    +0.000 OA
ATOM     15  H   UNL     1      51.273   3.342  18.902  0.00  0.00    +0.000 HD
BRANCH  13  16
ATOM     16  C   UNL     1      52.167   1.538  17.459  0.00  0.00    +0.000 A 
ATOM     17  N   UNL     1      53.225   2.258  17.780  0.00  0.00    +0.000 NA
ATOM     18  N   UNL     1      54.324   1.427  17.749  0.00  0.00    +0.000 NA
ATOM     19  C   UNL     1      53.910   0.228  17.405  0.00  0.00    +0.000 A 
ATOM     20  N   UNL     1      52.563   0.252  17.214  0.00  0.00    +0.000 N 
ATOM     21  H   UNL     1      51.959  -0.513  16.949  0.00  0.00    +0.000 HD
ENDBRANCH  13  16
ENDBRANCH  11  12
ENDBRANCH   8  11
ENDBRANCH   2   5
BRANCH   1  23
ATOM     22  C   UNL     1      47.775   7.361  10.978  0.00  0.00    +0.000 C 
ATOM     23  C   UNL     1      46.623   6.701  11.735  0.00  0.00    +0.000 C 
BRANCH  23  24
ATOM     24  C   UNL     1      45.862   5.701  10.899  0.00  0.00    +0.000 A 
ATOM     25  C   UNL     1      46.012   5.575   9.527  0.00  0.00    +0.000 A 
ATOM     26  S   UNL     1      45.109   4.285   8.862  0.00  0.00    +0.000 S 
ATOM     27  C   UNL     1      44.478   3.863  10.384  0.00  0.00    +0.000 A 
ATOM     28  N   UNL     1      43.660   2.786  10.547  0.00  0.00    +0.000 NA
ATOM     29  C   UNL     1      43.298   2.577  11.768  0.00  0.00    +0.000 A 
ATOM     30  N   UNL     1      43.646   3.362  12.839  0.00  0.00    +0.000 N 
ATOM     31  C   UNL     1      44.361   4.528  12.704  0.00  0.00    +0.000 A 
ATOM     32  O   UNL     1      44.488   5.326  13.626  0.00  0.00    +0.000 OA
ATOM     33  C   UNL     1      44.900   4.731  11.370  0.00  0.00    +0.000 A 
ATOM     34  H   UNL     1      43.271   3.172  13.758  0.00  0.00    +0.000 HD
ENDBRANCH  23  24
ENDBRANCH   1  23
TORSDOF 6
ENDMDL
MODEL 9
REMARK VINA RESULT:    -6.849      2.509      3.493
REMARK INTER + INTRA:         -10.171
REMARK INTER:                  -9.120
REMARK INTRA:                  -1.051
REMARK UNBOUND:                -0.920
REMARK  Name = 
REMARK  7 active torsions:
REMARK  status: ('A' for Active; 'I' for Inactive)
REMARK    1  A    between atoms: C_1  and  C_2
REMARK    2  A    between atoms: C_2  and  N_3
REMARK    3  A    between atoms: C_2  and  C_21
REMARK    4  A    between atoms: C_4  and  C_6
REMARK    5  A    between atoms: C_9  and  C_10
REMARK    6  A    between atoms: C_10  and  N_11
REMARK    7  A    between atoms: C_12  and  C_14
REMARK                            x       y       z     vdW  Elec       q    Type
REMARK                         _______ _______ _______ _____ _____    ______ ____
ROOT
ATOM      1  N   UNL     1      48.665   4.704  16.572  0.00  0.00    +0.000 N 
ATOM      2  C   UNL     1      47.445   4.224  16.144  0.00  0.00    +0.000 C 
ATOM      3  O   UNL     1      46.755   3.445  16.783  0.00  0.00    +0.000 OA
ATOM      4  H   UNL     1      49.054   5.538  16.140  0.00  0.00    +0.000 HD
ENDROOT
BRANCH   2   5
ATOM      5  C   UNL     1      46.976   4.725  14.836  0.00  0.00    +0.000 A 
ATOM      6  C   UNL     1      45.991   4.031  14.140  0.00  0.00    +0.000 A 
ATOM      7  C   UNL     1      45.545   4.521  12.916  0.00  0.00    +0.000 A 
ATOM      8  C   UNL     1      46.118   5.688  12.406  0.00  0.00    +0.000 A 
ATOM      9  N   UNL     1      47.093   6.369  13.060  0.00  0.00    +0.000 NA
ATOM     10  C   UNL     1      47.506   5.868  14.251  0.00  0.00    +0.000 A 
BRANCH   8  11
ATOM     11  C   UNL     1      45.621   6.271  11.105  0.00  0.00    +0.000 C 
BRANCH  11  12
ATOM     12  N   UNL     1      46.000   5.458   9.972  0.00  0.00    +0.000 N 
ATOM     13  C   UNL     1      45.151   4.556   9.381  0.00  0.00    +0.000 C 
ATOM     14  O   UNL     1      43.993   4.380   9.751  0.00  0.00    +0.000 OA
ATOM     15  H   UNL     1      46.879   5.654   9.505  0.00  0.00    +0.000 HD
BRANCH  13  16
ATOM     16  C   UNL     1      45.740   3.826   8.284  0.00  0.00    +0.000 A 
ATOM     17  N   UNL     1      46.340   4.363   7.238  0.00  0.00    +0.000 NA
ATOM     18  N   UNL     1      46.790   3.335   6.438  0.00  0.00    +0.000 NA
ATOM     19  C   UNL     1      46.449   2.203   7.011  0.00  0.00    +0.000 A 
ATOM     20  N   UNL     1      45.789   2.463   8.172  0.00  0.00    +0.000 N 
ATOM     21  H   UNL     1      45.409   1.802   8.833  0.00  0.00    +0.000 HD
ENDBRANCH  13  16
ENDBRANCH  11  12
ENDBRANCH   8  11
ENDBRANCH   2   5
BRANCH   1  23
ATOM     22  C   UNL     1      50.287   3.253  17.658  0.00  0.00    +0.000 C 
ATOM     23  C   UNL     1      49.230   4.339  17.849  0.00  0.00    +0.000 C 
BRANCH  23  24
ATOM     24  C   UNL     1      49.772   5.580  18.517  0.00  0.00    +0.000 A 
ATOM     25  C   UNL     1      51.124   5.833  18.686  0.00  0.00    +0.000 A 
ATOM     26  S   UNL     1      51.447   7.365  19.371  0.00  0.00    +0.000 S 
ATOM     27  C   UNL     1      49.789   7.734  19.475  0.00  0.00    +0.000 A 
ATOM     28  N   UNL     1      49.352   8.942  19.928  0.00  0.00    +0.000 NA
ATOM     29  C   UNL     1      48.068   9.080  19.909  0.00  0.00    +0.000 A 
ATOM     30  N   UNL     1      47.177   8.113  19.516  0.00  0.00    +0.000 N 
ATOM     31  C   UNL     1      47.566   6.840  19.175  0.00  0.00    +0.000 A 
ATOM     32  O   UNL     1      46.758   5.928  19.029  0.00  0.00    +0.000 OA
ATOM     33  C   UNL     1      49.004   6.681  19.054  0.00  0.00    +0.000 A 
ATOM     34  H   UNL     1      46.182   8.271  19.590  0.00  0.00    +0.000 HD
ENDBRANCH  23  24
ENDBRANCH   1  23
TORSDOF 6
ENDMDL
