MODEL 1
REMARK VINA RESULT:    -8.630      0.000      0.000
REMARK INTER + INTRA:         -11.780
REMARK INTER:                 -11.152
REMARK INTRA:                  -0.628
REMARK UNBOUND:                -0.628
REMARK  Name = 
REMARK  5 active torsions:
REMARK  status: ('A' for Active; 'I' for Inactive)
REMARK    1  A    between atoms: C_2  and  C_4
REMARK    2  A    between atoms: C_7  and  N_8
REMARK    3  A    between atoms: N_8  and  C_9
REMARK    4  A    between atoms: C_9  and  C_10
REMARK    5  A    between atoms: C_14  and  C_15
REMARK                            x       y       z     vdW  Elec       q    Type
REMARK                         _______ _______ _______ _____ _____    ______ ____
ROOT
ATOM      1  N   UNL     1      43.781   4.829   9.859  0.00  0.00    +0.000 N 
ATOM      2  H   UNL     1      43.905   5.805   9.613  0.00  0.00    +0.000 HD
ENDROOT
BRANCH   1   6
ATOM      3  C   UNL     1      46.327   2.290   7.878  0.00  0.00    +0.000 A 
ATOM      4  C   UNL     1      46.341   3.649   7.617  0.00  0.00    +0.000 A 
ATOM      5  N   UNL     1      45.487   4.517   8.221  0.00  0.00    +0.000 NA
ATOM      6  C   UNL     1      44.612   3.995   9.106  0.00  0.00    +0.000 A 
ATOM      7  C   UNL     1      44.613   2.614   9.352  0.00  0.00    +0.000 A 
ATOM      8  N   UNL     1      45.448   1.725   8.749  0.00  0.00    +0.000 NA
BRANCH   3  10
ATOM      9  N   UNL     1      48.334   2.030   6.551  0.00  0.00    +0.000 N 
ATOM     10  C   UNL     1      47.308   1.400   7.200  0.00  0.00    +0.000 C 
ATOM     11  O   UNL     1      47.207   0.181   7.220  0.00  0.00    +0.000 OA
ATOM     12  H   UNL     1      49.035   1.478   6.078  0.00  0.00    +0.000 HD
ATOM     13  H   UNL     1      48.395   3.042   6.557  0.00  0.00    +0.000 HD
ENDBRANCH   3  10
ENDBRANCH   1   6
BRANCH   1  14
ATOM     14  C   UNL     1      43.807   4.626  11.303  0.00  0.00    +0.000 C 
BRANCH  14  15
ATOM     15  C   UNL     1      45.011   5.335  11.882  0.00  0.00    +0.000 A 
ATOM     16  C   UNL     1      45.363   6.606  11.405  0.00  0.00    +0.000 A 
ATOM     17  C   UNL     1      46.424   7.306  11.970  0.00  0.00    +0.000 A 
ATOM     18  C   UNL     1      47.128   6.756  13.041  0.00  0.00    +0.000 A 
ATOM     19  C   UNL     1      46.782   5.500  13.577  0.00  0.00    +0.000 A 
ATOM     20  C   UNL     1      45.733   4.791  12.958  0.00  0.00    +0.000 A 
BRANCH  19  21
ATOM     21  C   UNL     1      47.454   4.965  14.777  0.00  0.00    +0.000 A 
ATOM     22  C   UNL     1      48.277   5.746  15.592  0.00  0.00    +0.000 A 
ATOM     23  N   UNL     1      48.883   5.287  16.716  0.00  0.00    +0.000 NA
ATOM     24  C   UNL     1      48.627   3.997  17.014  0.00  0.00    +0.000 A 
ATOM     25  C   UNL     1      47.808   3.206  16.224  0.00  0.00    +0.000 A 
ATOM     26  N   UNL     1      47.204   3.668  15.101  0.00  0.00    +0.000 NA
ENDBRANCH  19  21
ENDBRANCH  14  15
ENDBRANCH   1  14
TORSDOF 5
ENDMDL
MODEL 2
REMARK VINA RESULT:    -8.250      2.158      3.452
REMARK INTER + INTRA:         -11.290
REMARK INTER:                 -10.660
REMARK INTRA:                  -0.630
REMARK UNBOUND:                -0.628
REMARK  Name = 
REMARK  5 active torsions:
REMARK  status: ('A' for Active; 'I' for Inactive)
REMARK    1  A    between atoms: C_2  and  C_4
REMARK    2  A    between atoms: C_7  and  N_8
REMARK    3  A    between atoms: N_8  and  C_9
REMARK    4  A    between atoms: C_9  and  C_10
REMARK    5  A    between atoms: C_14  and  C_15
REMARK                            x       y       z     vdW  Elec       q    Type
REMARK                         _______ _______ _______ _____ _____    ______ ____
ROOT
ATOM      1  N   UNL     1      43.810   4.827   9.781  0.00  0.00    +0.000 N 
ATOM      2  H   UNL     1      44.061   5.803   9.669  0.00  0.00    +0.000 HD
ENDROOT
BRANCH   1   6
ATOM      3  C   UNL     1      46.374   2.277   7.838  0.00  0.00    +0.000 A 
ATOM      4  C   UNL     1      46.380   3.632   7.559  0.00  0.00    +0.000 A 
ATOM      5  N   UNL     1      45.520   4.503   8.150  0.00  0.00    +0.000 NA
ATOM      6  C   UNL     1      44.647   3.987   9.041  0.00  0.00    +0.000 A 
ATOM      7  C   UNL     1      44.656   2.610   9.305  0.00  0.00    +0.000 A 
ATOM      8  N   UNL     1      45.497   1.718   8.715  0.00  0.00    +0.000 NA
BRANCH   3  10
ATOM      9  N   UNL     1      48.399   2.010   6.540  0.00  0.00    +0.000 N 
ATOM     10  C   UNL     1      47.361   1.383   7.173  0.00  0.00    +0.000 C 
ATOM     11  O   UNL     1      47.255   0.164   7.190  0.00  0.00    +0.000 OA
ATOM     12  H   UNL     1      49.104   1.456   6.076  0.00  0.00    +0.000 HD
ATOM     13  H   UNL     1      48.464   3.022   6.549  0.00  0.00    +0.000 HD
ENDBRANCH   3  10
ENDBRANCH   1   6
BRANCH   1  14
ATOM     14  C   UNL     1      43.624   4.471  11.184  0.00  0.00    +0.000 C 
BRANCH  14  15
ATOM     15  C   UNL     1      44.835   4.919  11.972  0.00  0.00    +0.000 A 
ATOM     16  C   UNL     1      45.478   4.014  12.830  0.00  0.00    +0.000 A 
ATOM     17  C   UNL     1      46.632   4.383  13.511  0.00  0.00    +0.000 A 
ATOM     18  C   UNL     1      47.178   5.651  13.319  0.00  0.00    +0.000 A 
ATOM     19  C   UNL     1      46.589   6.576  12.436  0.00  0.00    +0.000 A 
ATOM     20  C   UNL     1      45.393   6.196  11.793  0.00  0.00    +0.000 A 
BRANCH  19  21
ATOM     21  C   UNL     1      47.223   7.878  12.148  0.00  0.00    +0.000 A 
ATOM     22  C   UNL     1      46.539   9.091  12.261  0.00  0.00    +0.000 A 
ATOM     23  N   UNL     1      47.105  10.302  12.031  0.00  0.00    +0.000 NA
ATOM     24  C   UNL     1      48.408  10.265  11.686  0.00  0.00    +0.000 A 
ATOM     25  C   UNL     1      49.107   9.074  11.574  0.00  0.00    +0.000 A 
ATOM     26  N   UNL     1      48.538   7.865  11.805  0.00  0.00    +0.000 NA
ENDBRANCH  19  21
ENDBRANCH  14  15
ENDBRANCH   1  14
TORSDOF 5
ENDMDL
MODEL 3
REMARK VINA RESULT:    -7.837      1.972      2.802
REMARK INTER + INTRA:         -10.755
REMARK INTER:                 -10.131
REMARK INTRA:                  -0.625
REMARK UNBOUND:                -0.628
REMARK  Name = 
REMARK  5 active torsions:
REMARK  status: ('A' for Active; 'I' for Inactive)
REMARK    1  A    between atoms: C_2  and  C_4
REMARK    2  A    between atoms: C_7  and  N_8
REMARK    3  A    between atoms: N_8  and  C_9
REMARK    4  A    between atoms: C_9  and  C_10
REMARK    5  A    between atoms: C_14  and  C_15
REMARK                            x       y       z     vdW  Elec       q    Type
REMARK                         _______ _______ _______ _____ _____    ______ ____
ROOT
ATOM      1  N   UNL     1      43.972   4.702  10.159  0.00  0.00    +0.000 N 
ATOM      2  H   UNL     1      43.016   4.777   9.827  0.00  0.00    +0.000 HD
ENDROOT
BRANCH   1   6
ATOM      3  C   UNL     1      46.468   2.517   7.740  0.00  0.00    +0.000 A 
ATOM      4  C   UNL     1      46.350   3.886   7.580  0.00  0.00    +0.000 A 
ATOM      5  N   UNL     1      45.505   4.639   8.333  0.00  0.00    +0.000 NA
ATOM      6  C   UNL     1      44.775   3.990   9.264  0.00  0.00    +0.000 A 
ATOM      7  C   UNL     1      44.908   2.601   9.406  0.00  0.00    +0.000 A 
ATOM      8  N   UNL     1      45.735   1.825   8.655  0.00  0.00    +0.000 NA
BRANCH   3  10
ATOM      9  N   UNL     1      48.512   2.463   6.447  0.00  0.00    +0.000 N 
ATOM     10  C   UNL     1      47.432   1.757   6.900  0.00  0.00    +0.000 C 
ATOM     11  O   UNL     1      47.273   0.574   6.629  0.00  0.00    +0.000 OA
ATOM     12  H   UNL     1      49.205   1.999   5.877  0.00  0.00    +0.000 HD
ATOM     13  H   UNL     1      48.621   3.441   6.693  0.00  0.00    +0.000 HD
ENDBRANCH   3  10
ENDBRANCH   1   6
BRANCH   1  14
ATOM     14  C   UNL     1      44.495   5.987  10.608  0.00  0.00    +0.000 C 
BRANCH  14  15
ATOM     15  C   UNL     1      45.429   5.760  11.776  0.00  0.00    +0.000 A 
ATOM     16  C   UNL     1      45.179   4.709  12.671  0.00  0.00    +0.000 A 
ATOM     17  C   UNL     1      46.062   4.440  13.710  0.00  0.00    +0.000 A 
ATOM     18  C   UNL     1      47.224   5.198  13.851  0.00  0.00    +0.000 A 
ATOM     19  C   UNL     1      47.534   6.236  12.951  0.00  0.00    +0.000 A 
ATOM     20  C   UNL     1      46.601   6.520  11.933  0.00  0.00    +0.000 A 
BRANCH  19  21
ATOM     21  C   UNL     1      48.813   6.969  13.032  0.00  0.00    +0.000 A 
ATOM     22  C   UNL     1      49.367   7.640  11.939  0.00  0.00    +0.000 A 
ATOM     23  N   UNL     1      50.525   8.344  11.993  0.00  0.00    +0.000 NA
ATOM     24  C   UNL     1      51.122   8.367  13.202  0.00  0.00    +0.000 A 
ATOM     25  C   UNL     1      50.586   7.714  14.300  0.00  0.00    +0.000 A 
ATOM     26  N   UNL     1      49.428   7.011  14.243  0.00  0.00    +0.000 NA
ENDBRANCH  19  21
ENDBRANCH  14  15
ENDBRANCH   1  14
TORSDOF 5
ENDMDL
MODEL 4
REMARK VINA RESULT:    -7.604      1.768      2.400
REMARK INTER + INTRA:         -10.455
REMARK INTER:                  -9.910
REMARK INTRA:                  -0.545
REMARK UNBOUND:                -0.628
REMARK  Name = 
REMARK  5 active torsions:
REMARK  status: ('A' for Active; 'I' for Inactive)
REMARK    1  A    between atoms: C_2  and  C_4
REMARK    2  A    between atoms: C_7  and  N_8
REMARK    3  A    between atoms: N_8  and  C_9
REMARK    4  A    between atoms: C_9  and  C_10
REMARK    5  A    between atoms: C_14  and  C_15
REMARK                            x       y       z     vdW  Elec       q    Type
REMARK                         _______ _______ _______ _____ _____    ______ ____
ROOT
ATOM      1  N   UNL     1      44.140   4.955   9.999  0.00  0.00    +0.000 N 
ATOM      2  H   UNL     1      43.990   5.893   9.645  0.00  0.00    +0.000 HD
ENDROOT
BRANCH   1   6
ATOM      3  C   UNL     1      46.557   2.606   7.655  0.00  0.00    +0.000 A 
ATOM      4  C   UNL     1      46.555   3.982   7.510  0.00  0.00    +0.000 A 
ATOM      5  N   UNL     1      45.741   4.791   8.238  0.00  0.00    +0.000 NA
ATOM      6  C   UNL     1      44.923   4.192   9.128  0.00  0.00    +0.000 A 
ATOM      7  C   UNL     1      44.938   2.795   9.255  0.00  0.00    +0.000 A 
ATOM      8  N   UNL     1      45.733   1.964   8.528  0.00  0.00    +0.000 NA
BRANCH   3  10
ATOM      9  N   UNL     1      48.604   2.429   6.376  0.00  0.00    +0.000 N 
ATOM     10  C   UNL     1      47.493   1.781   6.844  0.00  0.00    +0.000 C 
ATOM     11  O   UNL     1      47.287   0.598   6.609  0.00  0.00    +0.000 OA
ATOM     12  H   UNL     1      49.279   1.919   5.825  0.00  0.00    +0.000 HD
ATOM     13  H   UNL     1      48.751   3.408   6.593  0.00  0.00    +0.000 HD
ENDBRANCH   3  10
ENDBRANCH   1   6
BRANCH   1  14
ATOM     14  C   UNL     1      44.557   4.961  11.397  0.00  0.00    +0.000 C 
BRANCH  14  15
ATOM     15  C   UNL     1      45.126   6.321  11.737  0.00  0.00    +0.000 A 
ATOM     16  C   UNL     1      44.444   7.479  11.337  0.00  0.00    +0.000 A 
ATOM     17  C   UNL     1      44.911   8.737  11.699  0.00  0.00    +0.000 A 
ATOM     18  C   UNL     1      46.052   8.854  12.493  0.00  0.00    +0.000 A 
ATOM     19  C   UNL     1      46.744   7.716  12.951  0.00  0.00    +0.000 A 
ATOM     20  C   UNL     1      46.277   6.453  12.533  0.00  0.00    +0.000 A 
BRANCH  19  21
ATOM     21  C   UNL     1      47.885   7.832  13.880  0.00  0.00    +0.000 A 
ATOM     22  C   UNL     1      48.626   6.726  14.305  0.00  0.00    +0.000 A 
ATOM     23  N   UNL     1      49.697   6.807  15.135  0.00  0.00    +0.000 NA
ATOM     24  C   UNL     1      50.018   8.056  15.529  0.00  0.00    +0.000 A 
ATOM     25  C   UNL     1      49.301   9.167  15.114  0.00  0.00    +0.000 A 
ATOM     26  N   UNL     1      48.232   9.083  14.285  0.00  0.00    +0.000 NA
ENDBRANCH  19  21
ENDBRANCH  14  15
ENDBRANCH   1  14
TORSDOF 5
ENDMDL
MODEL 5
REMARK VINA RESULT:    -7.101      2.907      7.517
REMARK INTER + INTRA:          -9.805
REMARK INTER:                  -9.404
REMARK INTRA:                  -0.401
REMARK UNBOUND:                -0.628
REMARK  Name = 
REMARK  5 active torsions:
REMARK  status: ('A' for Active; 'I' for Inactive)
REMARK    1  A    between atoms: C_2  and  C_4
REMARK    2  A    between atoms: C_7  and  N_8
REMARK    3  A    between atoms: N_8  and  C_9
REMARK    4  A    between atoms: C_9  and  C_10
REMARK    5  A    between atoms: C_14  and  C_15
REMARK                            x       y       z     vdW  Elec       q    Type
REMARK                         _______ _______ _______ _____ _____    ______ ____
ROOT
ATOM      1  N   UNL     1      47.286   6.456  12.918  0.00  0.00    +0.000 N 
ATOM      2  H   UNL     1      47.999   7.151  12.725  0.00  0.00    +0.000 HD
ENDROOT
BRANCH   1   6
ATOM      3  C   UNL     1      47.780   4.460  16.472  0.00  0.00    +0.000 A 
ATOM      4  C   UNL     1      48.510   5.603  16.197  0.00  0.00    +0.000 A 
ATOM      5  N   UNL     1      48.405   6.270  15.017  0.00  0.00    +0.000 NA
ATOM      6  C   UNL     1      47.543   5.769  14.108  0.00  0.00    +0.000 A 
ATOM      7  C   UNL     1      46.817   4.606  14.406  0.00  0.00    +0.000 A 
ATOM      8  N   UNL     1      46.916   3.914  15.574  0.00  0.00    +0.000 NA
BRANCH   3  10
ATOM      9  N   UNL     1      47.118   2.709  18.005  0.00  0.00    +0.000 N 
ATOM     10  C   UNL     1      47.924   3.795  17.795  0.00  0.00    +0.000 C 
ATOM     11  O   UNL     1      48.711   4.190  18.644  0.00  0.00    +0.000 OA
ATOM     12  H   UNL     1      47.175   2.212  18.883  0.00  0.00    +0.000 HD
ATOM     13  H   UNL     1      46.480   2.401  17.281  0.00  0.00    +0.000 HD
ENDBRANCH   3  10
ENDBRANCH   1   6
BRANCH   1  14
ATOM     14  C   UNL     1      45.942   7.001  12.770  0.00  0.00    +0.000 C 
BRANCH  14  15
ATOM     15  C   UNL     1      45.122   6.068  11.906  0.00  0.00    +0.000 A 
ATOM     16  C   UNL     1      43.723   6.079  12.005  0.00  0.00    +0.000 A 
ATOM     17  C   UNL     1      42.948   5.281  11.172  0.00  0.00    +0.000 A 
ATOM     18  C   UNL     1      43.560   4.482  10.206  0.00  0.00    +0.000 A 
ATOM     19  C   UNL     1      44.959   4.471  10.045  0.00  0.00    +0.000 A 
ATOM     20  C   UNL     1      45.726   5.254  10.932  0.00  0.00    +0.000 A 
BRANCH  19  21
ATOM     21  C   UNL     1      45.603   3.712   8.955  0.00  0.00    +0.000 A 
ATOM     22  C   UNL     1      45.639   2.315   8.928  0.00  0.00    +0.000 A 
ATOM     23  N   UNL     1      46.197   1.593   7.925  0.00  0.00    +0.000 NA
ATOM     24  C   UNL     1      46.723   2.324   6.921  0.00  0.00    +0.000 A 
ATOM     25  C   UNL     1      46.692   3.710   6.924  0.00  0.00    +0.000 A 
ATOM     26  N   UNL     1      46.133   4.429   7.929  0.00  0.00    +0.000 NA
ENDBRANCH  19  21
ENDBRANCH  14  15
ENDBRANCH   1  14
TORSDOF 5
ENDMDL
MODEL 6
REMARK VINA RESULT:    -6.872      3.211      8.297
REMARK INTER + INTRA:          -9.509
REMARK INTER:                  -9.115
REMARK INTRA:                  -0.394
REMARK UNBOUND:                -0.628
REMARK  Name = 
REMARK  5 active torsions:
REMARK  status: ('A' for Active; 'I' for Inactive)
REMARK    1  A    between atoms: C_2  and  C_4
REMARK    2  A    between atoms: C_7  and  N_8
REMARK    3  A    between atoms: N_8  and  C_9
REMARK    4  A    between atoms: C_9  and  C_10
REMARK    5  A    between atoms: C_14  and  C_15
REMARK                            x       y       z     vdW  Elec       q    Type
REMARK                         _______ _______ _______ _____ _____    ______ ____
ROOT
ATOM      1  N   UNL     1      46.620   4.010  14.540  0.00  0.00    +0.000 N 
ATOM      2  H   UNL     1      47.246   3.576  13.869  0.00  0.00    +0.000 HD
ENDROOT
BRANCH   1   6
ATOM      3  C   UNL     1      48.568   4.327  18.140  0.00  0.00    +0.000 A 
ATOM      4  C   UNL     1      47.850   3.187  17.823  0.00  0.00    +0.000 A 
ATOM      5  N   UNL     1      47.159   3.060  16.660  0.00  0.00    +0.000 NA
ATOM      6  C   UNL     1      47.204   4.104  15.807  0.00  0.00    +0.000 A 
ATOM      7  C   UNL     1      47.933   5.251  16.150  0.00  0.00    +0.000 A 
ATOM      8  N   UNL     1      48.621   5.407  17.313  0.00  0.00    +0.000 NA
BRANCH   3  10
ATOM      9  N   UNL     1      48.651   3.961  20.530  0.00  0.00    +0.000 N 
ATOM     10  C   UNL     1      49.324   4.391  19.420  0.00  0.00    +0.000 C 
ATOM     11  O   UNL     1      50.476   4.800  19.479  0.00  0.00    +0.000 OA
ATOM     12  H   UNL     1      49.115   3.975  21.427  0.00  0.00    +0.000 HD
ATOM     13  H   UNL     1      47.699   3.622  20.449  0.00  0.00    +0.000 HD
ENDBRANCH   3  10
ENDBRANCH   1   6
BRANCH   1  14
ATOM     14  C   UNL     1      46.026   5.235  14.016  0.00  0.00    +0.000 C 
BRANCH  14  15
ATOM     15  C   UNL     1      45.107   4.886  12.866  0.00  0.00    +0.000 A 
ATOM     16  C   UNL     1      43.753   5.247  12.926  0.00  0.00    +0.000 A 
ATOM     17  C   UNL     1      42.906   4.999  11.852  0.00  0.00    +0.000 A 
ATOM     18  C   UNL     1      43.408   4.414  10.690  0.00  0.00    +0.000 A 
ATOM     19  C   UNL     1      44.769   4.074  10.572  0.00  0.00    +0.000 A 
ATOM     20  C   UNL     1      45.599   4.293  11.690  0.00  0.00    +0.000 A 
BRANCH  19  21
ATOM     21  C   UNL     1      45.326   3.556   9.306  0.00  0.00    +0.000 A 
ATOM     22  C   UNL     1      45.714   4.392   8.256  0.00  0.00    +0.000 A 
ATOM     23  N   UNL     1      46.255   3.945   7.095  0.00  0.00    +0.000 NA
ATOM     24  C   UNL     1      46.410   2.608   7.016  0.00  0.00    +0.000 A 
ATOM     25  C   UNL     1      46.038   1.761   8.048  0.00  0.00    +0.000 A 
ATOM     26  N   UNL     1      45.498   2.211   9.208  0.00  0.00    +0.000 NA
ENDBRANCH  19  21
ENDBRANCH  14  15
ENDBRANCH   1  14
TORSDOF 5
ENDMDL
MODEL 7
REMARK VINA RESULT:    -6.832      3.426      7.062
REMARK INTER + INTRA:          -9.457
REMARK INTER:                  -8.801
REMARK INTRA:                  -0.656
REMARK UNBOUND:                -0.628
REMARK  Name = 
REMARK  5 active torsions:
REMARK  status: ('A' for Active; 'I' for Inactive)
REMARK    1  A    between atoms: C_2  and  C_4
REMARK    2  A    between atoms: C_7  and  N_8
REMARK    3  A    between atoms: N_8  and  C_9
REMARK    4  A    between atoms: C_9  and  C_10
REMARK    5  A    between atoms: C_14  and  C_15
REMARK                            x       y       z     vdW  Elec       q    Type
REMARK                         _______ _______ _______ _____ _____    ______ ____
ROOT
ATOM      1  N   UNL     1      44.728   7.215  12.690  0.00  0.00    +0.000 N 
ATOM      2  H   UNL     1      44.514   6.504  13.382  0.00  0.00    +0.000 HD
ENDROOT
BRANCH   1   6
ATOM      3  C   UNL     1      48.721   8.059  12.241  0.00  0.00    +0.000 A 
ATOM      4  C   UNL     1      48.304   6.792  12.609  0.00  0.00    +0.000 A 
ATOM      5  N   UNL     1      46.996   6.483  12.808  0.00  0.00    +0.000 NA
ATOM      6  C   UNL     1      46.100   7.475  12.623  0.00  0.00    +0.000 A 
ATOM      7  C   UNL     1      46.545   8.753  12.254  0.00  0.00    +0.000 A 
ATOM      8  N   UNL     1      47.849   9.089  12.063  0.00  0.00    +0.000 NA
BRANCH   3  10
ATOM      9  N   UNL     1      50.874   7.303  11.437  0.00  0.00    +0.000 N 
ATOM     10  C   UNL     1      50.167   8.322  12.014  0.00  0.00    +0.000 C 
ATOM     11  O   UNL     1      50.696   9.382  12.322  0.00  0.00    +0.000 OA
ATOM     12  H   UNL     1      51.860   7.425  11.253  0.00  0.00    +0.000 HD
ATOM     13  H   UNL     1      50.408   6.438  11.187  0.00  0.00    +0.000 HD
ENDBRANCH   3  10
ENDBRANCH   1   6
BRANCH   1  14
ATOM     14  C   UNL     1      44.062   6.955  11.419  0.00  0.00    +0.000 C 
BRANCH  14  15
ATOM     15  C   UNL     1      44.112   5.471  11.128  0.00  0.00    +0.000 A 
ATOM     16  C   UNL     1      43.267   4.597  11.826  0.00  0.00    +0.000 A 
ATOM     17  C   UNL     1      43.247   3.240  11.526  0.00  0.00    +0.000 A 
ATOM     18  C   UNL     1      44.050   2.743  10.501  0.00  0.00    +0.000 A 
ATOM     19  C   UNL     1      44.884   3.591   9.747  0.00  0.00    +0.000 A 
ATOM     20  C   UNL     1      44.921   4.955  10.101  0.00  0.00    +0.000 A 
BRANCH  19  21
ATOM     21  C   UNL     1      45.653   3.087   8.592  0.00  0.00    +0.000 A 
ATOM     22  C   UNL     1      46.011   1.744   8.453  0.00  0.00    +0.000 A 
ATOM     23  N   UNL     1      46.691   1.249   7.389  0.00  0.00    +0.000 NA
ATOM     24  C   UNL     1      47.002   2.156   6.440  0.00  0.00    +0.000 A 
ATOM     25  C   UNL     1      46.651   3.491   6.555  0.00  0.00    +0.000 A 
ATOM     26  N   UNL     1      45.971   3.983   7.620  0.00  0.00    +0.000 NA
ENDBRANCH  19  21
ENDBRANCH  14  15
ENDBRANCH   1  14
TORSDOF 5
ENDMDL
MODEL 8
REMARK VINA RESULT:    -6.668      2.865      7.467
REMARK INTER + INTRA:          -9.246
REMARK INTER:                  -8.850
REMARK INTRA:                  -0.396
REMARK UNBOUND:                -0.628
REMARK  Name = 
REMARK  5 active torsions:
REMARK  status: ('A' for Active; 'I' for Inactive)
REMARK    1  A    between atoms: C_2  and  C_4
REMARK    2  A    between atoms: C_7  and  N_8
REMARK    3  A    between atoms: N_8  and  C_9
REMARK    4  A    between atoms: C_9  and  C_10
REMARK    5  A    between atoms: C_14  and  C_15
REMARK                            x       y       z     vdW  Elec       q    Type
REMARK                         _______ _______ _______ _____ _____    ______ ____
ROOT
ATOM      1  N   UNL     1      45.858   7.031  11.369  0.00  0.00    +0.000 N 
ATOM      2  H   UNL     1      45.961   7.958  10.969  0.00  0.00    +0.000 HD
ENDROOT
BRANCH   1   6
ATOM      3  C   UNL     1      48.151   6.772  14.764  0.00  0.00    +0.000 A 
ATOM      4  C   UNL     1      47.605   5.636  14.193  0.00  0.00    +0.000 A 
ATOM      5  N   UNL     1      46.808   5.684  13.093  0.00  0.00    +0.000 NA
ATOM      6  C   UNL     1      46.569   6.903  12.566  0.00  0.00    +0.000 A 
ATOM      7  C   UNL     1      47.129   8.041  13.164  0.00  0.00    +0.000 A 
ATOM      8  N   UNL     1      47.917   8.019  14.273  0.00  0.00    +0.000 NA
BRANCH   3  10
ATOM      9  N   UNL     1      48.477   6.989  17.152  0.00  0.00    +0.000 N 
ATOM     10  C   UNL     1      49.037   6.645  15.953  0.00  0.00    +0.000 C 
ATOM     11  O   UNL     1      50.195   6.258  15.868  0.00  0.00    +0.000 OA
ATOM     12  H   UNL     1      49.028   6.918  17.996  0.00  0.00    +0.000 HD
ATOM     13  H   UNL     1      47.513   7.301  17.193  0.00  0.00    +0.000 HD
ENDBRANCH   3  10
ENDBRANCH   1   6
BRANCH   1  14
ATOM     14  C   UNL     1      44.464   6.604  11.401  0.00  0.00    +0.000 C 
BRANCH  14  15
ATOM     15  C   UNL     1      44.389   5.133  11.058  0.00  0.00    +0.000 A 
ATOM     16  C   UNL     1      43.462   4.312  11.717  0.00  0.00    +0.000 A 
ATOM     17  C   UNL     1      43.328   2.973  11.369  0.00  0.00    +0.000 A 
ATOM     18  C   UNL     1      44.098   2.443  10.333  0.00  0.00    +0.000 A 
ATOM     19  C   UNL     1      45.011   3.241   9.618  0.00  0.00    +0.000 A 
ATOM     20  C   UNL     1      45.163   4.584  10.020  0.00  0.00    +0.000 A 
BRANCH  19  21
ATOM     21  C   UNL     1      45.747   2.713   8.453  0.00  0.00    +0.000 A 
ATOM     22  C   UNL     1      46.105   3.510   7.363  0.00  0.00    +0.000 A 
ATOM     23  N   UNL     1      46.807   3.057   6.293  0.00  0.00    +0.000 NA
ATOM     24  C   UNL     1      47.156   1.756   6.351  0.00  0.00    +0.000 A 
ATOM     25  C   UNL     1      46.817   0.949   7.425  0.00  0.00    +0.000 A 
ATOM     26  N   UNL     1      46.116   1.405   8.493  0.00  0.00    +0.000 NA
ENDBRANCH  19  21
ENDBRANCH  14  15
ENDBRANCH   1  14
TORSDOF 5
ENDMDL
MODEL 9
REMARK VINA RESULT:    -6.280      2.726      4.084
REMARK INTER + INTRA:          -8.744
REMARK INTER:                  -8.209
REMARK INTRA:                  -0.535
REMARK UNBOUND:                -0.628
REMARK  Name = 
REMARK  5 active torsions:
REMARK  status: ('A' for Active; 'I' for Inactive)
REMARK    1  A    between atoms: C_2  and  C_4
REMARK    2  A    between atoms: C_7  and  N_8
REMARK    3  A    between atoms: N_8  and  C_9
REMARK    4  A    between atoms: C_9  and  C_10
REMARK    5  A    between atoms: C_14  and  C_15
REMARK                            x       y       z     vdW  Elec       q    Type
REMARK                         _______ _______ _______ _____ _____    ______ ____
ROOT
ATOM      1  N   UNL     1      46.085   7.693  12.577  0.00  0.00    +0.000 N 
ATOM      2  H   UNL     1      45.562   8.521  12.312  0.00  0.00    +0.000 HD
ENDROOT
BRANCH   1   6
ATOM      3  C   UNL     1      44.393   4.126  11.450  0.00  0.00    +0.000 A 
ATOM      4  C   UNL     1      45.105   4.888  10.541  0.00  0.00    +0.000 A 
ATOM      5  N   UNL     1      45.645   6.092  10.863  0.00  0.00    +0.000 NA
ATOM      6  C   UNL     1      45.463   6.524  12.128  0.00  0.00    +0.000 A 
ATOM      7  C   UNL     1      44.734   5.737  13.032  0.00  0.00    +0.000 A 
ATOM      8  N   UNL     1      44.172   4.536  12.729  0.00  0.00    +0.000 NA
BRANCH   3  10
ATOM      9  N   UNL     1      44.452   2.224   9.954  0.00  0.00    +0.000 N 
ATOM     10  C   UNL     1      43.850   2.803  11.038  0.00  0.00    +0.000 C 
ATOM     11  O   UNL     1      42.924   2.264  11.628  0.00  0.00    +0.000 OA
ATOM     12  H   UNL     1      44.130   1.323   9.631  0.00  0.00    +0.000 HD
ATOM     13  H   UNL     1      45.221   2.693   9.489  0.00  0.00    +0.000 HD
ENDBRANCH   3  10
ENDBRANCH   1   6
BRANCH   1  14
ATOM     14  C   UNL     1      47.504   7.823  12.267  0.00  0.00    +0.000 C 
BRANCH  14  15
ATOM     15  C   UNL     1      48.311   7.531  13.513  0.00  0.00    +0.000 A 
ATOM     16  C   UNL     1      49.303   8.433  13.925  0.00  0.00    +0.000 A 
ATOM     17  C   UNL     1      50.008   8.220  15.104  0.00  0.00    +0.000 A 
ATOM     18  C   UNL     1      49.710   7.117  15.903  0.00  0.00    +0.000 A 
ATOM     19  C   UNL     1      48.695   6.208  15.548  0.00  0.00    +0.000 A 
ATOM     20  C   UNL     1      48.025   6.420  14.326  0.00  0.00    +0.000 A 
BRANCH  19  21
ATOM     21  C   UNL     1      48.303   5.103  16.444  0.00  0.00    +0.000 A 
ATOM     22  C   UNL     1      47.142   4.350  16.249  0.00  0.00    +0.000 A 
ATOM     23  N   UNL     1      46.774   3.310  17.039  0.00  0.00    +0.000 NA
ATOM     24  C   UNL     1      47.625   3.033  18.048  0.00  0.00    +0.000 A 
ATOM     25  C   UNL     1      48.784   3.762  18.255  0.00  0.00    +0.000 A 
ATOM     26  N   UNL     1      49.150   4.800  17.463  0.00  0.00    +0.000 NA
ENDBRANCH  19  21
ENDBRANCH  14  15
ENDBRANCH   1  14
TORSDOF 5
ENDMDL
