MODEL 1
REMARK VINA RESULT:    -8.157      0.000      0.000
REMARK INTER + INTRA:         -12.070
REMARK INTER:                 -11.495
REMARK INTRA:                  -0.575
REMARK UNBOUND:                -0.575
REMARK  Name = 
REMARK  8 active torsions:
REMARK  status: ('A' for Active; 'I' for Inactive)
REMARK    1  A    between atoms: N_1  and  C_2
REMARK    2  A    between atoms: C_2  and  C_3
REMARK    3  A    between atoms: C_3  and  C_4
REMARK    4  A    between atoms: C_4  and  O_5
REMARK    5  A    between atoms: O_5  and  C_6
REMARK    6  A    between atoms: N_12  and  C_13
REMARK    7  A    between atoms: C_13  and  C_14
REMARK    8  A    between atoms: C_17  and  O_18
REMARK                            x       y       z     vdW  Elec       q    Type
REMARK                         _______ _______ _______ _____ _____    ______ ____
ROOT
ATOM      1  C   UNL     1      46.334   4.035  13.551  0.00  0.00    +0.000 A 
ATOM      2  C   UNL     1      45.862   5.334  13.705  0.00  0.00    +0.000 A 
ATOM      3  N   UNL     1      45.057   5.996  12.842  0.00  0.00    +0.000 NA
ATOM      4  C   UNL     1      44.701   5.288  11.743  0.00  0.00    +0.000 A 
ATOM      5  C   UNL     1      43.885   5.697  10.667  0.00  0.00    +0.000 A 
ATOM      6  C   UNL     1      43.781   4.631   9.803  0.00  0.00    +0.000 A 
ATOM      7  N   UNL     1      44.515   3.586  10.321  0.00  0.00    +0.000 N 
ATOM      8  C   UNL     1      45.114   3.977  11.501  0.00  0.00    +0.000 A 
ATOM      9  C   UNL     1      45.970   3.329  12.403  0.00  0.00    +0.000 A 
ENDROOT
BRANCH   1  10
ATOM     10  O   UNL     1      47.166   3.379  14.416  0.00  0.00    +0.000 OA
BRANCH  10  11
ATOM     11  C   UNL     1      47.552   4.117  15.580  0.00  0.00    +0.000 C 
BRANCH  11  12
ATOM     12  C   UNL     1      47.544   3.170  16.778  0.00  0.00    +0.000 C 
BRANCH  12  13
ATOM     13  C   UNL     1      48.946   2.644  17.071  0.00  0.00    +0.000 C 
BRANCH  13  14
ATOM     14  N   UNL     1      49.421   1.809  15.974  0.00  0.00    +0.000 NA
ATOM     15  H   UNL     1      49.453   0.835  16.275  0.00  0.00    +0.000 HD
ATOM     16  H   UNL     1      50.379   2.064  15.733  0.00  0.00    +0.000 HD
ENDBRANCH  13  14
ENDBRANCH  12  13
ENDBRANCH  11  12
ENDBRANCH  10  11
ENDBRANCH   1  10
BRANCH   7  17
ATOM     17  C   UNL     1      44.537   2.246   9.740  0.00  0.00    +0.000 C 
BRANCH  17  18
ATOM     18  C   UNL     1      45.545   2.141   8.624  0.00  0.00    +0.000 A 
ATOM     19  C   UNL     1      46.080   0.895   8.264  0.00  0.00    +0.000 A 
ATOM     20  C   UNL     1      47.072   0.804   7.285  0.00  0.00    +0.000 A 
ATOM     21  C   UNL     1      47.527   1.961   6.662  0.00  0.00    +0.000 A 
ATOM     22  C   UNL     1      46.983   3.199   6.975  0.00  0.00    +0.000 A 
ATOM     23  C   UNL     1      45.993   3.291   7.954  0.00  0.00    +0.000 A 
BRANCH  21  24
ATOM     24  O   UNL     1      48.526   1.920   5.736  0.00  0.00    +0.000 OA
ATOM     25  H   UNL     1      49.295   1.479   6.133  0.00  0.00    +0.000 HD
ENDBRANCH  21  24
ENDBRANCH  17  18
ENDBRANCH   7  17
TORSDOF 8
ENDMDL
MODEL 2
REMARK VINA RESULT:    -7.876      2.284      3.345
REMARK INTER + INTRA:         -11.674
REMARK INTER:                 -10.653
REMARK INTRA:                  -1.022
REMARK UNBOUND:                -0.575
REMARK  Name = 
REMARK  8 active torsions:
REMARK  status: ('A' for Active; 'I' for Inactive)
REMARK    1  A    between atoms: N_1  and  C_2
REMARK    2  A    between atoms: C_2  and  C_3
REMARK    3  A    between atoms: C_3  and  C_4
REMARK    4  A    between atoms: C_4  and  O_5
REMARK    5  A    between atoms: O_5  and  C_6
REMARK    6  A    between atoms: N_12  and  C_13
REMARK    7  A    between atoms: C_13  and  C_14
REMARK    8  A    between atoms: C_17  and  O_18
REMARK                            x       y       z     vdW  Elec       q    Type
REMARK                         _______ _______ _______ _____ _____    ______ ____
ROOT
ATOM      1  C   UNL     1      46.740   6.100  12.375  0.00  0.00    +0.000 A 
ATOM      2  C   UNL     1      46.480   5.488  13.596  0.00  0.00    +0.000 A 
ATOM      3  N   UNL     1      45.560   4.524  13.823  0.00  0.00    +0.000 NA
ATOM      4  C   UNL     1      44.850   4.150  12.731  0.00  0.00    +0.000 A 
ATOM      5  C   UNL     1      43.824   3.185  12.644  0.00  0.00    +0.000 A 
ATOM      6  C   UNL     1      43.425   3.127  11.329  0.00  0.00    +0.000 A 
ATOM      7  N   UNL     1      44.176   4.034  10.613  0.00  0.00    +0.000 N 
ATOM      8  C   UNL     1      45.041   4.697  11.461  0.00  0.00    +0.000 A 
ATOM      9  C   UNL     1      45.986   5.713  11.265  0.00  0.00    +0.000 A 
ENDROOT
BRANCH   1  10
ATOM     10  O   UNL     1      47.658   7.091  12.157  0.00  0.00    +0.000 OA
BRANCH  10  11
ATOM     11  C   UNL     1      48.841   7.026  12.958  0.00  0.00    +0.000 C 
BRANCH  11  12
ATOM     12  C   UNL     1      49.247   8.446  13.340  0.00  0.00    +0.000 C 
BRANCH  12  13
ATOM     13  C   UNL     1      48.693   8.826  14.711  0.00  0.00    +0.000 C 
BRANCH  13  14
ATOM     14  N   UNL     1      47.238   8.903  14.674  0.00  0.00    +0.000 NA
ATOM     15  H   UNL     1      46.947   9.881  14.672  0.00  0.00    +0.000 HD
ATOM     16  H   UNL     1      46.847   8.492  15.521  0.00  0.00    +0.000 HD
ENDBRANCH  13  14
ENDBRANCH  12  13
ENDBRANCH  11  12
ENDBRANCH  10  11
ENDBRANCH   1  10
BRANCH   7  17
ATOM     17  C   UNL     1      44.120   4.165   9.159  0.00  0.00    +0.000 C 
BRANCH  17  18
ATOM     18  C   UNL     1      45.256   3.433   8.492  0.00  0.00    +0.000 A 
ATOM     19  C   UNL     1      46.139   4.115   7.640  0.00  0.00    +0.000 A 
ATOM     20  C   UNL     1      47.143   3.425   6.958  0.00  0.00    +0.000 A 
ATOM     21  C   UNL     1      47.268   2.050   7.131  0.00  0.00    +0.000 A 
ATOM     22  C   UNL     1      46.431   1.363   7.998  0.00  0.00    +0.000 A 
ATOM     23  C   UNL     1      45.426   2.052   8.679  0.00  0.00    +0.000 A 
BRANCH  21  24
ATOM     24  O   UNL     1      48.205   1.333   6.448  0.00  0.00    +0.000 OA
ATOM     25  H   UNL     1      48.618   1.917   5.790  0.00  0.00    +0.000 HD
ENDBRANCH  21  24
ENDBRANCH  17  18
ENDBRANCH   7  17
TORSDOF 8
ENDMDL
MODEL 3
REMARK VINA RESULT:    -7.230      2.935      6.907
REMARK INTER + INTRA:         -10.764
REMARK INTER:                 -10.035
REMARK INTRA:                  -0.729
REMARK UNBOUND:                -0.575
REMARK  Name = 
REMARK  8 active torsions:
REMARK  status: ('A' for Active; 'I' for Inactive)
REMARK    1  A    between atoms: N_1  and  C_2
REMARK    2  A    between atoms: C_2  and  C_3
REMARK    3  A    between atoms: C_3  and  C_4
REMARK    4  A    between atoms: C_4  and  O_5
REMARK    5  A    between atoms: O_5  and  C_6
REMARK    6  A    between atoms: N_12  and  C_13
REMARK    7  A    between atoms: C_13  and  C_14
REMARK    8  A    between atoms: C_17  and  O_18
REMARK                            x       y       z     vdW  Elec       q    Type
REMARK                         _______ _______ _______ _____ _____    ______ ____
ROOT
ATOM      1  C   UNL     1      45.258   4.113   8.819  0.00  0.00    +0.000 A 
ATOM      2  C   UNL     1      44.577   2.915   9.011  0.00  0.00    +0.000 A 
ATOM      3  N   UNL     1      43.949   2.529  10.145  0.00  0.00    +0.000 NA
ATOM      4  C   UNL     1      44.014   3.424  11.161  0.00  0.00    +0.000 A 
ATOM      5  C   UNL     1      43.471   3.313  12.458  0.00  0.00    +0.000 A 
ATOM      6  C   UNL     1      43.762   4.480  13.127  0.00  0.00    +0.000 A 
ATOM      7  N   UNL     1      44.472   5.297  12.273  0.00  0.00    +0.000 N 
ATOM      8  C   UNL     1      44.664   4.656  11.066  0.00  0.00    +0.000 A 
ATOM      9  C   UNL     1      45.327   5.014   9.884  0.00  0.00    +0.000 A 
ENDROOT
BRANCH   1  10
ATOM     10  O   UNL     1      45.910   4.487   7.677  0.00  0.00    +0.000 OA
BRANCH  10  11
ATOM     11  C   UNL     1      46.895   3.567   7.198  0.00  0.00    +0.000 C 
BRANCH  11  12
ATOM     12  C   UNL     1      46.482   3.096   5.807  0.00  0.00    +0.000 C 
BRANCH  12  13
ATOM     13  C   UNL     1      47.671   2.509   5.050  0.00  0.00    +0.000 C 
BRANCH  13  14
ATOM     14  N   UNL     1      48.491   1.691   5.936  0.00  0.00    +0.000 NA
ATOM     15  H   UNL     1      49.066   2.295   6.523  0.00  0.00    +0.000 HD
ATOM     16  H   UNL     1      49.139   1.127   5.388  0.00  0.00    +0.000 HD
ENDBRANCH  13  14
ENDBRANCH  12  13
ENDBRANCH  11  12
ENDBRANCH  10  11
ENDBRANCH   1  10
BRANCH   7  17
ATOM     17  C   UNL     1      44.847   6.672  12.592  0.00  0.00    +0.000 C 
BRANCH  17  18
ATOM     18  C   UNL     1      46.342   6.828  12.704  0.00  0.00    +0.000 A 
ATOM     19  C   UNL     1      47.064   6.094  13.658  0.00  0.00    +0.000 A 
ATOM     20  C   UNL     1      48.437   6.294  13.819  0.00  0.00    +0.000 A 
ATOM     21  C   UNL     1      49.091   7.226  13.020  0.00  0.00    +0.000 A 
ATOM     22  C   UNL     1      48.403   7.934  12.043  0.00  0.00    +0.000 A 
ATOM     23  C   UNL     1      47.031   7.735  11.884  0.00  0.00    +0.000 A 
BRANCH  21  24
ATOM     24  O   UNL     1      50.420   7.485  13.177  0.00  0.00    +0.000 OA
ATOM     25  H   UNL     1      50.525   8.426  13.395  0.00  0.00    +0.000 HD
ENDBRANCH  21  24
ENDBRANCH  17  18
ENDBRANCH   7  17
TORSDOF 8
ENDMDL
MODEL 4
REMARK VINA RESULT:    -7.109      1.497      1.639
REMARK INTER + INTRA:         -10.593
REMARK INTER:                 -10.199
REMARK INTRA:                  -0.394
REMARK UNBOUND:                -0.575
REMARK  Name = 
REMARK  8 active torsions:
REMARK  status: ('A' for Active; 'I' for Inactive)
REMARK    1  A    between atoms: N_1  and  C_2
REMARK    2  A    between atoms: C_2  and  C_3
REMARK    3  A    between atoms: C_3  and  C_4
REMARK    4  A    between atoms: C_4  and  O_5
REMARK    5  A    between atoms: O_5  and  C_6
REMARK    6  A    between atoms: N_12  and  C_13
REMARK    7  A    between atoms: C_13  and  C_14
REMARK    8  A    between atoms: C_17  and  O_18
REMARK                            x       y       z     vdW  Elec       q    Type
REMARK                         _______ _______ _______ _____ _____    ______ ____
ROOT
ATOM      1  C   UNL     1      46.783   4.001  13.804  0.00  0.00    +0.000 A 
ATOM      2  C   UNL     1      46.954   5.344  14.124  0.00  0.00    +0.000 A 
ATOM      3  N   UNL     1      46.516   6.397  13.398  0.00  0.00    +0.000 NA
ATOM      4  C   UNL     1      45.852   6.067  12.264  0.00  0.00    +0.000 A 
ATOM      5  C   UNL     1      45.285   6.928  11.301  0.00  0.00    +0.000 A 
ATOM      6  C   UNL     1      44.688   6.139  10.345  0.00  0.00    +0.000 A 
ATOM      7  N   UNL     1      44.882   4.821  10.696  0.00  0.00    +0.000 N 
ATOM      8  C   UNL     1      45.621   4.751  11.859  0.00  0.00    +0.000 A 
ATOM      9  C   UNL     1      46.111   3.682  12.622  0.00  0.00    +0.000 A 
ENDROOT
BRANCH   1  10
ATOM     10  O   UNL     1      47.249   2.940  14.531  0.00  0.00    +0.000 OA
BRANCH  10  11
ATOM     11  C   UNL     1      48.058   3.274  15.662  0.00  0.00    +0.000 C 
BRANCH  11  12
ATOM     12  C   UNL     1      47.141   3.521  16.857  0.00  0.00    +0.000 C 
BRANCH  12  13
ATOM     13  C   UNL     1      47.544   4.788  17.608  0.00  0.00    +0.000 C 
BRANCH  13  14
ATOM     14  N   UNL     1      46.527   5.149  18.588  0.00  0.00    +0.000 NA
ATOM     15  H   UNL     1      46.029   4.312  18.888  0.00  0.00    +0.000 HD
ATOM     16  H   UNL     1      45.830   5.756  18.157  0.00  0.00    +0.000 HD
ENDBRANCH  13  14
ENDBRANCH  12  13
ENDBRANCH  11  12
ENDBRANCH  10  11
ENDBRANCH   1  10
BRANCH   7  17
ATOM     17  C   UNL     1      44.281   3.696   9.983  0.00  0.00    +0.000 C 
BRANCH  17  18
ATOM     18  C   UNL     1      45.221   3.127   8.952  0.00  0.00    +0.000 A 
ATOM     19  C   UNL     1      45.493   1.751   8.919  0.00  0.00    +0.000 A 
ATOM     20  C   UNL     1      46.423   1.231   8.017  0.00  0.00    +0.000 A 
ATOM     21  C   UNL     1      47.080   2.089   7.141  0.00  0.00    +0.000 A 
ATOM     22  C   UNL     1      46.798   3.448   7.130  0.00  0.00    +0.000 A 
ATOM     23  C   UNL     1      45.869   3.968   8.032  0.00  0.00    +0.000 A 
BRANCH  21  24
ATOM     24  O   UNL     1      48.029   1.628   6.278  0.00  0.00    +0.000 OA
ATOM     25  H   UNL     1      47.618   0.968   5.695  0.00  0.00    +0.000 HD
ENDBRANCH  21  24
ENDBRANCH  17  18
ENDBRANCH   7  17
TORSDOF 8
ENDMDL
MODEL 5
REMARK VINA RESULT:    -6.710      3.293      7.010
REMARK INTER + INTRA:         -10.032
REMARK INTER:                  -9.325
REMARK INTRA:                  -0.707
REMARK UNBOUND:                -0.575
REMARK  Name = 
REMARK  8 active torsions:
REMARK  status: ('A' for Active; 'I' for Inactive)
REMARK    1  A    between atoms: N_1  and  C_2
REMARK    2  A    between atoms: C_2  and  C_3
REMARK    3  A    between atoms: C_3  and  C_4
REMARK    4  A    between atoms: C_4  and  O_5
REMARK    5  A    between atoms: O_5  and  C_6
REMARK    6  A    between atoms: N_12  and  C_13
REMARK    7  A    between atoms: C_13  and  C_14
REMARK    8  A    between atoms: C_17  and  O_18
REMARK                            x       y       z     vdW  Elec       q    Type
REMARK                         _______ _______ _______ _____ _____    ______ ____
ROOT
ATOM      1  C   UNL     1      45.150   4.288   9.154  0.00  0.00    +0.000 A 
ATOM      2  C   UNL     1      44.583   3.186   9.786  0.00  0.00    +0.000 A 
ATOM      3  N   UNL     1      44.436   3.022  11.120  0.00  0.00    +0.000 NA
ATOM      4  C   UNL     1      44.896   4.053  11.871  0.00  0.00    +0.000 A 
ATOM      5  C   UNL     1      44.893   4.178  13.277  0.00  0.00    +0.000 A 
ATOM      6  C   UNL     1      45.431   5.408  13.580  0.00  0.00    +0.000 A 
ATOM      7  N   UNL     1      45.766   6.032  12.398  0.00  0.00    +0.000 N 
ATOM      8  C   UNL     1      45.472   5.204  11.333  0.00  0.00    +0.000 A 
ATOM      9  C   UNL     1      45.633   5.331   9.947  0.00  0.00    +0.000 A 
ENDROOT
BRANCH   1  10
ATOM     10  O   UNL     1      45.317   4.437   7.804  0.00  0.00    +0.000 OA
BRANCH  10  11
ATOM     11  C   UNL     1      45.734   3.264   7.100  0.00  0.00    +0.000 C 
BRANCH  11  12
ATOM     12  C   UNL     1      47.259   3.253   7.038  0.00  0.00    +0.000 C 
BRANCH  12  13
ATOM     13  C   UNL     1      47.790   1.838   6.826  0.00  0.00    +0.000 C 
BRANCH  13  14
ATOM     14  N   UNL     1      48.562   1.759   5.591  0.00  0.00    +0.000 NA
ATOM     15  H   UNL     1      49.395   1.191   5.745  0.00  0.00    +0.000 HD
ATOM     16  H   UNL     1      48.894   2.686   5.330  0.00  0.00    +0.000 HD
ENDBRANCH  13  14
ENDBRANCH  12  13
ENDBRANCH  11  12
ENDBRANCH  10  11
ENDBRANCH   1  10
BRANCH   7  17
ATOM     17  C   UNL     1      46.249   7.408  12.317  0.00  0.00    +0.000 C 
BRANCH  17  18
ATOM     18  C   UNL     1      47.737   7.488  12.546  0.00  0.00    +0.000 A 
ATOM     19  C   UNL     1      48.257   7.493  13.849  0.00  0.00    +0.000 A 
ATOM     20  C   UNL     1      49.628   7.647  14.067  0.00  0.00    +0.000 A 
ATOM     21  C   UNL     1      50.482   7.792  12.979  0.00  0.00    +0.000 A 
ATOM     22  C   UNL     1      49.993   7.751  11.680  0.00  0.00    +0.000 A 
ATOM     23  C   UNL     1      48.623   7.599  11.462  0.00  0.00    +0.000 A 
BRANCH  21  24
ATOM     24  O   UNL     1      51.819   7.992  13.150  0.00  0.00    +0.000 OA
ATOM     25  H   UNL     1      52.201   8.258  12.297  0.00  0.00    +0.000 HD
ENDBRANCH  21  24
ENDBRANCH  17  18
ENDBRANCH   7  17
TORSDOF 8
ENDMDL
MODEL 6
REMARK VINA RESULT:    -6.044      2.528      3.808
REMARK INTER + INTRA:          -9.093
REMARK INTER:                  -8.136
REMARK INTRA:                  -0.957
REMARK UNBOUND:                -0.575
REMARK  Name = 
REMARK  8 active torsions:
REMARK  status: ('A' for Active; 'I' for Inactive)
REMARK    1  A    between atoms: N_1  and  C_2
REMARK    2  A    between atoms: C_2  and  C_3
REMARK    3  A    between atoms: C_3  and  C_4
REMARK    4  A    between atoms: C_4  and  O_5
REMARK    5  A    between atoms: O_5  and  C_6
REMARK    6  A    between atoms: N_12  and  C_13
REMARK    7  A    between atoms: C_13  and  C_14
REMARK    8  A    between atoms: C_17  and  O_18
REMARK                            x       y       z     vdW  Elec       q    Type
REMARK                         _______ _______ _______ _____ _____    ______ ____
ROOT
ATOM      1  C   UNL     1      47.851   5.874  14.620  0.00  0.00    +0.000 A 
ATOM      2  C   UNL     1      48.564   7.054  14.433  0.00  0.00    +0.000 A 
ATOM      3  N   UNL     1      48.196   8.090  13.645  0.00  0.00    +0.000 NA
ATOM      4  C   UNL     1      47.016   7.919  13.000  0.00  0.00    +0.000 A 
ATOM      5  C   UNL     1      46.371   8.805  12.111  0.00  0.00    +0.000 A 
ATOM      6  C   UNL     1      45.185   8.217  11.734  0.00  0.00    +0.000 A 
ATOM      7  N   UNL     1      45.093   6.996  12.365  0.00  0.00    +0.000 N 
ATOM      8  C   UNL     1      46.223   6.778  13.128  0.00  0.00    +0.000 A 
ATOM      9  C   UNL     1      46.646   5.711  13.933  0.00  0.00    +0.000 A 
ENDROOT
BRANCH   1  10
ATOM     10  O   UNL     1      48.240   4.821  15.400  0.00  0.00    +0.000 OA
BRANCH  10  11
ATOM     11  C   UNL     1      48.451   5.121  16.783  0.00  0.00    +0.000 C 
BRANCH  11  12
ATOM     12  C   UNL     1      48.992   3.871  17.473  0.00  0.00    +0.000 C 
BRANCH  12  13
ATOM     13  C   UNL     1      47.954   2.752  17.477  0.00  0.00    +0.000 C 
BRANCH  13  14
ATOM     14  N   UNL     1      46.604   3.304  17.488  0.00  0.00    +0.000 NA
ATOM     15  H   UNL     1      46.318   3.487  18.450  0.00  0.00    +0.000 HD
ATOM     16  H   UNL     1      45.946   2.618  17.121  0.00  0.00    +0.000 HD
ENDBRANCH  13  14
ENDBRANCH  12  13
ENDBRANCH  11  12
ENDBRANCH  10  11
ENDBRANCH   1  10
BRANCH   7  17
ATOM     17  C   UNL     1      43.912   6.139  12.305  0.00  0.00    +0.000 C 
BRANCH  17  18
ATOM     18  C   UNL     1      44.168   4.896  11.492  0.00  0.00    +0.000 A 
ATOM     19  C   UNL     1      44.899   4.967  10.296  0.00  0.00    +0.000 A 
ATOM     20  C   UNL     1      45.071   3.833   9.500  0.00  0.00    +0.000 A 
ATOM     21  C   UNL     1      44.514   2.623   9.902  0.00  0.00    +0.000 A 
ATOM     22  C   UNL     1      43.820   2.522  11.100  0.00  0.00    +0.000 A 
ATOM     23  C   UNL     1      43.648   3.656  11.895  0.00  0.00    +0.000 A 
BRANCH  21  24
ATOM     24  O   UNL     1      44.619   1.505   9.130  0.00  0.00    +0.000 OA
ATOM     25  H   UNL     1      43.801   1.411   8.614  0.00  0.00    +0.000 HD
ENDBRANCH  21  24
ENDBRANCH  17  18
ENDBRANCH   7  17
TORSDOF 8
ENDMDL
MODEL 7
REMARK VINA RESULT:    -6.033      3.927      7.028
REMARK INTER + INTRA:          -9.078
REMARK INTER:                  -8.309
REMARK INTRA:                  -0.769
REMARK UNBOUND:                -0.575
REMARK  Name = 
REMARK  8 active torsions:
REMARK  status: ('A' for Active; 'I' for Inactive)
REMARK    1  A    between atoms: N_1  and  C_2
REMARK    2  A    between atoms: C_2  and  C_3
REMARK    3  A    between atoms: C_3  and  C_4
REMARK    4  A    between atoms: C_4  and  O_5
REMARK    5  A    between atoms: O_5  and  C_6
REMARK    6  A    between atoms: N_12  and  C_13
REMARK    7  A    between atoms: C_13  and  C_14
REMARK    8  A    between atoms: C_17  and  O_18
REMARK                            x       y       z     vdW  Elec       q    Type
REMARK                         _______ _______ _______ _____ _____    ______ ____
ROOT
ATOM      1  C   UNL     1      44.779   4.341  10.945  0.00  0.00    +0.000 A 
ATOM      2  C   UNL     1      44.883   3.280  11.840  0.00  0.00    +0.000 A 
ATOM      3  N   UNL     1      45.592   3.278  12.991  0.00  0.00    +0.000 NA
ATOM      4  C   UNL     1      46.242   4.437  13.259  0.00  0.00    +0.000 A 
ATOM      5  C   UNL     1      47.061   4.744  14.366  0.00  0.00    +0.000 A 
ATOM      6  C   UNL     1      47.474   6.049  14.223  0.00  0.00    +0.000 A 
ATOM      7  N   UNL     1      46.932   6.543  13.056  0.00  0.00    +0.000 N 
ATOM      8  C   UNL     1      46.193   5.559  12.430  0.00  0.00    +0.000 A 
ATOM      9  C   UNL     1      45.470   5.520  11.230  0.00  0.00    +0.000 A 
ENDROOT
BRANCH   1  10
ATOM     10  O   UNL     1      44.078   4.328   9.770  0.00  0.00    +0.000 OA
BRANCH  10  11
ATOM     11  C   UNL     1      44.870   4.337   8.579  0.00  0.00    +0.000 C 
BRANCH  11  12
ATOM     12  C   UNL     1      45.252   2.899   8.240  0.00  0.00    +0.000 C 
BRANCH  12  13
ATOM     13  C   UNL     1      46.545   2.850   7.430  0.00  0.00    +0.000 C 
BRANCH  13  14
ATOM     14  N   UNL     1      46.877   4.173   6.913  0.00  0.00    +0.000 NA
ATOM     15  H   UNL     1      46.600   4.883   7.591  0.00  0.00    +0.000 HD
ATOM     16  H   UNL     1      46.339   4.361   6.068  0.00  0.00    +0.000 HD
ENDBRANCH  13  14
ENDBRANCH  12  13
ENDBRANCH  11  12
ENDBRANCH  10  11
ENDBRANCH   1  10
BRANCH   7  17
ATOM     17  C   UNL     1      47.049   7.937  12.635  0.00  0.00    +0.000 C 
BRANCH  17  18
ATOM     18  C   UNL     1      48.479   8.310  12.339  0.00  0.00    +0.000 A 
ATOM     19  C   UNL     1      49.244   7.543  11.448  0.00  0.00    +0.000 A 
ATOM     20  C   UNL     1      50.592   7.837  11.232  0.00  0.00    +0.000 A 
ATOM     21  C   UNL     1      51.175   8.905  11.906  0.00  0.00    +0.000 A 
ATOM     22  C   UNL     1      50.427   9.701  12.763  0.00  0.00    +0.000 A 
ATOM     23  C   UNL     1      49.080   9.405  12.980  0.00  0.00    +0.000 A 
BRANCH  21  24
ATOM     24  O   UNL     1      52.499   9.196  11.760  0.00  0.00    +0.000 OA
ATOM     25  H   UNL     1      52.999   8.363  11.773  0.00  0.00    +0.000 HD
ENDBRANCH  21  24
ENDBRANCH  17  18
ENDBRANCH   7  17
TORSDOF 8
ENDMDL
MODEL 8
REMARK VINA RESULT:    -5.934      3.720      7.908
REMARK INTER + INTRA:          -8.938
REMARK INTER:                  -7.949
REMARK INTRA:                  -0.989
REMARK UNBOUND:                -0.575
REMARK  Name = 
REMARK  8 active torsions:
REMARK  status: ('A' for Active; 'I' for Inactive)
REMARK    1  A    between atoms: N_1  and  C_2
REMARK    2  A    between atoms: C_2  and  C_3
REMARK    3  A    between atoms: C_3  and  C_4
REMARK    4  A    between atoms: C_4  and  O_5
REMARK    5  A    between atoms: O_5  and  C_6
REMARK    6  A    between atoms: N_12  and  C_13
REMARK    7  A    between atoms: C_13  and  C_14
REMARK    8  A    between atoms: C_17  and  O_18
REMARK                            x       y       z     vdW  Elec       q    Type
REMARK                         _______ _______ _______ _____ _____    ______ ____
ROOT
ATOM      1  C   UNL     1      46.554   4.918  13.741  0.00  0.00    +0.000 A 
ATOM      2  C   UNL     1      47.049   5.798  12.783  0.00  0.00    +0.000 A 
ATOM      3  N   UNL     1      48.047   6.692  12.965  0.00  0.00    +0.000 NA
ATOM      4  C   UNL     1      48.586   6.694  14.208  0.00  0.00    +0.000 A 
ATOM      5  C   UNL     1      49.626   7.506  14.707  0.00  0.00    +0.000 A 
ATOM      6  C   UNL     1      49.854   7.128  16.010  0.00  0.00    +0.000 A 
ATOM      7  N   UNL     1      48.977   6.111  16.320  0.00  0.00    +0.000 N 
ATOM      8  C   UNL     1      48.166   5.846  15.234  0.00  0.00    +0.000 A 
ATOM      9  C   UNL     1      47.111   4.949  15.021  0.00  0.00    +0.000 A 
ENDROOT
BRANCH   1  10
ATOM     10  O   UNL     1      45.528   4.032  13.557  0.00  0.00    +0.000 OA
BRANCH  10  11
ATOM     11  C   UNL     1      45.309   3.611  12.208  0.00  0.00    +0.000 C 
BRANCH  11  12
ATOM     12  C   UNL     1      43.876   3.963  11.817  0.00  0.00    +0.000 C 
BRANCH  12  13
ATOM     13  C   UNL     1      43.043   4.319  13.046  0.00  0.00    +0.000 C 
BRANCH  13  14
ATOM     14  N   UNL     1      42.994   5.765  13.232  0.00  0.00    +0.000 NA
ATOM     15  H   UNL     1      43.877   6.088  13.626  0.00  0.00    +0.000 HD
ATOM     16  H   UNL     1      42.274   6.003  13.912  0.00  0.00    +0.000 HD
ENDBRANCH  13  14
ENDBRANCH  12  13
ENDBRANCH  11  12
ENDBRANCH  10  11
ENDBRANCH   1  10
BRANCH   7  17
ATOM     17  C   UNL     1      49.007   5.369  17.578  0.00  0.00    +0.000 C 
BRANCH  17  18
ATOM     18  C   UNL     1      49.809   4.100  17.455  0.00  0.00    +0.000 A 
ATOM     19  C   UNL     1      49.191   2.903  17.059  0.00  0.00    +0.000 A 
ATOM     20  C   UNL     1      49.913   1.709  17.021  0.00  0.00    +0.000 A 
ATOM     21  C   UNL     1      51.258   1.711  17.375  0.00  0.00    +0.000 A 
ATOM     22  C   UNL     1      51.899   2.890  17.732  0.00  0.00    +0.000 A 
ATOM     23  C   UNL     1      51.177   4.083  17.772  0.00  0.00    +0.000 A 
BRANCH  21  24
ATOM     24  O   UNL     1      51.986   0.559  17.396  0.00  0.00    +0.000 OA
ATOM     25  H   UNL     1      51.549  -0.069  17.995  0.00  0.00    +0.000 HD
ENDBRANCH  21  24
ENDBRANCH  17  18
ENDBRANCH   7  17
TORSDOF 8
ENDMDL
MODEL 9
REMARK VINA RESULT:    -5.901      2.682      7.761
REMARK INTER + INTRA:          -8.891
REMARK INTER:                  -8.046
REMARK INTRA:                  -0.844
REMARK UNBOUND:                -0.575
REMARK  Name = 
REMARK  8 active torsions:
REMARK  status: ('A' for Active; 'I' for Inactive)
REMARK    1  A    between atoms: N_1  and  C_2
REMARK    2  A    between atoms: C_2  and  C_3
REMARK    3  A    between atoms: C_3  and  C_4
REMARK    4  A    between atoms: C_4  and  O_5
REMARK    5  A    between atoms: O_5  and  C_6
REMARK    6  A    between atoms: N_12  and  C_13
REMARK    7  A    between atoms: C_13  and  C_14
REMARK    8  A    between atoms: C_17  and  O_18
REMARK                            x       y       z     vdW  Elec       q    Type
REMARK                         _______ _______ _______ _____ _____    ______ ____
ROOT
ATOM      1  C   UNL     1      45.181   4.913  11.747  0.00  0.00    +0.000 A 
ATOM      2  C   UNL     1      44.380   5.966  11.318  0.00  0.00    +0.000 A 
ATOM      3  N   UNL     1      44.543   7.270  11.635  0.00  0.00    +0.000 NA
ATOM      4  C   UNL     1      45.597   7.529  12.447  0.00  0.00    +0.000 A 
ATOM      5  C   UNL     1      46.022   8.774  12.956  0.00  0.00    +0.000 A 
ATOM      6  C   UNL     1      47.154   8.546  13.705  0.00  0.00    +0.000 A 
ATOM      7  N   UNL     1      47.426   7.195  13.669  0.00  0.00    +0.000 N 
ATOM      8  C   UNL     1      46.464   6.545  12.924  0.00  0.00    +0.000 A 
ATOM      9  C   UNL     1      46.252   5.198  12.597  0.00  0.00    +0.000 A 
ENDROOT
BRANCH   1  10
ATOM     10  O   UNL     1      44.998   3.592  11.441  0.00  0.00    +0.000 OA
BRANCH  10  11
ATOM     11  C   UNL     1      44.171   3.331  10.304  0.00  0.00    +0.000 C 
BRANCH  11  12
ATOM     12  C   UNL     1      44.965   2.488   9.310  0.00  0.00    +0.000 C 
BRANCH  12  13
ATOM     13  C   UNL     1      45.228   3.261   8.020  0.00  0.00    +0.000 C 
BRANCH  13  14
ATOM     14  N   UNL     1      45.415   4.679   8.300  0.00  0.00    +0.000 NA
ATOM     15  H   UNL     1      44.832   4.950   9.093  0.00  0.00    +0.000 HD
ATOM     16  H   UNL     1      45.094   5.235   7.508  0.00  0.00    +0.000 HD
ENDBRANCH  13  14
ENDBRANCH  12  13
ENDBRANCH  11  12
ENDBRANCH  10  11
ENDBRANCH   1  10
BRANCH   7  17
ATOM     17  C   UNL     1      48.626   6.595  14.248  0.00  0.00    +0.000 C 
BRANCH  17  18
ATOM     18  C   UNL     1      48.382   6.116  15.656  0.00  0.00    +0.000 A 
ATOM     19  C   UNL     1      47.783   4.869  15.890  0.00  0.00    +0.000 A 
ATOM     20  C   UNL     1      47.483   4.457  17.190  0.00  0.00    +0.000 A 
ATOM     21  C   UNL     1      47.787   5.292  18.260  0.00  0.00    +0.000 A 
ATOM     22  C   UNL     1      48.416   6.512  18.055  0.00  0.00    +0.000 A 
ATOM     23  C   UNL     1      48.714   6.925  16.755  0.00  0.00    +0.000 A 
BRANCH  21  24
ATOM     24  O   UNL     1      47.469   4.947  19.540  0.00  0.00    +0.000 OA
ATOM     25  H   UNL     1      47.830   5.622  20.138  0.00  0.00    +0.000 HD
ENDBRANCH  21  24
ENDBRANCH  17  18
ENDBRANCH   7  17
TORSDOF 8
ENDMDL
