MODEL 1
REMARK VINA RESULT:    -9.446      0.000      0.000
REMARK INTER + INTRA:         -13.236
REMARK INTER:                 -12.207
REMARK INTRA:                  -1.029
REMARK UNBOUND:                -1.029
REMARK  Name = 
REMARK  5 active torsions:
REMARK  status: ('A' for Active; 'I' for Inactive)
REMARK    1  A    between atoms: C_2  and  C_4
REMARK    2  A    between atoms: N_8  and  C_9
REMARK    3  A    between atoms: C_9  and  C_10
REMARK    4  A    between atoms: C_14  and  C_15
REMARK    5  A    between atoms: C_19  and  C_20
REMARK                            x       y       z     vdW  Elec       q    Type
REMARK                         _______ _______ _______ _____ _____    ______ ____
ROOT
ATOM      1  C   UNL     1      43.950   4.854  11.641  0.00  0.00    +0.000 C 
ATOM      2  C   UNL     1      42.756   4.786  12.593  0.00  0.00    +0.000 C 
ATOM      3  C   UNL     1      42.673   5.630  11.368  0.00  0.00    +0.000 C 
ENDROOT
BRANCH   1   8
ATOM      4  C   UNL     1      46.430   2.775   7.536  0.00  0.00    +0.000 A 
ATOM      5  C   UNL     1      46.149   4.105   7.834  0.00  0.00    +0.000 A 
ATOM      6  C   UNL     1      45.409   4.406   8.980  0.00  0.00    +0.000 A 
ATOM      7  C   UNL     1      44.986   3.381   9.816  0.00  0.00    +0.000 A 
ATOM      8  N   UNL     1      44.261   3.587  10.983  0.00  0.00    +0.000 N 
ATOM      9  N   UNL     1      45.240   2.085   9.525  0.00  0.00    +0.000 NA
ATOM     10  C   UNL     1      45.934   1.805   8.390  0.00  0.00    +0.000 A 
ATOM     11  H   UNL     1      44.132   2.706  11.468  0.00  0.00    +0.000 HD
BRANCH   4  13
ATOM     12  N   UNL     1      47.148   3.189   5.258  0.00  0.00    +0.000 N 
ATOM     13  C   UNL     1      47.206   2.366   6.348  0.00  0.00    +0.000 C 
ATOM     14  O   UNL     1      47.899   1.358   6.350  0.00  0.00    +0.000 OA
ATOM     15  H   UNL     1      47.760   2.958   4.485  0.00  0.00    +0.000 HD
ATOM     16  H   UNL     1      46.809   4.139   5.314  0.00  0.00    +0.000 HD
ENDBRANCH   4  13
ENDBRANCH   1   8
BRANCH   1  17
ATOM     17  C   UNL     1      45.157   5.691  12.057  0.00  0.00    +0.000 A 
ATOM     18  C   UNL     1      45.435   6.925  11.446  0.00  0.00    +0.000 A 
ATOM     19  C   UNL     1      46.468   7.745  11.895  0.00  0.00    +0.000 A 
ATOM     20  C   UNL     1      47.247   7.352  12.979  0.00  0.00    +0.000 A 
ATOM     21  C   UNL     1      47.019   6.131  13.632  0.00  0.00    +0.000 A 
ATOM     22  C   UNL     1      45.989   5.309  13.129  0.00  0.00    +0.000 A 
BRANCH  21  23
ATOM     23  C   UNL     1      47.783   5.744  14.837  0.00  0.00    +0.000 A 
ATOM     24  C   UNL     1      48.717   6.600  15.426  0.00  0.00    +0.000 A 
ATOM     25  N   UNL     1      49.425   6.333  16.551  0.00  0.00    +0.000 NA
ATOM     26  C   UNL     1      49.186   5.148  17.152  0.00  0.00    +0.000 A 
ATOM     27  C   UNL     1      48.281   4.215  16.677  0.00  0.00    +0.000 A 
ATOM     28  C   UNL     1      47.585   4.523  15.497  0.00  0.00    +0.000 A 
BRANCH  27  29
ATOM     29  C   UNL     1      48.044   2.934  17.410  0.00  0.00    +0.000 C 
ATOM     30  F   UNL     1      46.726   2.637  17.584  0.00  0.00    +0.000 F 
ATOM     31  F   UNL     1      48.583   1.862  16.765  0.00  0.00    +0.000 F 
ATOM     32  F   UNL     1      48.594   2.934  18.655  0.00  0.00    +0.000 F 
ENDBRANCH  27  29
ENDBRANCH  21  23
ENDBRANCH   1  17
TORSDOF 5
ENDMDL
MODEL 2
REMARK VINA RESULT:    -8.970      3.663      4.660
REMARK INTER + INTRA:         -12.621
REMARK INTER:                 -11.431
REMARK INTRA:                  -1.190
REMARK UNBOUND:                -1.029
REMARK  Name = 
REMARK  5 active torsions:
REMARK  status: ('A' for Active; 'I' for Inactive)
REMARK    1  A    between atoms: C_2  and  C_4
REMARK    2  A    between atoms: N_8  and  C_9
REMARK    3  A    between atoms: C_9  and  C_10
REMARK    4  A    between atoms: C_14  and  C_15
REMARK    5  A    between atoms: C_19  and  C_20
REMARK                            x       y       z     vdW  Elec       q    Type
REMARK                         _______ _______ _______ _____ _____    ______ ____
ROOT
ATOM      1  C   UNL     1      44.038   4.814  11.472  0.00  0.00    +0.000 C 
ATOM      2  C   UNL     1      42.639   4.989  12.062  0.00  0.00    +0.000 C 
ATOM      3  C   UNL     1      43.117   5.930  11.010  0.00  0.00    +0.000 C 
ENDROOT
BRANCH   1   8
ATOM      4  C   UNL     1      46.521   2.738   7.367  0.00  0.00    +0.000 A 
ATOM      5  C   UNL     1      46.410   4.066   7.770  0.00  0.00    +0.000 A 
ATOM      6  C   UNL     1      45.630   4.377   8.886  0.00  0.00    +0.000 A 
ATOM      7  C   UNL     1      44.998   3.360   9.590  0.00  0.00    +0.000 A 
ATOM      8  N   UNL     1      44.217   3.574  10.719  0.00  0.00    +0.000 N 
ATOM      9  N   UNL     1      45.087   2.070   9.196  0.00  0.00    +0.000 NA
ATOM     10  C   UNL     1      45.824   1.786   8.089  0.00  0.00    +0.000 A 
ATOM     11  H   UNL     1      43.924   2.685  11.108  0.00  0.00    +0.000 HD
BRANCH   4  13
ATOM     12  N   UNL     1      47.165   3.037   5.049  0.00  0.00    +0.000 N 
ATOM     13  C   UNL     1      47.325   2.319   6.201  0.00  0.00    +0.000 C 
ATOM     14  O   UNL     1      48.126   1.397   6.272  0.00  0.00    +0.000 OA
ATOM     15  H   UNL     1      47.791   2.810   4.285  0.00  0.00    +0.000 HD
ATOM     16  H   UNL     1      46.724   3.945   5.033  0.00  0.00    +0.000 HD
ENDBRANCH   4  13
ENDBRANCH   1   8
BRANCH   1  17
ATOM     17  C   UNL     1      45.236   5.249  12.313  0.00  0.00    +0.000 A 
ATOM     18  C   UNL     1      45.660   4.497  13.422  0.00  0.00    +0.000 A 
ATOM     19  C   UNL     1      46.815   4.826  14.127  0.00  0.00    +0.000 A 
ATOM     20  C   UNL     1      47.585   5.916  13.731  0.00  0.00    +0.000 A 
ATOM     21  C   UNL     1      47.214   6.706  12.633  0.00  0.00    +0.000 A 
ATOM     22  C   UNL     1      46.019   6.367  11.964  0.00  0.00    +0.000 A 
BRANCH  21  23
ATOM     23  C   UNL     1      48.069   7.812  12.152  0.00  0.00    +0.000 A 
ATOM     24  C   UNL     1      47.622   9.136  12.135  0.00  0.00    +0.000 A 
ATOM     25  N   UNL     1      48.359  10.206  11.747  0.00  0.00    +0.000 NA
ATOM     26  C   UNL     1      49.630   9.963  11.366  0.00  0.00    +0.000 A 
ATOM     27  C   UNL     1      50.197   8.700  11.344  0.00  0.00    +0.000 A 
ATOM     28  C   UNL     1      49.393   7.618  11.733  0.00  0.00    +0.000 A 
BRANCH  27  29
ATOM     29  C   UNL     1      51.623   8.506  10.937  0.00  0.00    +0.000 C 
ATOM     30  F   UNL     1      51.849   7.342  10.269  0.00  0.00    +0.000 F 
ATOM     31  F   UNL     1      52.065   9.497  10.114  0.00  0.00    +0.000 F 
ATOM     32  F   UNL     1      52.474   8.498  12.000  0.00  0.00    +0.000 F 
ENDBRANCH  27  29
ENDBRANCH  21  23
ENDBRANCH   1  17
TORSDOF 5
ENDMDL
MODEL 3
REMARK VINA RESULT:    -8.813      1.519      1.950
REMARK INTER + INTRA:         -12.419
REMARK INTER:                 -11.290
REMARK INTRA:                  -1.128
REMARK UNBOUND:                -1.029
REMARK  Name = 
REMARK  5 active torsions:
REMARK  status: ('A' for Active; 'I' for Inactive)
REMARK    1  A    between atoms: C_2  and  C_4
REMARK    2  A    between atoms: N_8  and  C_9
REMARK    3  A    between atoms: C_9  and  C_10
REMARK    4  A    between atoms: C_14  and  C_15
REMARK    5  A    between atoms: C_19  and  C_20
REMARK                            x       y       z     vdW  Elec       q    Type
REMARK                         _______ _______ _______ _____ _____    ______ ____
ROOT
ATOM      1  C   UNL     1      43.999   4.990  11.593  0.00  0.00    +0.000 C 
ATOM      2  C   UNL     1      42.683   5.092  12.364  0.00  0.00    +0.000 C 
ATOM      3  C   UNL     1      42.914   5.971  11.184  0.00  0.00    +0.000 C 
ENDROOT
BRANCH   1   8
ATOM      4  C   UNL     1      46.402   2.723   7.543  0.00  0.00    +0.000 A 
ATOM      5  C   UNL     1      46.251   4.071   7.855  0.00  0.00    +0.000 A 
ATOM      6  C   UNL     1      45.503   4.431   8.979  0.00  0.00    +0.000 A 
ATOM      7  C   UNL     1      44.944   3.444   9.780  0.00  0.00    +0.000 A 
ATOM      8  N   UNL     1      44.200   3.708  10.923  0.00  0.00    +0.000 N 
ATOM      9  N   UNL     1      45.071   2.133   9.473  0.00  0.00    +0.000 NA
ATOM     10  C   UNL     1      45.775   1.799   8.359  0.00  0.00    +0.000 A 
ATOM     11  H   UNL     1      43.961   2.838  11.386  0.00  0.00    +0.000 HD
BRANCH   4  13
ATOM     12  N   UNL     1      47.232   3.087   5.294  0.00  0.00    +0.000 N 
ATOM     13  C   UNL     1      47.176   2.253   6.376  0.00  0.00    +0.000 C 
ATOM     14  O   UNL     1      47.771   1.184   6.389  0.00  0.00    +0.000 OA
ATOM     15  H   UNL     1      47.846   2.805   4.539  0.00  0.00    +0.000 HD
ATOM     16  H   UNL     1      46.982   4.064   5.349  0.00  0.00    +0.000 HD
ENDBRANCH   4  13
ENDBRANCH   1   8
BRANCH   1  17
ATOM     17  C   UNL     1      45.249   5.608  12.216  0.00  0.00    +0.000 A 
ATOM     18  C   UNL     1      45.707   6.877  11.825  0.00  0.00    +0.000 A 
ATOM     19  C   UNL     1      46.779   7.495  12.466  0.00  0.00    +0.000 A 
ATOM     20  C   UNL     1      47.417   6.857  13.526  0.00  0.00    +0.000 A 
ATOM     21  C   UNL     1      47.006   5.589  13.963  0.00  0.00    +0.000 A 
ATOM     22  C   UNL     1      45.941   4.976  13.269  0.00  0.00    +0.000 A 
BRANCH  21  23
ATOM     23  C   UNL     1      47.619   4.940  15.142  0.00  0.00    +0.000 A 
ATOM     24  C   UNL     1      47.595   3.554  15.318  0.00  0.00    +0.000 A 
ATOM     25  N   UNL     1      48.168   2.886  16.349  0.00  0.00    +0.000 NA
ATOM     26  C   UNL     1      48.828   3.628  17.263  0.00  0.00    +0.000 A 
ATOM     27  C   UNL     1      48.933   5.006  17.201  0.00  0.00    +0.000 A 
ATOM     28  C   UNL     1      48.307   5.661  16.129  0.00  0.00    +0.000 A 
BRANCH  27  29
ATOM     29  C   UNL     1      49.705   5.764  18.234  0.00  0.00    +0.000 C 
ATOM     30  F   UNL     1      50.657   6.586  17.713  0.00  0.00    +0.000 F 
ATOM     31  F   UNL     1      48.905   6.560  18.996  0.00  0.00    +0.000 F 
ATOM     32  F   UNL     1      50.355   4.946  19.106  0.00  0.00    +0.000 F 
ENDBRANCH  27  29
ENDBRANCH  21  23
ENDBRANCH   1  17
TORSDOF 5
ENDMDL
MODEL 4
REMARK VINA RESULT:    -7.847      4.271      8.088
REMARK INTER + INTRA:         -11.170
REMARK INTER:                 -11.038
REMARK INTRA:                  -0.131
REMARK UNBOUND:                -1.029
REMARK  Name = 
REMARK  5 active torsions:
REMARK  status: ('A' for Active; 'I' for Inactive)
REMARK    1  A    between atoms: C_2  and  C_4
REMARK    2  A    between atoms: N_8  and  C_9
REMARK    3  A    between atoms: C_9  and  C_10
REMARK    4  A    between atoms: C_14  and  C_15
REMARK    5  A    between atoms: C_19  and  C_20
REMARK                            x       y       z     vdW  Elec       q    Type
REMARK                         _______ _______ _______ _____ _____    ______ ____
ROOT
ATOM      1  C   UNL     1      48.594   7.965  12.570  0.00  0.00    +0.000 C 
ATOM      2  C   UNL     1      49.725   7.565  11.623  0.00  0.00    +0.000 C 
ATOM      3  C   UNL     1      49.334   8.998  11.738  0.00  0.00    +0.000 C 
ENDROOT
BRANCH   1   8
ATOM      4  C   UNL     1      47.738   4.650  16.520  0.00  0.00    +0.000 A 
ATOM      5  C   UNL     1      47.162   4.704  15.254  0.00  0.00    +0.000 A 
ATOM      6  C   UNL     1      47.520   5.738  14.385  0.00  0.00    +0.000 A 
ATOM      7  C   UNL     1      48.459   6.679  14.784  0.00  0.00    +0.000 A 
ATOM      8  N   UNL     1      48.886   7.730  13.982  0.00  0.00    +0.000 N 
ATOM      9  N   UNL     1      49.011   6.644  16.018  0.00  0.00    +0.000 NA
ATOM     10  C   UNL     1      48.629   5.651  16.865  0.00  0.00    +0.000 A 
ATOM     11  H   UNL     1      49.628   8.240  14.449  0.00  0.00    +0.000 HD
BRANCH   4  13
ATOM     12  N   UNL     1      48.253   3.479  18.579  0.00  0.00    +0.000 N 
ATOM     13  C   UNL     1      47.420   3.594  17.502  0.00  0.00    +0.000 C 
ATOM     14  O   UNL     1      46.435   2.878  17.378  0.00  0.00    +0.000 OA
ATOM     15  H   UNL     1      47.973   2.823  19.298  0.00  0.00    +0.000 HD
ATOM     16  H   UNL     1      48.902   4.207  18.842  0.00  0.00    +0.000 HD
ENDBRANCH   4  13
ENDBRANCH   1   8
BRANCH   1  17
ATOM     17  C   UNL     1      47.157   7.675  12.140  0.00  0.00    +0.000 A 
ATOM     18  C   UNL     1      46.161   8.662  12.214  0.00  0.00    +0.000 A 
ATOM     19  C   UNL     1      44.877   8.440  11.721  0.00  0.00    +0.000 A 
ATOM     20  C   UNL     1      44.559   7.220  11.130  0.00  0.00    +0.000 A 
ATOM     21  C   UNL     1      45.511   6.195  11.028  0.00  0.00    +0.000 A 
ATOM     22  C   UNL     1      46.791   6.439  11.569  0.00  0.00    +0.000 A 
BRANCH  21  23
ATOM     23  C   UNL     1      45.211   4.928  10.326  0.00  0.00    +0.000 A 
ATOM     24  C   UNL     1      44.128   4.122  10.688  0.00  0.00    +0.000 A 
ATOM     25  N   UNL     1      43.766   2.972  10.069  0.00  0.00    +0.000 NA
ATOM     26  C   UNL     1      44.509   2.593   9.008  0.00  0.00    +0.000 A 
ATOM     27  C   UNL     1      45.601   3.305   8.542  0.00  0.00    +0.000 A 
ATOM     28  C   UNL     1      45.954   4.479   9.225  0.00  0.00    +0.000 A 
BRANCH  27  29
ATOM     29  C   UNL     1      46.363   2.842   7.341  0.00  0.00    +0.000 C 
ATOM     30  F   UNL     1      46.542   1.493   7.292  0.00  0.00    +0.000 F 
ATOM     31  F   UNL     1      45.743   3.177   6.176  0.00  0.00    +0.000 F 
ATOM     32  F   UNL     1      47.608   3.387   7.269  0.00  0.00    +0.000 F 
ENDBRANCH  27  29
ENDBRANCH  21  23
ENDBRANCH   1  17
TORSDOF 5
ENDMDL
MODEL 5
REMARK VINA RESULT:    -7.500      4.646      8.530
REMARK INTER + INTRA:         -10.721
REMARK INTER:                  -9.589
REMARK INTRA:                  -1.133
REMARK UNBOUND:                -1.029
REMARK  Name = 
REMARK  5 active torsions:
REMARK  status: ('A' for Active; 'I' for Inactive)
REMARK    1  A    between atoms: C_2  and  C_4
REMARK    2  A    between atoms: N_8  and  C_9
REMARK    3  A    between atoms: C_9  and  C_10
REMARK    4  A    between atoms: C_14  and  C_15
REMARK    5  A    between atoms: C_19  and  C_20
REMARK                            x       y       z     vdW  Elec       q    Type
REMARK                         _______ _______ _______ _____ _____    ______ ____
ROOT
ATOM      1  C   UNL     1      49.199   7.869  12.612  0.00  0.00    +0.000 C 
ATOM      2  C   UNL     1      50.094   7.852  11.374  0.00  0.00    +0.000 C 
ATOM      3  C   UNL     1      49.893   9.126  12.119  0.00  0.00    +0.000 C 
ENDROOT
BRANCH   1   8
ATOM      4  C   UNL     1      49.066   7.398  17.816  0.00  0.00    +0.000 A 
ATOM      5  C   UNL     1      48.586   8.415  16.996  0.00  0.00    +0.000 A 
ATOM      6  C   UNL     1      48.800   8.337  15.617  0.00  0.00    +0.000 A 
ATOM      7  C   UNL     1      49.463   7.240  15.083  0.00  0.00    +0.000 A 
ATOM      8  N   UNL     1      49.705   7.071  13.726  0.00  0.00    +0.000 N 
ATOM      9  N   UNL     1      49.948   6.256  15.875  0.00  0.00    +0.000 NA
ATOM     10  C   UNL     1      49.761   6.361  17.217  0.00  0.00    +0.000 A 
ATOM     11  H   UNL     1      50.132   6.166  13.563  0.00  0.00    +0.000 HD
BRANCH   4  13
ATOM     12  N   UNL     1      49.465   8.422  19.977  0.00  0.00    +0.000 N 
ATOM     13  C   UNL     1      48.885   7.398  19.282  0.00  0.00    +0.000 C 
ATOM     14  O   UNL     1      48.216   6.542  19.845  0.00  0.00    +0.000 OA
ATOM     15  H   UNL     1      49.252   8.473  20.966  0.00  0.00    +0.000 HD
ATOM     16  H   UNL     1      49.788   9.267  19.528  0.00  0.00    +0.000 HD
ENDBRANCH   4  13
ENDBRANCH   1   8
BRANCH   1  17
ATOM     17  C   UNL     1      47.686   7.825  12.408  0.00  0.00    +0.000 A 
ATOM     18  C   UNL     1      46.936   9.003  12.252  0.00  0.00    +0.000 A 
ATOM     19  C   UNL     1      45.576   8.968  11.955  0.00  0.00    +0.000 A 
ATOM     20  C   UNL     1      44.930   7.745  11.796  0.00  0.00    +0.000 A 
ATOM     21  C   UNL     1      45.623   6.534  11.940  0.00  0.00    +0.000 A 
ATOM     22  C   UNL     1      46.991   6.605  12.277  0.00  0.00    +0.000 A 
BRANCH  21  23
ATOM     23  C   UNL     1      44.968   5.232  11.690  0.00  0.00    +0.000 A 
ATOM     24  C   UNL     1      44.016   4.704  12.566  0.00  0.00    +0.000 A 
ATOM     25  N   UNL     1      43.345   3.541  12.384  0.00  0.00    +0.000 NA
ATOM     26  C   UNL     1      43.612   2.855  11.254  0.00  0.00    +0.000 A 
ATOM     27  C   UNL     1      44.526   3.272  10.301  0.00  0.00    +0.000 A 
ATOM     28  C   UNL     1      45.214   4.471  10.538  0.00  0.00    +0.000 A 
BRANCH  27  29
ATOM     29  C   UNL     1      44.752   2.475   9.055  0.00  0.00    +0.000 C 
ATOM     30  F   UNL     1      44.075   1.294   9.030  0.00  0.00    +0.000 F 
ATOM     31  F   UNL     1      44.366   3.148   7.936  0.00  0.00    +0.000 F 
ATOM     32  F   UNL     1      46.062   2.159   8.867  0.00  0.00    +0.000 F 
ENDBRANCH  27  29
ENDBRANCH  21  23
ENDBRANCH   1  17
TORSDOF 5
ENDMDL
MODEL 6
REMARK VINA RESULT:    -7.401      4.155      8.382
REMARK INTER + INTRA:         -10.593
REMARK INTER:                  -9.628
REMARK INTRA:                  -0.965
REMARK UNBOUND:                -1.029
REMARK  Name = 
REMARK  5 active torsions:
REMARK  status: ('A' for Active; 'I' for Inactive)
REMARK    1  A    between atoms: C_2  and  C_4
REMARK    2  A    between atoms: N_8  and  C_9
REMARK    3  A    between atoms: C_9  and  C_10
REMARK    4  A    between atoms: C_14  and  C_15
REMARK    5  A    between atoms: C_19  and  C_20
REMARK                            x       y       z     vdW  Elec       q    Type
REMARK                         _______ _______ _______ _____ _____    ______ ____
ROOT
ATOM      1  C   UNL     1      48.718   5.099  17.550  0.00  0.00    +0.000 C 
ATOM      2  C   UNL     1      47.651   5.458  18.584  0.00  0.00    +0.000 C 
ATOM      3  C   UNL     1      47.511   4.208  17.785  0.00  0.00    +0.000 C 
ENDROOT
BRANCH   1   8
ATOM      4  C   UNL     1      52.508   1.504  17.747  0.00  0.00    +0.000 A 
ATOM      5  C   UNL     1      51.222   1.423  17.220  0.00  0.00    +0.000 A 
ATOM      6  C   UNL     1      50.364   2.518  17.345  0.00  0.00    +0.000 A 
ATOM      7  C   UNL     1      50.810   3.676  17.969  0.00  0.00    +0.000 A 
ATOM      8  N   UNL     1      50.032   4.816  18.124  0.00  0.00    +0.000 N 
ATOM      9  N   UNL     1      52.052   3.757  18.499  0.00  0.00    +0.000 NA
ATOM     10  C   UNL     1      52.865   2.672  18.398  0.00  0.00    +0.000 A 
ATOM     11  H   UNL     1      50.588   5.558  18.535  0.00  0.00    +0.000 HD
BRANCH   4  13
ATOM     12  N   UNL     1      53.270  -0.679  18.476  0.00  0.00    +0.000 N 
ATOM     13  C   UNL     1      53.482   0.397  17.660  0.00  0.00    +0.000 C 
ATOM     14  O   UNL     1      54.413   0.423  16.867  0.00  0.00    +0.000 OA
ATOM     15  H   UNL     1      53.880  -1.476  18.339  0.00  0.00    +0.000 HD
ATOM     16  H   UNL     1      52.387  -0.845  18.936  0.00  0.00    +0.000 HD
ENDBRANCH   4  13
ENDBRANCH   1   8
BRANCH   1  17
ATOM     17  C   UNL     1      48.730   5.864  16.229  0.00  0.00    +0.000 A 
ATOM     18  C   UNL     1      49.798   6.710  15.886  0.00  0.00    +0.000 A 
ATOM     19  C   UNL     1      49.869   7.324  14.637  0.00  0.00    +0.000 A 
ATOM     20  C   UNL     1      48.872   7.098  13.692  0.00  0.00    +0.000 A 
ATOM     21  C   UNL     1      47.781   6.263  13.975  0.00  0.00    +0.000 A 
ATOM     22  C   UNL     1      47.720   5.686  15.262  0.00  0.00    +0.000 A 
BRANCH  21  23
ATOM     23  C   UNL     1      46.762   5.947  12.951  0.00  0.00    +0.000 A 
ATOM     24  C   UNL     1      46.883   6.387  11.630  0.00  0.00    +0.000 A 
ATOM     25  N   UNL     1      46.014   6.104  10.628  0.00  0.00    +0.000 NA
ATOM     26  C   UNL     1      44.962   5.320  10.940  0.00  0.00    +0.000 A 
ATOM     27  C   UNL     1      44.731   4.812  12.207  0.00  0.00    +0.000 A 
ATOM     28  C   UNL     1      45.643   5.146  13.219  0.00  0.00    +0.000 A 
BRANCH  27  29
ATOM     29  C   UNL     1      43.558   3.923  12.475  0.00  0.00    +0.000 C 
ATOM     30  F   UNL     1      42.936   4.180  13.659  0.00  0.00    +0.000 F 
ATOM     31  F   UNL     1      42.596   4.036  11.518  0.00  0.00    +0.000 F 
ATOM     32  F   UNL     1      43.897   2.606  12.509  0.00  0.00    +0.000 F 
ENDBRANCH  27  29
ENDBRANCH  21  23
ENDBRANCH   1  17
TORSDOF 5
ENDMDL
MODEL 7
REMARK VINA RESULT:    -7.383      4.575      8.610
REMARK INTER + INTRA:         -10.571
REMARK INTER:                  -9.828
REMARK INTRA:                  -0.743
REMARK UNBOUND:                -1.029
REMARK  Name = 
REMARK  5 active torsions:
REMARK  status: ('A' for Active; 'I' for Inactive)
REMARK    1  A    between atoms: C_2  and  C_4
REMARK    2  A    between atoms: N_8  and  C_9
REMARK    3  A    between atoms: C_9  and  C_10
REMARK    4  A    between atoms: C_14  and  C_15
REMARK    5  A    between atoms: C_19  and  C_20
REMARK                            x       y       z     vdW  Elec       q    Type
REMARK                         _______ _______ _______ _____ _____    ______ ____
ROOT
ATOM      1  C   UNL     1      48.133   4.747  17.007  0.00  0.00    +0.000 C 
ATOM      2  C   UNL     1      47.173   5.109  18.140  0.00  0.00    +0.000 C 
ATOM      3  C   UNL     1      47.144   3.736  17.561  0.00  0.00    +0.000 C 
ENDROOT
BRANCH   1   8
ATOM      4  C   UNL     1      52.347   1.711  17.595  0.00  0.00    +0.000 A 
ATOM      5  C   UNL     1      51.019   1.365  17.360  0.00  0.00    +0.000 A 
ATOM      6  C   UNL     1      50.053   2.372  17.300  0.00  0.00    +0.000 A 
ATOM      7  C   UNL     1      50.431   3.700  17.451  0.00  0.00    +0.000 A 
ATOM      8  N   UNL     1      49.542   4.766  17.390  0.00  0.00    +0.000 N 
ATOM      9  N   UNL     1      51.716   4.043  17.697  0.00  0.00    +0.000 NA
ATOM     10  C   UNL     1      52.640   3.050  17.784  0.00  0.00    +0.000 A 
ATOM     11  H   UNL     1      50.051   5.641  17.449  0.00  0.00    +0.000 HD
BRANCH   4  13
ATOM     12  N   UNL     1      53.197  -0.401  18.430  0.00  0.00    +0.000 N 
ATOM     13  C   UNL     1      53.433   0.713  17.673  0.00  0.00    +0.000 C 
ATOM     14  O   UNL     1      54.481   0.856  17.058  0.00  0.00    +0.000 OA
ATOM     15  H   UNL     1      53.903  -1.126  18.397  0.00  0.00    +0.000 HD
ATOM     16  H   UNL     1      52.269  -0.669  18.725  0.00  0.00    +0.000 HD
ENDBRANCH   4  13
ENDBRANCH   1   8
BRANCH   1  17
ATOM     17  C   UNL     1      47.827   5.273  15.606  0.00  0.00    +0.000 A 
ATOM     18  C   UNL     1      48.647   6.235  14.993  0.00  0.00    +0.000 A 
ATOM     19  C   UNL     1      48.439   6.638  13.676  0.00  0.00    +0.000 A 
ATOM     20  C   UNL     1      47.405   6.077  12.932  0.00  0.00    +0.000 A 
ATOM     21  C   UNL     1      46.552   5.112  13.488  0.00  0.00    +0.000 A 
ATOM     22  C   UNL     1      46.767   4.753  14.835  0.00  0.00    +0.000 A 
BRANCH  21  23
ATOM     23  C   UNL     1      45.506   4.447  12.681  0.00  0.00    +0.000 A 
ATOM     24  C   UNL     1      44.276   4.075  13.230  0.00  0.00    +0.000 A 
ATOM     25  N   UNL     1      43.256   3.500  12.546  0.00  0.00    +0.000 NA
ATOM     26  C   UNL     1      43.449   3.291  11.228  0.00  0.00    +0.000 A 
ATOM     27  C   UNL     1      44.616   3.621  10.561  0.00  0.00    +0.000 A 
ATOM     28  C   UNL     1      45.655   4.194  11.310  0.00  0.00    +0.000 A 
BRANCH  27  29
ATOM     29  C   UNL     1      44.751   3.388   9.090  0.00  0.00    +0.000 C 
ATOM     30  F   UNL     1      46.042   3.341   8.659  0.00  0.00    +0.000 F 
ATOM     31  F   UNL     1      44.187   2.212   8.699  0.00  0.00    +0.000 F 
ATOM     32  F   UNL     1      44.145   4.356   8.349  0.00  0.00    +0.000 F 
ENDBRANCH  27  29
ENDBRANCH  21  23
ENDBRANCH   1  17
TORSDOF 5
ENDMDL
MODEL 8
REMARK VINA RESULT:    -7.073      4.736      8.507
REMARK INTER + INTRA:         -10.169
REMARK INTER:                  -8.986
REMARK INTRA:                  -1.183
REMARK UNBOUND:                -1.029
REMARK  Name = 
REMARK  5 active torsions:
REMARK  status: ('A' for Active; 'I' for Inactive)
REMARK    1  A    between atoms: C_2  and  C_4
REMARK    2  A    between atoms: N_8  and  C_9
REMARK    3  A    between atoms: C_9  and  C_10
REMARK    4  A    between atoms: C_14  and  C_15
REMARK    5  A    between atoms: C_19  and  C_20
REMARK                            x       y       z     vdW  Elec       q    Type
REMARK                         _______ _______ _______ _____ _____    ______ ____
ROOT
ATOM      1  C   UNL     1      49.782   7.635  16.686  0.00  0.00    +0.000 C 
ATOM      2  C   UNL     1      49.540   9.004  17.322  0.00  0.00    +0.000 C 
ATOM      3  C   UNL     1      48.614   7.877  17.626  0.00  0.00    +0.000 C 
ENDROOT
BRANCH   1   8
ATOM      4  C   UNL     1      51.900   2.993  17.820  0.00  0.00    +0.000 A 
ATOM      5  C   UNL     1      50.572   3.339  17.584  0.00  0.00    +0.000 A 
ATOM      6  C   UNL     1      50.247   4.678  17.358  0.00  0.00    +0.000 A 
ATOM      7  C   UNL     1      51.250   5.639  17.346  0.00  0.00    +0.000 A 
ATOM      8  N   UNL     1      51.021   6.989  17.114  0.00  0.00    +0.000 N 
ATOM      9  N   UNL     1      52.539   5.314  17.591  0.00  0.00    +0.000 NA
ATOM     10  C   UNL     1      52.837   4.011  17.841  0.00  0.00    +0.000 A 
ATOM     11  H   UNL     1      51.903   7.486  17.076  0.00  0.00    +0.000 HD
BRANCH   4  13
ATOM     12  N   UNL     1      51.463   0.611  17.711  0.00  0.00    +0.000 N 
ATOM     13  C   UNL     1      52.334   1.603  18.066  0.00  0.00    +0.000 C 
ATOM     14  O   UNL     1      53.437   1.348  18.532  0.00  0.00    +0.000 OA
ATOM     15  H   UNL     1      51.807  -0.339  17.788  0.00  0.00    +0.000 HD
ATOM     16  H   UNL     1      50.680   0.772  17.096  0.00  0.00    +0.000 HD
ENDBRANCH   4  13
ENDBRANCH   1   8
BRANCH   1  17
ATOM     17  C   UNL     1      49.420   7.450  15.214  0.00  0.00    +0.000 A 
ATOM     18  C   UNL     1      50.247   7.945  14.192  0.00  0.00    +0.000 A 
ATOM     19  C   UNL     1      49.983   7.685  12.849  0.00  0.00    +0.000 A 
ATOM     20  C   UNL     1      48.883   6.909  12.495  0.00  0.00    +0.000 A 
ATOM     21  C   UNL     1      48.019   6.387  13.469  0.00  0.00    +0.000 A 
ATOM     22  C   UNL     1      48.295   6.700  14.817  0.00  0.00    +0.000 A 
BRANCH  21  23
ATOM     23  C   UNL     1      46.899   5.491  13.110  0.00  0.00    +0.000 A 
ATOM     24  C   UNL     1      46.915   4.128  13.418  0.00  0.00    +0.000 A 
ATOM     25  N   UNL     1      45.911   3.255  13.158  0.00  0.00    +0.000 NA
ATOM     26  C   UNL     1      44.806   3.757  12.570  0.00  0.00    +0.000 A 
ATOM     27  C   UNL     1      44.659   5.088  12.221  0.00  0.00    +0.000 A 
ATOM     28  C   UNL     1      45.730   5.954  12.488  0.00  0.00    +0.000 A 
BRANCH  27  29
ATOM     29  C   UNL     1      43.393   5.582  11.597  0.00  0.00    +0.000 C 
ATOM     30  F   UNL     1      43.039   4.909  10.468  0.00  0.00    +0.000 F 
ATOM     31  F   UNL     1      42.328   5.479  12.439  0.00  0.00    +0.000 F 
ATOM     32  F   UNL     1      43.462   6.894  11.243  0.00  0.00    +0.000 F 
ENDBRANCH  27  29
ENDBRANCH  21  23
ENDBRANCH   1  17
TORSDOF 5
ENDMDL
MODEL 9
REMARK VINA RESULT:    -6.557      2.964      3.394
REMARK INTER + INTRA:          -9.503
REMARK INTER:                  -8.517
REMARK INTRA:                  -0.985
REMARK UNBOUND:                -1.029
REMARK  Name = 
REMARK  5 active torsions:
REMARK  status: ('A' for Active; 'I' for Inactive)
REMARK    1  A    between atoms: C_2  and  C_4
REMARK    2  A    between atoms: N_8  and  C_9
REMARK    3  A    between atoms: C_9  and  C_10
REMARK    4  A    between atoms: C_14  and  C_15
REMARK    5  A    between atoms: C_19  and  C_20
REMARK                            x       y       z     vdW  Elec       q    Type
REMARK                         _______ _______ _______ _____ _____    ______ ____
ROOT
ATOM      1  C   UNL     1      43.704   5.223  11.890  0.00  0.00    +0.000 C 
ATOM      2  C   UNL     1      42.740   5.060  13.065  0.00  0.00    +0.000 C 
ATOM      3  C   UNL     1      42.231   5.573  11.762  0.00  0.00    +0.000 C 
ENDROOT
BRANCH   1   8
ATOM      4  C   UNL     1      46.155   3.047   7.818  0.00  0.00    +0.000 A 
ATOM      5  C   UNL     1      45.566   4.302   7.943  0.00  0.00    +0.000 A 
ATOM      6  C   UNL     1      44.910   4.632   9.132  0.00  0.00    +0.000 A 
ATOM      7  C   UNL     1      44.877   3.718  10.177  0.00  0.00    +0.000 A 
ATOM      8  N   UNL     1      44.263   3.966  11.398  0.00  0.00    +0.000 N 
ATOM      9  N   UNL     1      45.432   2.490  10.057  0.00  0.00    +0.000 NA
ATOM     10  C   UNL     1      46.038   2.172   8.883  0.00  0.00    +0.000 A 
ATOM     11  H   UNL     1      44.431   3.191  12.031  0.00  0.00    +0.000 HD
BRANCH   4  13
ATOM     12  N   UNL     1      47.973   1.828   6.775  0.00  0.00    +0.000 N 
ATOM     13  C   UNL     1      46.868   2.615   6.599  0.00  0.00    +0.000 C 
ATOM     14  O   UNL     1      46.470   2.915   5.482  0.00  0.00    +0.000 OA
ATOM     15  H   UNL     1      48.397   1.452   5.936  0.00  0.00    +0.000 HD
ATOM     16  H   UNL     1      48.167   1.355   7.646  0.00  0.00    +0.000 HD
ENDBRANCH   4  13
ENDBRANCH   1   8
BRANCH   1  17
ATOM     17  C   UNL     1      44.667   6.408  11.906  0.00  0.00    +0.000 A 
ATOM     18  C   UNL     1      44.442   7.541  11.107  0.00  0.00    +0.000 A 
ATOM     19  C   UNL     1      45.253   8.670  11.198  0.00  0.00    +0.000 A 
ATOM     20  C   UNL     1      46.311   8.696  12.103  0.00  0.00    +0.000 A 
ATOM     21  C   UNL     1      46.587   7.595  12.927  0.00  0.00    +0.000 A 
ATOM     22  C   UNL     1      45.769   6.455  12.784  0.00  0.00    +0.000 A 
BRANCH  21  23
ATOM     23  C   UNL     1      47.653   7.643  13.951  0.00  0.00    +0.000 A 
ATOM     24  C   UNL     1      48.640   6.658  14.036  0.00  0.00    +0.000 A 
ATOM     25  N   UNL     1      49.669   6.655  14.918  0.00  0.00    +0.000 NA
ATOM     26  C   UNL     1      49.746   7.701  15.766  0.00  0.00    +0.000 A 
ATOM     27  C   UNL     1      48.838   8.746  15.780  0.00  0.00    +0.000 A 
ATOM     28  C   UNL     1      47.776   8.700  14.865  0.00  0.00    +0.000 A 
BRANCH  27  29
ATOM     29  C   UNL     1      49.001   9.890  16.730  0.00  0.00    +0.000 C 
ATOM     30  F   UNL     1      50.172   9.864  17.424  0.00  0.00    +0.000 F 
ATOM     31  F   UNL     1      48.974  11.095  16.095  0.00  0.00    +0.000 F 
ATOM     32  F   UNL     1      48.013   9.939  17.664  0.00  0.00    +0.000 F 
ENDBRANCH  27  29
ENDBRANCH  21  23
ENDBRANCH   1  17
TORSDOF 5
ENDMDL
