MODEL 1
REMARK VINA RESULT:    -8.751      0.000      0.000
REMARK INTER + INTRA:         -11.186
REMARK INTER:                 -10.542
REMARK INTRA:                  -0.644
REMARK UNBOUND:                -0.644
REMARK  Name = 
REMARK  4 active torsions:
REMARK  status: ('A' for Active; 'I' for Inactive)
REMARK    1  A    between atoms: C_2  and  C_4
REMARK    2  A    between atoms: N_8  and  C_9
REMARK    3  A    between atoms: C_9  and  C_10
REMARK    4  A    between atoms: C_14  and  O_15
REMARK                            x       y       z     vdW  Elec       q    Type
REMARK                         _______ _______ _______ _____ _____    ______ ____
ROOT
ATOM      1  C   UNL     1      46.534   2.658   7.517  0.00  0.00    +0.000 A 
ATOM      2  C   UNL     1      46.256   4.003   7.724  0.00  0.00    +0.000 A 
ATOM      3  C   UNL     1      45.381   4.372   8.749  0.00  0.00    +0.000 A 
ATOM      4  C   UNL     1      44.793   3.392   9.540  0.00  0.00    +0.000 A 
ATOM      5  N   UNL     1      43.823   3.670  10.507  0.00  0.00    +0.000 N 
ATOM      6  N   UNL     1      45.054   2.081   9.348  0.00  0.00    +0.000 NA
ATOM      7  C   UNL     1      45.910   1.739   8.350  0.00  0.00    +0.000 A 
ATOM      8  H   UNL     1      43.640   2.783  10.972  0.00  0.00    +0.000 HD
ENDROOT
BRANCH   1  10
ATOM      9  N   UNL     1      47.665   3.021   5.396  0.00  0.00    +0.000 N 
ATOM     10  C   UNL     1      47.417   2.169   6.437  0.00  0.00    +0.000 C 
ATOM     11  O   UNL     1      47.930   1.059   6.481  0.00  0.00    +0.000 OA
ATOM     12  H   UNL     1      48.335   2.707   4.707  0.00  0.00    +0.000 HD
ATOM     13  H   UNL     1      47.464   4.011   5.437  0.00  0.00    +0.000 HD
ENDBRANCH   1  10
BRANCH   5  14
ATOM     14  C   UNL     1      43.829   4.860  11.376  0.00  0.00    +0.000 C 
ATOM     15  C   UNL     1      42.516   5.106  12.114  0.00  0.00    +0.000 C 
ATOM     16  C   UNL     1      42.987   6.093  11.101  0.00  0.00    +0.000 C 
BRANCH  14  17
ATOM     17  C   UNL     1      45.137   5.049  12.141  0.00  0.00    +0.000 A 
ATOM     18  C   UNL     1      45.819   6.282  12.148  0.00  0.00    +0.000 A 
ATOM     19  C   UNL     1      46.991   6.467  12.890  0.00  0.00    +0.000 A 
ATOM     20  C   UNL     1      47.504   5.422  13.654  0.00  0.00    +0.000 A 
ATOM     21  C   UNL     1      46.846   4.199  13.657  0.00  0.00    +0.000 A 
ATOM     22  C   UNL     1      45.686   4.009  12.910  0.00  0.00    +0.000 A 
BRANCH  21  23
ATOM     23  O   UNL     1      47.305   3.147  14.395  0.00  0.00    +0.000 OA
ATOM     24  H   UNL     1      48.260   3.059  14.243  0.00  0.00    +0.000 HD
ENDBRANCH  21  23
ENDBRANCH  14  17
ENDBRANCH   5  14
TORSDOF 4
ENDMDL
MODEL 2
REMARK VINA RESULT:    -6.746      2.580      6.387
REMARK INTER + INTRA:          -8.771
REMARK INTER:                  -8.562
REMARK INTRA:                  -0.209
REMARK UNBOUND:                -0.644
REMARK  Name = 
REMARK  4 active torsions:
REMARK  status: ('A' for Active; 'I' for Inactive)
REMARK    1  A    between atoms: C_2  and  C_4
REMARK    2  A    between atoms: N_8  and  C_9
REMARK    3  A    between atoms: C_9  and  C_10
REMARK    4  A    between atoms: C_14  and  O_15
REMARK                            x       y       z     vdW  Elec       q    Type
REMARK                         _______ _______ _______ _____ _____    ______ ____
ROOT
ATOM      1  C   UNL     1      47.751   5.824  14.459  0.00  0.00    +0.000 A 
ATOM      2  C   UNL     1      46.783   4.830  14.543  0.00  0.00    +0.000 A 
ATOM      3  C   UNL     1      45.928   4.614  13.460  0.00  0.00    +0.000 A 
ATOM      4  C   UNL     1      46.049   5.397  12.318  0.00  0.00    +0.000 A 
ATOM      5  N   UNL     1      45.163   5.320  11.240  0.00  0.00    +0.000 N 
ATOM      6  N   UNL     1      46.985   6.367  12.225  0.00  0.00    +0.000 NA
ATOM      7  C   UNL     1      47.811   6.562  13.286  0.00  0.00    +0.000 A 
ATOM      8  H   UNL     1      45.543   5.943  10.531  0.00  0.00    +0.000 HD
ENDROOT
BRANCH   1  10
ATOM      9  N   UNL     1      48.245   5.896  16.838  0.00  0.00    +0.000 N 
ATOM     10  C   UNL     1      48.675   6.151  15.565  0.00  0.00    +0.000 C 
ATOM     11  O   UNL     1      49.792   6.605  15.355  0.00  0.00    +0.000 OA
ATOM     12  H   UNL     1      48.916   6.047  17.580  0.00  0.00    +0.000 HD
ATOM     13  H   UNL     1      47.447   5.310  17.041  0.00  0.00    +0.000 HD
ENDBRANCH   1  10
BRANCH   5  14
ATOM     14  C   UNL     1      44.564   4.070  10.741  0.00  0.00    +0.000 C 
ATOM     15  C   UNL     1      43.042   4.021  10.833  0.00  0.00    +0.000 C 
ATOM     16  C   UNL     1      43.858   3.070  11.639  0.00  0.00    +0.000 C 
BRANCH  14  17
ATOM     17  C   UNL     1      45.232   3.538   9.474  0.00  0.00    +0.000 A 
ATOM     18  C   UNL     1      45.695   4.403   8.463  0.00  0.00    +0.000 A 
ATOM     19  C   UNL     1      46.350   3.917   7.327  0.00  0.00    +0.000 A 
ATOM     20  C   UNL     1      46.569   2.550   7.179  0.00  0.00    +0.000 A 
ATOM     21  C   UNL     1      46.117   1.682   8.165  0.00  0.00    +0.000 A 
ATOM     22  C   UNL     1      45.454   2.163   9.291  0.00  0.00    +0.000 A 
BRANCH  21  23
ATOM     23  O   UNL     1      46.314   0.335   8.071  0.00  0.00    +0.000 OA
ATOM     24  H   UNL     1      45.450  -0.105   8.125  0.00  0.00    +0.000 HD
ENDBRANCH  21  23
ENDBRANCH  14  17
ENDBRANCH   5  14
TORSDOF 4
ENDMDL
MODEL 3
REMARK VINA RESULT:    -5.768      3.303      4.774
REMARK INTER + INTRA:          -7.593
REMARK INTER:                  -7.843
REMARK INTRA:                   0.250
REMARK UNBOUND:                -0.644
REMARK  Name = 
REMARK  4 active torsions:
REMARK  status: ('A' for Active; 'I' for Inactive)
REMARK    1  A    between atoms: C_2  and  C_4
REMARK    2  A    between atoms: N_8  and  C_9
REMARK    3  A    between atoms: C_9  and  C_10
REMARK    4  A    between atoms: C_14  and  O_15
REMARK                            x       y       z     vdW  Elec       q    Type
REMARK                         _______ _______ _______ _____ _____    ______ ____
ROOT
ATOM      1  C   UNL     1      45.028   3.777  10.023  0.00  0.00    +0.000 A 
ATOM      2  C   UNL     1      45.476   5.065   9.755  0.00  0.00    +0.000 A 
ATOM      3  C   UNL     1      45.872   5.887  10.813  0.00  0.00    +0.000 A 
ATOM      4  C   UNL     1      45.805   5.412  12.118  0.00  0.00    +0.000 A 
ATOM      5  N   UNL     1      46.074   6.206  13.235  0.00  0.00    +0.000 N 
ATOM      6  N   UNL     1      45.370   4.162  12.392  0.00  0.00    +0.000 NA
ATOM      7  C   UNL     1      44.992   3.375  11.351  0.00  0.00    +0.000 A 
ATOM      8  H   UNL     1      46.023   5.578  14.035  0.00  0.00    +0.000 HD
ENDROOT
BRANCH   1  10
ATOM      9  N   UNL     1      44.199   3.391   7.771  0.00  0.00    +0.000 N 
ATOM     10  C   UNL     1      44.554   2.849   8.976  0.00  0.00    +0.000 C 
ATOM     11  O   UNL     1      44.506   1.641   9.163  0.00  0.00    +0.000 OA
ATOM     12  H   UNL     1      43.956   2.739   7.037  0.00  0.00    +0.000 HD
ATOM     13  H   UNL     1      44.447   4.332   7.498  0.00  0.00    +0.000 HD
ENDBRANCH   1  10
BRANCH   5  14
ATOM     14  C   UNL     1      47.129   7.234  13.294  0.00  0.00    +0.000 C 
ATOM     15  C   UNL     1      48.523   6.725  12.940  0.00  0.00    +0.000 C 
ATOM     16  C   UNL     1      48.248   7.218  14.319  0.00  0.00    +0.000 C 
BRANCH  14  17
ATOM     17  C   UNL     1      46.689   8.589  12.743  0.00  0.00    +0.000 A 
ATOM     18  C   UNL     1      47.615   9.507  12.208  0.00  0.00    +0.000 A 
ATOM     19  C   UNL     1      47.204  10.726  11.659  0.00  0.00    +0.000 A 
ATOM     20  C   UNL     1      45.852  11.053  11.621  0.00  0.00    +0.000 A 
ATOM     21  C   UNL     1      44.925  10.161  12.146  0.00  0.00    +0.000 A 
ATOM     22  C   UNL     1      45.332   8.952  12.704  0.00  0.00    +0.000 A 
BRANCH  21  23
ATOM     23  O   UNL     1      43.587  10.433  12.125  0.00  0.00    +0.000 OA
ATOM     24  H   UNL     1      43.411  11.045  11.392  0.00  0.00    +0.000 HD
ENDBRANCH  21  23
ENDBRANCH  14  17
ENDBRANCH   5  14
TORSDOF 4
ENDMDL
