MODEL 1
REMARK VINA RESULT:    -7.932      0.000      0.000
REMARK INTER + INTRA:         -11.707
REMARK INTER:                 -10.714
REMARK INTRA:                  -0.993
REMARK UNBOUND:                -0.993
REMARK  Name = 
REMARK  6 active torsions:
REMARK  status: ('A' for Active; 'I' for Inactive)
REMARK    1  A    between atoms: C_2  and  C_3
REMARK    2  A    between atoms: N_10  and  C_11
REMARK    3  A    between atoms: C_11  and  C_12
REMARK    4  A    between atoms: C_15  and  C_16
REMARK    5  A    between atoms: C_16  and  N_17
REMARK    6  A    between atoms: C_18  and  C_20
REMARK                            x       y       z     vdW  Elec       q    Type
REMARK                         _______ _______ _______ _____ _____    ______ ____
ROOT
ATOM      1  C   UNL     1      49.246   6.306  17.642  0.00  0.00    +0.000 A 
ATOM      2  C   UNL     1      49.087   7.692  17.658  0.00  0.00    +0.000 A 
ATOM      3  C   UNL     1      48.684   8.353  16.494  0.00  0.00    +0.000 A 
ATOM      4  C   UNL     1      48.434   7.623  15.330  0.00  0.00    +0.000 A 
ATOM      5  C   UNL     1      48.632   6.248  15.400  0.00  0.00    +0.000 A 
ATOM      6  N   UNL     1      49.015   5.577  16.519  0.00  0.00    +0.000 NA
ENDROOT
BRANCH   1   7
ATOM      7  C   UNL     1      49.719   5.564  18.882  0.00  0.00    +0.000 C 
BRANCH   7  15
ATOM      8  C   UNL     1      51.605   1.781  17.473  0.00  0.00    +0.000 A 
ATOM      9  C   UNL     1      52.511   0.741  17.595  0.00  0.00    +0.000 A 
ATOM     10  C   UNL     1      53.623   1.222  18.322  0.00  0.00    +0.000 A 
ATOM     11  C   UNL     1      53.382   2.549  18.587  0.00  0.00    +0.000 A 
ATOM     12  N   UNL     1      52.132   2.901  18.096  0.00  0.00    +0.000 N 
ATOM     13  C   UNL     1      51.619   4.209  18.154  0.00  0.00    +0.000 C 
ATOM     14  O   UNL     1      52.359   5.151  17.909  0.00  0.00    +0.000 OA
ATOM     15  N   UNL     1      50.328   4.267  18.616  0.00  0.00    +0.000 N 
ATOM     16  H   UNL     1      49.906   3.467  19.069  0.00  0.00    +0.000 HD
BRANCH   8  18
ATOM     17  N   UNL     1      49.415   1.744  16.108  0.00  0.00    +0.000 NA
ATOM     18  C   UNL     1      50.395   1.750  16.720  0.00  0.00    +0.000 C 
ENDBRANCH   8  18
ENDBRANCH   7  15
ENDBRANCH   1   7
BRANCH   4  19
ATOM     19  C   UNL     1      47.969   8.283  14.062  0.00  0.00    +0.000 C 
BRANCH  19  20
ATOM     20  N   UNL     1      46.724   7.744  13.573  0.00  0.00    +0.000 N 
ATOM     21  C   UNL     1      46.683   7.032  12.396  0.00  0.00    +0.000 C 
ATOM     22  O   UNL     1      47.662   6.912  11.666  0.00  0.00    +0.000 OA
ATOM     23  H   UNL     1      45.946   7.668  14.224  0.00  0.00    +0.000 HD
BRANCH  21  24
ATOM     24  C   UNL     1      45.395   6.428  12.056  0.00  0.00    +0.000 A 
ATOM     25  C   UNL     1      44.369   7.106  11.401  0.00  0.00    +0.000 A 
ATOM     26  N   UNL     1      43.337   6.233  11.159  0.00  0.00    +0.000 N 
ATOM     27  C   UNL     1      43.702   4.990  11.583  0.00  0.00    +0.000 A 
ATOM     28  N   UNL     1      42.969   3.876  11.360  0.00  0.00    +0.000 NA
ATOM     29  C   UNL     1      43.530   2.804  11.831  0.00  0.00    +0.000 A 
ATOM     30  N   UNL     1      44.717   2.771  12.534  0.00  0.00    +0.000 N 
ATOM     31  C   UNL     1      45.474   3.896  12.795  0.00  0.00    +0.000 A 
ATOM     32  O   UNL     1      46.497   3.866  13.468  0.00  0.00    +0.000 OA
ATOM     33  C   UNL     1      44.921   5.096  12.218  0.00  0.00    +0.000 A 
ATOM     34  H   UNL     1      42.465   6.447  10.691  0.00  0.00    +0.000 HD
ATOM     35  H   UNL     1      45.065   1.904  12.914  0.00  0.00    +0.000 HD
ENDBRANCH  21  24
ENDBRANCH  19  20
ENDBRANCH   4  19
TORSDOF 6
ENDMDL
MODEL 2
REMARK VINA RESULT:    -7.410      3.360      4.900
REMARK INTER + INTRA:         -11.002
REMARK INTER:                  -9.950
REMARK INTRA:                  -1.052
REMARK UNBOUND:                -0.993
REMARK  Name = 
REMARK  6 active torsions:
REMARK  status: ('A' for Active; 'I' for Inactive)
REMARK    1  A    between atoms: C_2  and  C_3
REMARK    2  A    between atoms: N_10  and  C_11
REMARK    3  A    between atoms: C_11  and  C_12
REMARK    4  A    between atoms: C_15  and  C_16
REMARK    5  A    between atoms: C_16  and  N_17
REMARK    6  A    between atoms: C_18  and  C_20
REMARK                            x       y       z     vdW  Elec       q    Type
REMARK                         _______ _______ _______ _____ _____    ______ ____
ROOT
ATOM      1  C   UNL     1      47.723   7.607  14.316  0.00  0.00    +0.000 A 
ATOM      2  C   UNL     1      47.650   6.256  13.976  0.00  0.00    +0.000 A 
ATOM      3  C   UNL     1      46.852   5.859  12.898  0.00  0.00    +0.000 A 
ATOM      4  C   UNL     1      46.145   6.815  12.167  0.00  0.00    +0.000 A 
ATOM      5  C   UNL     1      46.264   8.135  12.585  0.00  0.00    +0.000 A 
ATOM      6  N   UNL     1      47.038   8.552  13.622  0.00  0.00    +0.000 NA
ENDROOT
BRANCH   1   7
ATOM      7  C   UNL     1      48.553   8.064  15.505  0.00  0.00    +0.000 C 
BRANCH   7  15
ATOM      8  C   UNL     1      48.551   4.882  18.625  0.00  0.00    +0.000 A 
ATOM      9  C   UNL     1      48.855   4.400  19.886  0.00  0.00    +0.000 A 
ATOM     10  C   UNL     1      50.007   5.080  20.341  0.00  0.00    +0.000 A 
ATOM     11  C   UNL     1      50.395   5.926  19.330  0.00  0.00    +0.000 A 
ATOM     12  N   UNL     1      49.493   5.838  18.279  0.00  0.00    +0.000 N 
ATOM     13  C   UNL     1      49.647   6.535  17.067  0.00  0.00    +0.000 C 
ATOM     14  O   UNL     1      50.757   6.609  16.559  0.00  0.00    +0.000 OA
ATOM     15  N   UNL     1      48.503   7.172  16.656  0.00  0.00    +0.000 N 
ATOM     16  H   UNL     1      47.725   7.294  17.291  0.00  0.00    +0.000 HD
BRANCH   8  18
ATOM     17  N   UNL     1      46.704   3.975  17.067  0.00  0.00    +0.000 NA
ATOM     18  C   UNL     1      47.525   4.389  17.767  0.00  0.00    +0.000 C 
ENDBRANCH   8  18
ENDBRANCH   7  15
ENDBRANCH   1   7
BRANCH   4  19
ATOM     19  C   UNL     1      45.298   6.442  10.982  0.00  0.00    +0.000 C 
BRANCH  19  20
ATOM     20  N   UNL     1      45.658   5.165  10.415  0.00  0.00    +0.000 N 
ATOM     21  C   UNL     1      44.707   4.373   9.815  0.00  0.00    +0.000 C 
ATOM     22  O   UNL     1      43.513   4.658   9.822  0.00  0.00    +0.000 OA
ATOM     23  H   UNL     1      46.642   4.982  10.233  0.00  0.00    +0.000 HD
BRANCH  21  24
ATOM     24  C   UNL     1      45.200   3.157   9.167  0.00  0.00    +0.000 A 
ATOM     25  C   UNL     1      44.716   1.881   9.441  0.00  0.00    +0.000 A 
ATOM     26  N   UNL     1      45.328   0.979   8.607  0.00  0.00    +0.000 N 
ATOM     27  C   UNL     1      46.148   1.655   7.753  0.00  0.00    +0.000 A 
ATOM     28  N   UNL     1      46.787   1.076   6.710  0.00  0.00    +0.000 NA
ATOM     29  C   UNL     1      47.489   1.922   6.020  0.00  0.00    +0.000 A 
ATOM     30  N   UNL     1      47.634   3.262   6.316  0.00  0.00    +0.000 N 
ATOM     31  C   UNL     1      47.012   3.874   7.385  0.00  0.00    +0.000 A 
ATOM     32  O   UNL     1      47.190   5.051   7.673  0.00  0.00    +0.000 OA
ATOM     33  C   UNL     1      46.159   2.980   8.130  0.00  0.00    +0.000 A 
ATOM     34  H   UNL     1      45.166  -0.020   8.576  0.00  0.00    +0.000 HD
ATOM     35  H   UNL     1      48.239   3.849   5.760  0.00  0.00    +0.000 HD
ENDBRANCH  21  24
ENDBRANCH  19  20
ENDBRANCH   4  19
TORSDOF 6
ENDMDL
MODEL 3
REMARK VINA RESULT:    -7.259      3.723      6.607
REMARK INTER + INTRA:         -10.798
REMARK INTER:                  -9.888
REMARK INTRA:                  -0.910
REMARK UNBOUND:                -0.993
REMARK  Name = 
REMARK  6 active torsions:
REMARK  status: ('A' for Active; 'I' for Inactive)
REMARK    1  A    between atoms: C_2  and  C_3
REMARK    2  A    between atoms: N_10  and  C_11
REMARK    3  A    between atoms: C_11  and  C_12
REMARK    4  A    between atoms: C_15  and  C_16
REMARK    5  A    between atoms: C_16  and  N_17
REMARK    6  A    between atoms: C_18  and  C_20
REMARK                            x       y       z     vdW  Elec       q    Type
REMARK                         _______ _______ _______ _____ _____    ______ ____
ROOT
ATOM      1  C   UNL     1      45.761   7.034  12.867  0.00  0.00    +0.000 A 
ATOM      2  C   UNL     1      46.445   5.846  13.126  0.00  0.00    +0.000 A 
ATOM      3  C   UNL     1      45.845   4.623  12.811  0.00  0.00    +0.000 A 
ATOM      4  C   UNL     1      44.575   4.599  12.231  0.00  0.00    +0.000 A 
ATOM      5  C   UNL     1      43.961   5.830  12.022  0.00  0.00    +0.000 A 
ATOM      6  N   UNL     1      44.522   7.034  12.310  0.00  0.00    +0.000 NA
ENDROOT
BRANCH   1   7
ATOM      7  C   UNL     1      46.372   8.378  13.233  0.00  0.00    +0.000 C 
BRANCH   7  15
ATOM      8  C   UNL     1      49.438   7.919  16.435  0.00  0.00    +0.000 A 
ATOM      9  C   UNL     1      50.225   8.414  17.460  0.00  0.00    +0.000 A 
ATOM     10  C   UNL     1      50.453   9.785  17.204  0.00  0.00    +0.000 A 
ATOM     11  C   UNL     1      49.834  10.076  16.012  0.00  0.00    +0.000 A 
ATOM     12  N   UNL     1      49.181   8.946  15.540  0.00  0.00    +0.000 N 
ATOM     13  C   UNL     1      48.504   8.903  14.308  0.00  0.00    +0.000 C 
ATOM     14  O   UNL     1      49.009   9.436  13.332  0.00  0.00    +0.000 OA
ATOM     15  N   UNL     1      47.253   8.345  14.393  0.00  0.00    +0.000 N 
ATOM     16  H   UNL     1      46.812   8.203  15.293  0.00  0.00    +0.000 HD
BRANCH   8  18
ATOM     17  N   UNL     1      48.752   5.451  16.120  0.00  0.00    +0.000 NA
ATOM     18  C   UNL     1      49.064   6.555  16.252  0.00  0.00    +0.000 C 
ENDBRANCH   8  18
ENDBRANCH   7  15
ENDBRANCH   1   7
BRANCH   4  19
ATOM     19  C   UNL     1      43.901   3.313  11.846  0.00  0.00    +0.000 C 
BRANCH  19  20
ATOM     20  N   UNL     1      44.665   2.541  10.896  0.00  0.00    +0.000 N 
ATOM     21  C   UNL     1      44.663   2.873   9.562  0.00  0.00    +0.000 C 
ATOM     22  O   UNL     1      43.945   3.758   9.105  0.00  0.00    +0.000 OA
ATOM     23  H   UNL     1      45.396   1.930  11.253  0.00  0.00    +0.000 HD
BRANCH  21  24
ATOM     24  C   UNL     1      45.566   2.102   8.707  0.00  0.00    +0.000 A 
ATOM     25  C   UNL     1      45.630   0.711   8.702  0.00  0.00    +0.000 A 
ATOM     26  N   UNL     1      46.512   0.305   7.731  0.00  0.00    +0.000 N 
ATOM     27  C   UNL     1      46.968   1.402   7.064  0.00  0.00    +0.000 A 
ATOM     28  N   UNL     1      47.740   1.339   5.955  0.00  0.00    +0.000 NA
ATOM     29  C   UNL     1      48.027   2.510   5.476  0.00  0.00    +0.000 A 
ATOM     30  N   UNL     1      47.650   3.713   6.037  0.00  0.00    +0.000 N 
ATOM     31  C   UNL     1      46.881   3.807   7.180  0.00  0.00    +0.000 A 
ATOM     32  O   UNL     1      46.597   4.878   7.703  0.00  0.00    +0.000 OA
ATOM     33  C   UNL     1      46.476   2.523   7.696  0.00  0.00    +0.000 A 
ATOM     34  H   UNL     1      46.752  -0.650   7.497  0.00  0.00    +0.000 HD
ATOM     35  H   UNL     1      47.955   4.587   5.635  0.00  0.00    +0.000 HD
ENDBRANCH  21  24
ENDBRANCH  19  20
ENDBRANCH   4  19
TORSDOF 6
ENDMDL
MODEL 4
REMARK VINA RESULT:    -7.185      1.248      2.046
REMARK INTER + INTRA:         -10.698
REMARK INTER:                  -9.607
REMARK INTRA:                  -1.091
REMARK UNBOUND:                -0.993
REMARK  Name = 
REMARK  6 active torsions:
REMARK  status: ('A' for Active; 'I' for Inactive)
REMARK    1  A    between atoms: C_2  and  C_3
REMARK    2  A    between atoms: N_10  and  C_11
REMARK    3  A    between atoms: C_11  and  C_12
REMARK    4  A    between atoms: C_15  and  C_16
REMARK    5  A    between atoms: C_16  and  N_17
REMARK    6  A    between atoms: C_18  and  C_20
REMARK                            x       y       z     vdW  Elec       q    Type
REMARK                         _______ _______ _______ _____ _____    ______ ____
ROOT
ATOM      1  C   UNL     1      50.483   6.301  17.760  0.00  0.00    +0.000 A 
ATOM      2  C   UNL     1      49.113   6.515  17.914  0.00  0.00    +0.000 A 
ATOM      3  C   UNL     1      48.389   7.112  16.877  0.00  0.00    +0.000 A 
ATOM      4  C   UNL     1      49.037   7.478  15.696  0.00  0.00    +0.000 A 
ATOM      5  C   UNL     1      50.406   7.241  15.635  0.00  0.00    +0.000 A 
ATOM      6  N   UNL     1      51.135   6.656  16.622  0.00  0.00    +0.000 NA
ENDROOT
BRANCH   1   7
ATOM      7  C   UNL     1      51.304   5.689  18.884  0.00  0.00    +0.000 C 
BRANCH   7  15
ATOM      8  C   UNL     1      52.291   1.505  17.710  0.00  0.00    +0.000 A 
ATOM      9  C   UNL     1      52.989   0.320  17.862  0.00  0.00    +0.000 A 
ATOM     10  C   UNL     1      54.236   0.627  18.451  0.00  0.00    +0.000 A 
ATOM     11  C   UNL     1      54.279   1.992  18.602  0.00  0.00    +0.000 A 
ATOM     12  N   UNL     1      53.079   2.544  18.178  0.00  0.00    +0.000 N 
ATOM     13  C   UNL     1      52.833   3.929  18.148  0.00  0.00    +0.000 C 
ATOM     14  O   UNL     1      53.712   4.682  17.755  0.00  0.00    +0.000 OA
ATOM     15  N   UNL     1      51.626   4.279  18.699  0.00  0.00    +0.000 N 
ATOM     16  H   UNL     1      51.104   3.618  19.259  0.00  0.00    +0.000 HD
BRANCH   8  18
ATOM     17  N   UNL     1      50.005   1.761  16.539  0.00  0.00    +0.000 NA
ATOM     18  C   UNL     1      51.032   1.655  17.058  0.00  0.00    +0.000 C 
ENDBRANCH   8  18
ENDBRANCH   7  15
ENDBRANCH   1   7
BRANCH   4  19
ATOM     19  C   UNL     1      48.297   8.094  14.542  0.00  0.00    +0.000 C 
BRANCH  19  20
ATOM     20  N   UNL     1      47.231   7.257  14.048  0.00  0.00    +0.000 N 
ATOM     21  C   UNL     1      47.509   6.153  13.276  0.00  0.00    +0.000 C 
ATOM     22  O   UNL     1      48.643   5.889  12.889  0.00  0.00    +0.000 OA
ATOM     23  H   UNL     1      46.317   7.337  14.486  0.00  0.00    +0.000 HD
BRANCH  21  24
ATOM     24  C   UNL     1      46.366   5.308  12.931  0.00  0.00    +0.000 A 
ATOM     25  C   UNL     1      46.269   3.959  13.264  0.00  0.00    +0.000 A 
ATOM     26  N   UNL     1      45.042   3.485  12.870  0.00  0.00    +0.000 N 
ATOM     27  C   UNL     1      44.318   4.516  12.350  0.00  0.00    +0.000 A 
ATOM     28  N   UNL     1      43.015   4.417  12.002  0.00  0.00    +0.000 NA
ATOM     29  C   UNL     1      42.528   5.535  11.557  0.00  0.00    +0.000 A 
ATOM     30  N   UNL     1      43.243   6.704  11.392  0.00  0.00    +0.000 N 
ATOM     31  C   UNL     1      44.579   6.827  11.719  0.00  0.00    +0.000 A 
ATOM     32  O   UNL     1      45.220   7.851  11.517  0.00  0.00    +0.000 OA
ATOM     33  C   UNL     1      45.134   5.625  12.291  0.00  0.00    +0.000 A 
ATOM     34  H   UNL     1      44.693   2.543  12.992  0.00  0.00    +0.000 HD
ATOM     35  H   UNL     1      42.808   7.521  10.992  0.00  0.00    +0.000 HD
ENDBRANCH  21  24
ENDBRANCH  19  20
ENDBRANCH   4  19
TORSDOF 6
ENDMDL
MODEL 5
REMARK VINA RESULT:    -7.112      1.472      2.184
REMARK INTER + INTRA:         -10.599
REMARK INTER:                  -9.664
REMARK INTRA:                  -0.935
REMARK UNBOUND:                -0.993
REMARK  Name = 
REMARK  6 active torsions:
REMARK  status: ('A' for Active; 'I' for Inactive)
REMARK    1  A    between atoms: C_2  and  C_3
REMARK    2  A    between atoms: N_10  and  C_11
REMARK    3  A    between atoms: C_11  and  C_12
REMARK    4  A    between atoms: C_15  and  C_16
REMARK    5  A    between atoms: C_16  and  N_17
REMARK    6  A    between atoms: C_18  and  C_20
REMARK                            x       y       z     vdW  Elec       q    Type
REMARK                         _______ _______ _______ _____ _____    ______ ____
ROOT
ATOM      1  C   UNL     1      50.163   7.141  15.856  0.00  0.00    +0.000 A 
ATOM      2  C   UNL     1      50.676   8.145  15.035  0.00  0.00    +0.000 A 
ATOM      3  C   UNL     1      50.102   8.369  13.780  0.00  0.00    +0.000 A 
ATOM      4  C   UNL     1      49.016   7.597  13.363  0.00  0.00    +0.000 A 
ATOM      5  C   UNL     1      48.579   6.609  14.240  0.00  0.00    +0.000 A 
ATOM      6  N   UNL     1      49.112   6.374  15.469  0.00  0.00    +0.000 NA
ENDROOT
BRANCH   1   7
ATOM      7  C   UNL     1      50.790   6.850  17.211  0.00  0.00    +0.000 C 
BRANCH   7  15
ATOM      8  C   UNL     1      52.638   2.909  18.164  0.00  0.00    +0.000 A 
ATOM      9  C   UNL     1      52.796   1.548  17.968  0.00  0.00    +0.000 A 
ATOM     10  C   UNL     1      51.581   1.043  17.455  0.00  0.00    +0.000 A 
ATOM     11  C   UNL     1      50.706   2.101  17.390  0.00  0.00    +0.000 A 
ATOM     12  N   UNL     1      51.350   3.261  17.796  0.00  0.00    +0.000 N 
ATOM     13  C   UNL     1      50.705   4.507  17.902  0.00  0.00    +0.000 C 
ATOM     14  O   UNL     1      49.580   4.557  18.378  0.00  0.00    +0.000 OA
ATOM     15  N   UNL     1      51.406   5.534  17.321  0.00  0.00    +0.000 N 
ATOM     16  H   UNL     1      52.180   5.342  16.699  0.00  0.00    +0.000 HD
BRANCH   8  18
ATOM     17  N   UNL     1      54.367   4.474  19.269  0.00  0.00    +0.000 NA
ATOM     18  C   UNL     1      53.590   3.781  18.768  0.00  0.00    +0.000 C 
ENDBRANCH   8  18
ENDBRANCH   7  15
ENDBRANCH   1   7
BRANCH   4  19
ATOM     19  C   UNL     1      48.345   7.819  12.037  0.00  0.00    +0.000 C 
BRANCH  19  20
ATOM     20  N   UNL     1      47.164   7.009  11.864  0.00  0.00    +0.000 N 
ATOM     21  C   UNL     1      45.926   7.490  12.223  0.00  0.00    +0.000 C 
ATOM     22  O   UNL     1      45.779   8.567  12.793  0.00  0.00    +0.000 OA
ATOM     23  H   UNL     1      47.221   6.205  11.243  0.00  0.00    +0.000 HD
BRANCH  21  24
ATOM     24  C   UNL     1      44.785   6.636  11.893  0.00  0.00    +0.000 A 
ATOM     25  C   UNL     1      43.662   7.076  11.196  0.00  0.00    +0.000 A 
ATOM     26  N   UNL     1      42.821   6.012  10.980  0.00  0.00    +0.000 N 
ATOM     27  C   UNL     1      43.410   4.881  11.463  0.00  0.00    +0.000 A 
ATOM     28  N   UNL     1      42.909   3.638  11.279  0.00  0.00    +0.000 NA
ATOM     29  C   UNL     1      43.655   2.714  11.803  0.00  0.00    +0.000 A 
ATOM     30  N   UNL     1      44.811   2.939  12.523  0.00  0.00    +0.000 N 
ATOM     31  C   UNL     1      45.332   4.198  12.744  0.00  0.00    +0.000 A 
ATOM     32  O   UNL     1      46.328   4.393  13.431  0.00  0.00    +0.000 OA
ATOM     33  C   UNL     1      44.572   5.245  12.108  0.00  0.00    +0.000 A 
ATOM     34  H   UNL     1      41.935   6.035  10.491  0.00  0.00    +0.000 HD
ATOM     35  H   UNL     1      45.311   2.171  12.945  0.00  0.00    +0.000 HD
ENDBRANCH  21  24
ENDBRANCH  19  20
ENDBRANCH   4  19
TORSDOF 6
ENDMDL
MODEL 6
REMARK VINA RESULT:    -6.811      1.782      8.436
REMARK INTER + INTRA:         -10.192
REMARK INTER:                  -9.103
REMARK INTRA:                  -1.089
REMARK UNBOUND:                -0.993
REMARK  Name = 
REMARK  6 active torsions:
REMARK  status: ('A' for Active; 'I' for Inactive)
REMARK    1  A    between atoms: C_2  and  C_3
REMARK    2  A    between atoms: N_10  and  C_11
REMARK    3  A    between atoms: C_11  and  C_12
REMARK    4  A    between atoms: C_15  and  C_16
REMARK    5  A    between atoms: C_16  and  N_17
REMARK    6  A    between atoms: C_18  and  C_20
REMARK                            x       y       z     vdW  Elec       q    Type
REMARK                         _______ _______ _______ _____ _____    ______ ____
ROOT
ATOM      1  C   UNL     1      48.696   7.628  13.901  0.00  0.00    +0.000 A 
ATOM      2  C   UNL     1      49.400   8.755  14.325  0.00  0.00    +0.000 A 
ATOM      3  C   UNL     1      49.967   8.772  15.603  0.00  0.00    +0.000 A 
ATOM      4  C   UNL     1      49.834   7.661  16.439  0.00  0.00    +0.000 A 
ATOM      5  C   UNL     1      49.103   6.588  15.939  0.00  0.00    +0.000 A 
ATOM      6  N   UNL     1      48.548   6.540  14.699  0.00  0.00    +0.000 NA
ENDROOT
BRANCH   1   7
ATOM      7  C   UNL     1      48.036   7.596  12.530  0.00  0.00    +0.000 C 
BRANCH   7  15
ATOM      8  C   UNL     1      45.413   3.998  12.364  0.00  0.00    +0.000 A 
ATOM      9  C   UNL     1      44.439   3.216  11.768  0.00  0.00    +0.000 A 
ATOM     10  C   UNL     1      43.598   4.070  11.020  0.00  0.00    +0.000 A 
ATOM     11  C   UNL     1      44.059   5.351  11.214  0.00  0.00    +0.000 A 
ATOM     12  N   UNL     1      45.192   5.321  12.015  0.00  0.00    +0.000 N 
ATOM     13  C   UNL     1      45.864   6.478  12.447  0.00  0.00    +0.000 C 
ATOM     14  O   UNL     1      45.211   7.443  12.818  0.00  0.00    +0.000 OA
ATOM     15  N   UNL     1      47.225   6.413  12.278  0.00  0.00    +0.000 N 
ATOM     16  H   UNL     1      47.637   5.696  11.696  0.00  0.00    +0.000 HD
BRANCH   8  18
ATOM     17  N   UNL     1      47.198   3.160  14.030  0.00  0.00    +0.000 NA
ATOM     18  C   UNL     1      46.398   3.544  13.289  0.00  0.00    +0.000 C 
ENDBRANCH   8  18
ENDBRANCH   7  15
ENDBRANCH   1   7
BRANCH   4  19
ATOM     19  C   UNL     1      50.451   7.618  17.808  0.00  0.00    +0.000 C 
BRANCH  19  20
ATOM     20  N   UNL     1      51.407   6.549  17.960  0.00  0.00    +0.000 N 
ATOM     21  C   UNL     1      51.095   5.430  18.696  0.00  0.00    +0.000 C 
ATOM     22  O   UNL     1      50.051   5.332  19.335  0.00  0.00    +0.000 OA
ATOM     23  H   UNL     1      52.192   6.512  17.313  0.00  0.00    +0.000 HD
BRANCH  21  24
ATOM     24  C   UNL     1      52.088   4.356  18.684  0.00  0.00    +0.000 A 
ATOM     25  C   UNL     1      53.322   4.432  19.326  0.00  0.00    +0.000 A 
ATOM     26  N   UNL     1      53.974   3.231  19.191  0.00  0.00    +0.000 N 
ATOM     27  C   UNL     1      53.159   2.359  18.533  0.00  0.00    +0.000 A 
ATOM     28  N   UNL     1      53.444   1.047  18.366  0.00  0.00    +0.000 NA
ATOM     29  C   UNL     1      52.507   0.408  17.734  0.00  0.00    +0.000 A 
ATOM     30  N   UNL     1      51.358   0.978  17.227  0.00  0.00    +0.000 N 
ATOM     31  C   UNL     1      51.052   2.317  17.365  0.00  0.00    +0.000 A 
ATOM     32  O   UNL     1      50.057   2.827  16.864  0.00  0.00    +0.000 OA
ATOM     33  C   UNL     1      52.033   3.045  18.131  0.00  0.00    +0.000 A 
ATOM     34  H   UNL     1      54.885   2.996  19.564  0.00  0.00    +0.000 HD
ATOM     35  H   UNL     1      50.698   0.425  16.701  0.00  0.00    +0.000 HD
ENDBRANCH  21  24
ENDBRANCH  19  20
ENDBRANCH   4  19
TORSDOF 6
ENDMDL
MODEL 7
REMARK VINA RESULT:    -6.797      3.479     10.013
REMARK INTER + INTRA:         -10.174
REMARK INTER:                  -9.386
REMARK INTRA:                  -0.788
REMARK UNBOUND:                -0.993
REMARK  Name = 
REMARK  6 active torsions:
REMARK  status: ('A' for Active; 'I' for Inactive)
REMARK    1  A    between atoms: C_2  and  C_3
REMARK    2  A    between atoms: N_10  and  C_11
REMARK    3  A    between atoms: C_11  and  C_12
REMARK    4  A    between atoms: C_15  and  C_16
REMARK    5  A    between atoms: C_16  and  N_17
REMARK    6  A    between atoms: C_18  and  C_20
REMARK                            x       y       z     vdW  Elec       q    Type
REMARK                         _______ _______ _______ _____ _____    ______ ____
ROOT
ATOM      1  C   UNL     1      48.590   3.555  16.893  0.00  0.00    +0.000 A 
ATOM      2  C   UNL     1      49.279   4.553  17.583  0.00  0.00    +0.000 A 
ATOM      3  C   UNL     1      50.579   4.306  18.035  0.00  0.00    +0.000 A 
ATOM      4  C   UNL     1      51.181   3.071  17.784  0.00  0.00    +0.000 A 
ATOM      5  C   UNL     1      50.415   2.131  17.103  0.00  0.00    +0.000 A 
ATOM      6  N   UNL     1      49.153   2.345  16.644  0.00  0.00    +0.000 NA
ENDROOT
BRANCH   1   7
ATOM      7  C   UNL     1      47.162   3.782  16.422  0.00  0.00    +0.000 C 
BRANCH   7  15
ATOM      8  C   UNL     1      47.313   6.298  12.747  0.00  0.00    +0.000 A 
ATOM      9  C   UNL     1      46.730   6.893  11.643  0.00  0.00    +0.000 A 
ATOM     10  C   UNL     1      45.630   6.096  11.255  0.00  0.00    +0.000 A 
ATOM     11  C   UNL     1      45.599   5.018  12.107  0.00  0.00    +0.000 A 
ATOM     12  N   UNL     1      46.611   5.142  13.048  0.00  0.00    +0.000 N 
ATOM     13  C   UNL     1      46.882   4.166  14.024  0.00  0.00    +0.000 C 
ATOM     14  O   UNL     1      46.852   2.985  13.710  0.00  0.00    +0.000 OA
ATOM     15  N   UNL     1      47.036   4.685  15.285  0.00  0.00    +0.000 N 
ATOM     16  H   UNL     1      46.753   5.634  15.490  0.00  0.00    +0.000 HD
BRANCH   8  18
ATOM     17  N   UNL     1      49.489   7.049  13.914  0.00  0.00    +0.000 NA
ATOM     18  C   UNL     1      48.515   6.722  13.388  0.00  0.00    +0.000 C 
ENDBRANCH   8  18
ENDBRANCH   7  15
ENDBRANCH   1   7
BRANCH   4  19
ATOM     19  C   UNL     1      52.586   2.768  18.222  0.00  0.00    +0.000 C 
BRANCH  19  20
ATOM     20  N   UNL     1      53.159   1.641  17.527  0.00  0.00    +0.000 N 
ATOM     21  C   UNL     1      54.003   0.772  18.179  0.00  0.00    +0.000 C 
ATOM     22  O   UNL     1      54.385   0.964  19.329  0.00  0.00    +0.000 OA
ATOM     23  H   UNL     1      52.734   1.353  16.649  0.00  0.00    +0.000 HD
BRANCH  21  24
ATOM     24  C   UNL     1      54.430  -0.401  17.416  0.00  0.00    +0.000 A 
ATOM     25  C   UNL     1      54.922  -0.343  16.114  0.00  0.00    +0.000 A 
ATOM     26  N   UNL     1      55.309  -1.602  15.723  0.00  0.00    +0.000 N 
ATOM     27  C   UNL     1      55.139  -2.459  16.770  0.00  0.00    +0.000 A 
ATOM     28  N   UNL     1      55.561  -3.744  16.762  0.00  0.00    +0.000 NA
ATOM     29  C   UNL     1      55.316  -4.359  17.878  0.00  0.00    +0.000 A 
ATOM     30  N   UNL     1      54.654  -3.812  18.959  0.00  0.00    +0.000 N 
ATOM     31  C   UNL     1      54.195  -2.510  18.985  0.00  0.00    +0.000 A 
ATOM     32  O   UNL     1      53.559  -2.050  19.926  0.00  0.00    +0.000 OA
ATOM     33  C   UNL     1      54.519  -1.772  17.790  0.00  0.00    +0.000 A 
ATOM     34  H   UNL     1      55.711  -1.858  14.831  0.00  0.00    +0.000 HD
ATOM     35  H   UNL     1      54.455  -4.369  19.776  0.00  0.00    +0.000 HD
ENDBRANCH  21  24
ENDBRANCH  19  20
ENDBRANCH   4  19
TORSDOF 6
ENDMDL
MODEL 8
REMARK VINA RESULT:    -6.770      3.688      8.815
REMARK INTER + INTRA:         -10.138
REMARK INTER:                  -9.280
REMARK INTRA:                  -0.858
REMARK UNBOUND:                -0.993
REMARK  Name = 
REMARK  6 active torsions:
REMARK  status: ('A' for Active; 'I' for Inactive)
REMARK    1  A    between atoms: C_2  and  C_3
REMARK    2  A    between atoms: N_10  and  C_11
REMARK    3  A    between atoms: C_11  and  C_12
REMARK    4  A    between atoms: C_15  and  C_16
REMARK    5  A    between atoms: C_16  and  N_17
REMARK    6  A    between atoms: C_18  and  C_20
REMARK                            x       y       z     vdW  Elec       q    Type
REMARK                         _______ _______ _______ _____ _____    ______ ____
ROOT
ATOM      1  C   UNL     1      45.504   4.365  11.319  0.00  0.00    +0.000 A 
ATOM      2  C   UNL     1      45.479   5.644  10.762  0.00  0.00    +0.000 A 
ATOM      3  C   UNL     1      45.934   6.731  11.515  0.00  0.00    +0.000 A 
ATOM      4  C   UNL     1      46.417   6.529  12.809  0.00  0.00    +0.000 A 
ATOM      5  C   UNL     1      46.391   5.224  13.289  0.00  0.00    +0.000 A 
ATOM      6  N   UNL     1      45.963   4.146  12.579  0.00  0.00    +0.000 NA
ENDROOT
BRANCH   1   7
ATOM      7  C   UNL     1      44.981   3.168  10.539  0.00  0.00    +0.000 C 
BRANCH   7  15
ATOM      8  C   UNL     1      46.953   1.708   6.820  0.00  0.00    +0.000 A 
ATOM      9  C   UNL     1      47.719   1.895   5.682  0.00  0.00    +0.000 A 
ATOM     10  C   UNL     1      47.558   3.237   5.271  0.00  0.00    +0.000 A 
ATOM     11  C   UNL     1      46.670   3.818   6.144  0.00  0.00    +0.000 A 
ATOM     12  N   UNL     1      46.310   2.899   7.119  0.00  0.00    +0.000 N 
ATOM     13  C   UNL     1      45.364   3.169   8.125  0.00  0.00    +0.000 C 
ATOM     14  O   UNL     1      44.343   3.775   7.835  0.00  0.00    +0.000 OA
ATOM     15  N   UNL     1      45.785   2.805   9.380  0.00  0.00    +0.000 N 
ATOM     16  H   UNL     1      46.756   2.583   9.553  0.00  0.00    +0.000 HD
BRANCH   8  18
ATOM     17  N   UNL     1      46.572  -0.540   8.029  0.00  0.00    +0.000 NA
ATOM     18  C   UNL     1      46.750   0.469   7.495  0.00  0.00    +0.000 C 
ENDBRANCH   8  18
ENDBRANCH   7  15
ENDBRANCH   1   7
BRANCH   4  19
ATOM     19  C   UNL     1      46.945   7.660  13.646  0.00  0.00    +0.000 C 
BRANCH  19  20
ATOM     20  N   UNL     1      47.580   7.210  14.860  0.00  0.00    +0.000 N 
ATOM     21  C   UNL     1      48.919   6.894  14.874  0.00  0.00    +0.000 C 
ATOM     22  O   UNL     1      49.602   6.878  13.854  0.00  0.00    +0.000 OA
ATOM     23  H   UNL     1      47.103   7.380  15.742  0.00  0.00    +0.000 HD
BRANCH  21  24
ATOM     24  C   UNL     1      49.487   6.566  16.182  0.00  0.00    +0.000 A 
ATOM     25  C   UNL     1      50.611   7.190  16.718  0.00  0.00    +0.000 A 
ATOM     26  N   UNL     1      50.829   6.712  17.987  0.00  0.00    +0.000 N 
ATOM     27  C   UNL     1      49.829   5.843  18.307  0.00  0.00    +0.000 A 
ATOM     28  N   UNL     1      49.667   5.306  19.538  0.00  0.00    +0.000 NA
ATOM     29  C   UNL     1      48.630   4.529  19.614  0.00  0.00    +0.000 A 
ATOM     30  N   UNL     1      47.791   4.218  18.564  0.00  0.00    +0.000 N 
ATOM     31  C   UNL     1      47.946   4.733  17.293  0.00  0.00    +0.000 A 
ATOM     32  O   UNL     1      47.230   4.409  16.352  0.00  0.00    +0.000 OA
ATOM     33  C   UNL     1      49.042   5.664  17.190  0.00  0.00    +0.000 A 
ATOM     34  H   UNL     1      51.569   6.992  18.617  0.00  0.00    +0.000 HD
ATOM     35  H   UNL     1      47.033   3.564  18.688  0.00  0.00    +0.000 HD
ENDBRANCH  21  24
ENDBRANCH  19  20
ENDBRANCH   4  19
TORSDOF 6
ENDMDL
MODEL 9
REMARK VINA RESULT:    -6.636      5.675      9.062
REMARK INTER + INTRA:          -9.957
REMARK INTER:                  -9.040
REMARK INTRA:                  -0.916
REMARK UNBOUND:                -0.993
REMARK  Name = 
REMARK  6 active torsions:
REMARK  status: ('A' for Active; 'I' for Inactive)
REMARK    1  A    between atoms: C_2  and  C_3
REMARK    2  A    between atoms: N_10  and  C_11
REMARK    3  A    between atoms: C_11  and  C_12
REMARK    4  A    between atoms: C_15  and  C_16
REMARK    5  A    between atoms: C_16  and  N_17
REMARK    6  A    between atoms: C_18  and  C_20
REMARK                            x       y       z     vdW  Elec       q    Type
REMARK                         _______ _______ _______ _____ _____    ______ ____
ROOT
ATOM      1  C   UNL     1      47.528   7.054  12.669  0.00  0.00    +0.000 A 
ATOM      2  C   UNL     1      47.526   8.361  12.179  0.00  0.00    +0.000 A 
ATOM      3  C   UNL     1      48.738   8.974  11.848  0.00  0.00    +0.000 A 
ATOM      4  C   UNL     1      49.936   8.274  11.999  0.00  0.00    +0.000 A 
ATOM      5  C   UNL     1      49.846   6.983  12.507  0.00  0.00    +0.000 A 
ATOM      6  N   UNL     1      48.682   6.357  12.829  0.00  0.00    +0.000 NA
ENDROOT
BRANCH   1   7
ATOM      7  C   UNL     1      46.229   6.374  13.072  0.00  0.00    +0.000 C 
BRANCH   7  15
ATOM      8  C   UNL     1      44.420   3.183  10.542  0.00  0.00    +0.000 A 
ATOM      9  C   UNL     1      44.365   2.409   9.396  0.00  0.00    +0.000 A 
ATOM     10  C   UNL     1      44.926   3.162   8.340  0.00  0.00    +0.000 A 
ATOM     11  C   UNL     1      45.268   4.387   8.863  0.00  0.00    +0.000 A 
ATOM     12  N   UNL     1      44.990   4.405  10.222  0.00  0.00    +0.000 N 
ATOM     13  C   UNL     1      45.170   5.541  11.033  0.00  0.00    +0.000 C 
ATOM     14  O   UNL     1      44.843   6.637  10.603  0.00  0.00    +0.000 OA
ATOM     15  N   UNL     1      45.828   5.272  12.207  0.00  0.00    +0.000 N 
ATOM     16  H   UNL     1      46.315   4.395  12.336  0.00  0.00    +0.000 HD
BRANCH   8  18
ATOM     17  N   UNL     1      43.401   2.550  12.827  0.00  0.00    +0.000 NA
ATOM     18  C   UNL     1      43.863   2.840  11.809  0.00  0.00    +0.000 C 
ENDBRANCH   8  18
ENDBRANCH   7  15
ENDBRANCH   1   7
BRANCH   4  19
ATOM     19  C   UNL     1      51.262   8.878  11.628  0.00  0.00    +0.000 C 
BRANCH  19  20
ATOM     20  N   UNL     1      52.192   7.910  11.101  0.00  0.00    +0.000 N 
ATOM     21  C   UNL     1      52.843   8.140   9.912  0.00  0.00    +0.000 C 
ATOM     22  O   UNL     1      52.594   9.111   9.203  0.00  0.00    +0.000 OA
ATOM     23  H   UNL     1      52.551   7.198  11.733  0.00  0.00    +0.000 HD
BRANCH  21  24
ATOM     24  C   UNL     1      53.853   7.152   9.531  0.00  0.00    +0.000 A 
ATOM     25  C   UNL     1      55.031   6.934  10.240  0.00  0.00    +0.000 A 
ATOM     26  N   UNL     1      55.713   5.887   9.669  0.00  0.00    +0.000 N 
ATOM     27  C   UNL     1      54.966   5.382   8.647  0.00  0.00    +0.000 A 
ATOM     28  N   UNL     1      55.285   4.254   7.972  0.00  0.00    +0.000 NA
ATOM     29  C   UNL     1      54.412   3.951   7.060  0.00  0.00    +0.000 A 
ATOM     30  N   UNL     1      53.295   4.700   6.749  0.00  0.00    +0.000 N 
ATOM     31  C   UNL     1      52.957   5.865   7.407  0.00  0.00    +0.000 A 
ATOM     32  O   UNL     1      51.995   6.554   7.088  0.00  0.00    +0.000 OA
ATOM     33  C   UNL     1      53.864   6.191   8.481  0.00  0.00    +0.000 A 
ATOM     34  H   UNL     1      56.596   5.503   9.980  0.00  0.00    +0.000 HD
ATOM     35  H   UNL     1      52.688   4.427   5.991  0.00  0.00    +0.000 HD
ENDBRANCH  21  24
ENDBRANCH  19  20
ENDBRANCH   4  19
TORSDOF 6
ENDMDL
