MODEL 1
REMARK VINA RESULT:    -8.217      0.000      0.000
REMARK INTER + INTRA:         -12.175
REMARK INTER:                 -11.099
REMARK INTRA:                  -1.076
REMARK UNBOUND:                -1.076
REMARK  Name = 
REMARK  6 active torsions:
REMARK  status: ('A' for Active; 'I' for Inactive)
REMARK    1  A    between atoms: C_2  and  C_21
REMARK    2  A    between atoms: N_3  and  C_4
REMARK    3  A    between atoms: C_4  and  C_5
REMARK    4  A    between atoms: C_8  and  C_9
REMARK    5  A    between atoms: C_9  and  N_10
REMARK    6  A    between atoms: C_11  and  C_13
REMARK                            x       y       z     vdW  Elec       q    Type
REMARK                         _______ _______ _______ _____ _____    ______ ____
ROOT
ATOM      1  C   UNL     1      46.549   7.606  12.951  0.00  0.00    +0.000 A 
ATOM      2  C   UNL     1      46.793   6.258  12.652  0.00  0.00    +0.000 A 
ATOM      3  C   UNL     1      45.914   5.537  11.835  0.00  0.00    +0.000 A 
ATOM      4  C   UNL     1      44.784   6.153  11.282  0.00  0.00    +0.000 A 
ATOM      5  C   UNL     1      44.549   7.505  11.569  0.00  0.00    +0.000 A 
ATOM      6  C   UNL     1      45.429   8.226  12.385  0.00  0.00    +0.000 A 
ENDROOT
BRANCH   1   7
ATOM      7  C   UNL     1      47.483   8.373  13.852  0.00  0.00    +0.000 C 
BRANCH   7  10
ATOM      8  O   UNL     1      50.010   7.335  14.287  0.00  0.00    +0.000 OA
ATOM      9  C   UNL     1      49.168   7.190  15.169  0.00  0.00    +0.000 C 
ATOM     10  N   UNL     1      47.869   7.606  15.010  0.00  0.00    +0.000 N 
ATOM     11  H   UNL     1      47.263   7.665  15.822  0.00  0.00    +0.000 HD
BRANCH   9  12
ATOM     12  C   UNL     1      49.498   6.529  16.437  0.00  0.00    +0.000 A 
ATOM     13  C   UNL     1      50.452   7.085  17.280  0.00  0.00    +0.000 A 
ATOM     14  S   UNL     1      50.715   6.183  18.704  0.00  0.00    +0.000 S 
ATOM     15  C   UNL     1      49.526   5.047  18.268  0.00  0.00    +0.000 A 
ATOM     16  N   UNL     1      49.219   4.007  19.089  0.00  0.00    +0.000 NA
ATOM     17  C   UNL     1      48.273   3.244  18.651  0.00  0.00    +0.000 A 
ATOM     18  N   UNL     1      47.613   3.421  17.463  0.00  0.00    +0.000 N 
ATOM     19  C   UNL     1      47.918   4.433  16.585  0.00  0.00    +0.000 A 
ATOM     20  O   UNL     1      47.349   4.529  15.502  0.00  0.00    +0.000 OA
ATOM     21  C   UNL     1      48.958   5.334  17.039  0.00  0.00    +0.000 A 
ATOM     22  H   UNL     1      46.889   2.781  17.171  0.00  0.00    +0.000 HD
ENDBRANCH   9  12
ENDBRANCH   7  10
ENDBRANCH   1   7
BRANCH   4  23
ATOM     23  C   UNL     1      43.847   5.390  10.384  0.00  0.00    +0.000 C 
BRANCH  23  24
ATOM     24  N   UNL     1      44.523   4.737   9.291  0.00  0.00    +0.000 N 
ATOM     25  C   UNL     1      44.574   3.362   9.218  0.00  0.00    +0.000 C 
ATOM     26  O   UNL     1      44.128   2.631  10.101  0.00  0.00    +0.000 OA
ATOM     27  H   UNL     1      44.848   5.259   8.483  0.00  0.00    +0.000 HD
BRANCH  25  28
ATOM     28  C   UNL     1      45.281   2.795   7.973  0.00  0.00    +0.000 C 
ATOM     29  C   UNL     1      46.160   1.603   8.365  0.00  0.00    +0.000 C 
ATOM     30  C   UNL     1      46.877   1.031   7.147  0.00  0.00    +0.000 C 
ATOM     31  C   UNL     1      47.628   2.127   6.398  0.00  0.00    +0.000 C 
ATOM     32  C   UNL     1      46.723   3.323   6.100  0.00  0.00    +0.000 C 
ATOM     33  N   UNL     1      46.100   3.849   7.320  0.00  0.00    +0.000 NA
ATOM     34  H   UNL     1      45.477   4.614   7.058  0.00  0.00    +0.000 HD
ENDBRANCH  25  28
ENDBRANCH  23  24
ENDBRANCH   4  23
TORSDOF 6
ENDMDL
MODEL 2
REMARK VINA RESULT:    -7.999      2.105      3.661
REMARK INTER + INTRA:         -11.881
REMARK INTER:                 -10.904
REMARK INTRA:                  -0.977
REMARK UNBOUND:                -1.076
REMARK  Name = 
REMARK  6 active torsions:
REMARK  status: ('A' for Active; 'I' for Inactive)
REMARK    1  A    between atoms: C_2  and  C_21
REMARK    2  A    between atoms: N_3  and  C_4
REMARK    3  A    between atoms: C_4  and  C_5
REMARK    4  A    between atoms: C_8  and  C_9
REMARK    5  A    between atoms: C_9  and  N_10
REMARK    6  A    between atoms: C_11  and  C_13
REMARK                            x       y       z     vdW  Elec       q    Type
REMARK                         _______ _______ _______ _____ _____    ______ ____
ROOT
ATOM      1  C   UNL     1      46.235   4.599  13.763  0.00  0.00    +0.000 A 
ATOM      2  C   UNL     1      46.004   3.394  13.083  0.00  0.00    +0.000 A 
ATOM      3  C   UNL     1      45.152   3.353  11.973  0.00  0.00    +0.000 A 
ATOM      4  C   UNL     1      44.530   4.518  11.505  0.00  0.00    +0.000 A 
ATOM      5  C   UNL     1      44.774   5.724  12.176  0.00  0.00    +0.000 A 
ATOM      6  C   UNL     1      45.626   5.766  13.286  0.00  0.00    +0.000 A 
ENDROOT
BRANCH   1   7
ATOM      7  C   UNL     1      47.131   4.636  14.974  0.00  0.00    +0.000 C 
BRANCH   7  10
ATOM      8  O   UNL     1      49.309   5.106  16.616  0.00  0.00    +0.000 OA
ATOM      9  C   UNL     1      48.912   6.026  15.907  0.00  0.00    +0.000 C 
ATOM     10  N   UNL     1      47.794   5.909  15.118  0.00  0.00    +0.000 N 
ATOM     11  H   UNL     1      47.620   6.600  14.396  0.00  0.00    +0.000 HD
BRANCH   9  12
ATOM     12  C   UNL     1      49.596   7.325  15.892  0.00  0.00    +0.000 A 
ATOM     13  C   UNL     1      49.954   7.933  17.088  0.00  0.00    +0.000 A 
ATOM     14  S   UNL     1      50.734   9.436  16.885  0.00  0.00    +0.000 S 
ATOM     15  C   UNL     1      50.666   9.303  15.190  0.00  0.00    +0.000 A 
ATOM     16  N   UNL     1      51.203  10.264  14.392  0.00  0.00    +0.000 NA
ATOM     17  C   UNL     1      51.114  10.017  13.127  0.00  0.00    +0.000 A 
ATOM     18  N   UNL     1      50.528   8.901  12.588  0.00  0.00    +0.000 N 
ATOM     19  C   UNL     1      49.937   7.926  13.355  0.00  0.00    +0.000 A 
ATOM     20  O   UNL     1      49.369   6.968  12.840  0.00  0.00    +0.000 OA
ATOM     21  C   UNL     1      50.031   8.143  14.785  0.00  0.00    +0.000 A 
ATOM     22  H   UNL     1      50.480   8.772  11.588  0.00  0.00    +0.000 HD
ENDBRANCH   9  12
ENDBRANCH   7  10
ENDBRANCH   1   7
BRANCH   4  23
ATOM     23  C   UNL     1      43.632   4.485  10.297  0.00  0.00    +0.000 C 
BRANCH  23  24
ATOM     24  N   UNL     1      44.180   3.714   9.210  0.00  0.00    +0.000 N 
ATOM     25  C   UNL     1      45.253   4.185   8.486  0.00  0.00    +0.000 C 
ATOM     26  O   UNL     1      45.742   5.299   8.668  0.00  0.00    +0.000 OA
ATOM     27  H   UNL     1      43.890   2.755   9.044  0.00  0.00    +0.000 HD
BRANCH  25  28
ATOM     28  C   UNL     1      45.772   3.239   7.387  0.00  0.00    +0.000 C 
ATOM     29  C   UNL     1      46.472   2.033   8.019  0.00  0.00    +0.000 C 
ATOM     30  C   UNL     1      47.001   1.086   6.946  0.00  0.00    +0.000 C 
ATOM     31  C   UNL     1      47.865   1.839   5.940  0.00  0.00    +0.000 C 
ATOM     32  C   UNL     1      47.147   3.076   5.399  0.00  0.00    +0.000 C 
ATOM     33  N   UNL     1      46.703   3.962   6.481  0.00  0.00    +0.000 NA
ATOM     34  H   UNL     1      46.195   4.744   6.068  0.00  0.00    +0.000 HD
ENDBRANCH  25  28
ENDBRANCH  23  24
ENDBRANCH   4  23
TORSDOF 6
ENDMDL
MODEL 3
REMARK VINA RESULT:    -7.174      1.684      2.287
REMARK INTER + INTRA:         -10.767
REMARK INTER:                 -10.078
REMARK INTRA:                  -0.690
REMARK UNBOUND:                -1.076
REMARK  Name = 
REMARK  6 active torsions:
REMARK  status: ('A' for Active; 'I' for Inactive)
REMARK    1  A    between atoms: C_2  and  C_21
REMARK    2  A    between atoms: N_3  and  C_4
REMARK    3  A    between atoms: C_4  and  C_5
REMARK    4  A    between atoms: C_8  and  C_9
REMARK    5  A    between atoms: C_9  and  N_10
REMARK    6  A    between atoms: C_11  and  C_13
REMARK                            x       y       z     vdW  Elec       q    Type
REMARK                         _______ _______ _______ _____ _____    ______ ____
ROOT
ATOM      1  C   UNL     1      46.503   6.700  13.116  0.00  0.00    +0.000 A 
ATOM      2  C   UNL     1      45.764   5.559  13.458  0.00  0.00    +0.000 A 
ATOM      3  C   UNL     1      44.868   4.988  12.546  0.00  0.00    +0.000 A 
ATOM      4  C   UNL     1      44.710   5.532  11.264  0.00  0.00    +0.000 A 
ATOM      5  C   UNL     1      45.461   6.664  10.918  0.00  0.00    +0.000 A 
ATOM      6  C   UNL     1      46.356   7.235  11.831  0.00  0.00    +0.000 A 
ENDROOT
BRANCH   1   7
ATOM      7  C   UNL     1      47.446   7.329  14.109  0.00  0.00    +0.000 C 
BRANCH   7  10
ATOM      8  O   UNL     1      49.224   7.907  16.150  0.00  0.00    +0.000 OA
ATOM      9  C   UNL     1      48.903   6.734  15.980  0.00  0.00    +0.000 C 
ATOM     10  N   UNL     1      48.086   6.345  14.946  0.00  0.00    +0.000 N 
ATOM     11  H   UNL     1      47.674   5.417  14.960  0.00  0.00    +0.000 HD
BRANCH   9  12
ATOM     12  C   UNL     1      49.407   5.671  16.858  0.00  0.00    +0.000 A 
ATOM     13  C   UNL     1      48.516   4.800  17.472  0.00  0.00    +0.000 A 
ATOM     14  S   UNL     1      49.272   3.633  18.460  0.00  0.00    +0.000 S 
ATOM     15  C   UNL     1      50.819   4.219  18.060  0.00  0.00    +0.000 A 
ATOM     16  N   UNL     1      51.939   3.626  18.553  0.00  0.00    +0.000 NA
ATOM     17  C   UNL     1      53.045   4.149  18.139  0.00  0.00    +0.000 A 
ATOM     18  N   UNL     1      53.132   5.216  17.283  0.00  0.00    +0.000 N 
ATOM     19  C   UNL     1      52.027   5.870  16.793  0.00  0.00    +0.000 A 
ATOM     20  O   UNL     1      52.139   6.860  16.076  0.00  0.00    +0.000 OA
ATOM     21  C   UNL     1      50.758   5.308  17.209  0.00  0.00    +0.000 A 
ATOM     22  H   UNL     1      54.029   5.587  17.005  0.00  0.00    +0.000 HD
ENDBRANCH   9  12
ENDBRANCH   7  10
ENDBRANCH   1   7
BRANCH   4  23
ATOM     23  C   UNL     1      43.767   4.909  10.270  0.00  0.00    +0.000 C 
BRANCH  23  24
ATOM     24  N   UNL     1      44.441   4.375   9.113  0.00  0.00    +0.000 N 
ATOM     25  C   UNL     1      44.795   3.045   9.059  0.00  0.00    +0.000 C 
ATOM     26  O   UNL     1      44.633   2.273  10.003  0.00  0.00    +0.000 OA
ATOM     27  H   UNL     1      44.542   4.920   8.262  0.00  0.00    +0.000 HD
BRANCH  25  28
ATOM     28  C   UNL     1      45.462   2.594   7.746  0.00  0.00    +0.000 C 
ATOM     29  C   UNL     1      46.509   1.515   8.032  0.00  0.00    +0.000 C 
ATOM     30  C   UNL     1      47.189   1.060   6.744  0.00  0.00    +0.000 C 
ATOM     31  C   UNL     1      47.736   2.255   5.971  0.00  0.00    +0.000 C 
ATOM     32  C   UNL     1      46.671   3.335   5.781  0.00  0.00    +0.000 C 
ATOM     33  N   UNL     1      46.089   3.755   7.061  0.00  0.00    +0.000 NA
ATOM     34  H   UNL     1      45.358   4.442   6.873  0.00  0.00    +0.000 HD
ENDBRANCH  25  28
ENDBRANCH  23  24
ENDBRANCH   4  23
TORSDOF 6
ENDMDL
MODEL 4
REMARK VINA RESULT:    -7.172      3.277      4.383
REMARK INTER + INTRA:         -10.764
REMARK INTER:                  -9.840
REMARK INTRA:                  -0.924
REMARK UNBOUND:                -1.076
REMARK  Name = 
REMARK  6 active torsions:
REMARK  status: ('A' for Active; 'I' for Inactive)
REMARK    1  A    between atoms: C_2  and  C_21
REMARK    2  A    between atoms: N_3  and  C_4
REMARK    3  A    between atoms: C_4  and  C_5
REMARK    4  A    between atoms: C_8  and  C_9
REMARK    5  A    between atoms: C_9  and  N_10
REMARK    6  A    between atoms: C_11  and  C_13
REMARK                            x       y       z     vdW  Elec       q    Type
REMARK                         _______ _______ _______ _____ _____    ______ ____
ROOT
ATOM      1  C   UNL     1      48.117   5.056  16.125  0.00  0.00    +0.000 A 
ATOM      2  C   UNL     1      47.161   4.405  15.332  0.00  0.00    +0.000 A 
ATOM      3  C   UNL     1      46.725   4.973  14.128  0.00  0.00    +0.000 A 
ATOM      4  C   UNL     1      47.252   6.192  13.682  0.00  0.00    +0.000 A 
ATOM      5  C   UNL     1      48.218   6.834  14.467  0.00  0.00    +0.000 A 
ATOM      6  C   UNL     1      48.654   6.266  15.671  0.00  0.00    +0.000 A 
ENDROOT
BRANCH   1   7
ATOM      7  C   UNL     1      48.565   4.457  17.433  0.00  0.00    +0.000 C 
BRANCH   7  10
ATOM      8  O   UNL     1      50.340   4.832  19.523  0.00  0.00    +0.000 OA
ATOM      9  C   UNL     1      50.743   4.246  18.521  0.00  0.00    +0.000 C 
ATOM     10  N   UNL     1      49.956   4.081  17.408  0.00  0.00    +0.000 N 
ATOM     11  H   UNL     1      50.240   3.418  16.693  0.00  0.00    +0.000 HD
BRANCH   9  12
ATOM     12  C   UNL     1      52.110   3.718  18.447  0.00  0.00    +0.000 A 
ATOM     13  C   UNL     1      53.173   4.476  18.922  0.00  0.00    +0.000 A 
ATOM     14  S   UNL     1      54.688   3.713  18.752  0.00  0.00    +0.000 S 
ATOM     15  C   UNL     1      53.972   2.321  18.086  0.00  0.00    +0.000 A 
ATOM     16  N   UNL     1      54.727   1.243  17.742  0.00  0.00    +0.000 NA
ATOM     17  C   UNL     1      54.051   0.243  17.284  0.00  0.00    +0.000 A 
ATOM     18  N   UNL     1      52.690   0.226  17.129  0.00  0.00    +0.000 N 
ATOM     19  C   UNL     1      51.893   1.305  17.425  0.00  0.00    +0.000 A 
ATOM     20  O   UNL     1      50.683   1.279  17.219  0.00  0.00    +0.000 OA
ATOM     21  C   UNL     1      52.600   2.448  17.967  0.00  0.00    +0.000 A 
ATOM     22  H   UNL     1      52.220  -0.585  16.753  0.00  0.00    +0.000 HD
ENDBRANCH   9  12
ENDBRANCH   7  10
ENDBRANCH   1   7
BRANCH   4  23
ATOM     23  C   UNL     1      46.805   6.796  12.376  0.00  0.00    +0.000 C 
BRANCH  23  24
ATOM     24  N   UNL     1      46.381   5.809  11.416  0.00  0.00    +0.000 N 
ATOM     25  C   UNL     1      45.072   5.762  10.988  0.00  0.00    +0.000 C 
ATOM     26  O   UNL     1      44.194   6.488  11.451  0.00  0.00    +0.000 OA
ATOM     27  H   UNL     1      47.053   5.225  10.926  0.00  0.00    +0.000 HD
BRANCH  25  28
ATOM     28  C   UNL     1      44.766   4.694   9.922  0.00  0.00    +0.000 C 
ATOM     29  C   UNL     1      44.906   3.294  10.526  0.00  0.00    +0.000 C 
ATOM     30  C   UNL     1      44.615   2.219   9.483  0.00  0.00    +0.000 C 
ATOM     31  C   UNL     1      45.461   2.436   8.233  0.00  0.00    +0.000 C 
ATOM     32  C   UNL     1      45.343   3.870   7.718  0.00  0.00    +0.000 C 
ATOM     33  N   UNL     1      45.678   4.849   8.758  0.00  0.00    +0.000 NA
ATOM     34  H   UNL     1      45.541   5.785   8.375  0.00  0.00    +0.000 HD
ENDBRANCH  25  28
ENDBRANCH  23  24
ENDBRANCH   4  23
TORSDOF 6
ENDMDL
MODEL 5
REMARK VINA RESULT:    -6.672      3.416      9.527
REMARK INTER + INTRA:         -10.088
REMARK INTER:                  -9.299
REMARK INTRA:                  -0.789
REMARK UNBOUND:                -1.076
REMARK  Name = 
REMARK  6 active torsions:
REMARK  status: ('A' for Active; 'I' for Inactive)
REMARK    1  A    between atoms: C_2  and  C_21
REMARK    2  A    between atoms: N_3  and  C_4
REMARK    3  A    between atoms: C_4  and  C_5
REMARK    4  A    between atoms: C_8  and  C_9
REMARK    5  A    between atoms: C_9  and  N_10
REMARK    6  A    between atoms: C_11  and  C_13
REMARK                            x       y       z     vdW  Elec       q    Type
REMARK                         _______ _______ _______ _____ _____    ______ ____
ROOT
ATOM      1  C   UNL     1      44.740   4.685  12.172  0.00  0.00    +0.000 A 
ATOM      2  C   UNL     1      44.094   5.919  12.009  0.00  0.00    +0.000 A 
ATOM      3  C   UNL     1      44.763   7.118  12.282  0.00  0.00    +0.000 A 
ATOM      4  C   UNL     1      46.100   7.110  12.701  0.00  0.00    +0.000 A 
ATOM      5  C   UNL     1      46.750   5.878  12.848  0.00  0.00    +0.000 A 
ATOM      6  C   UNL     1      46.081   4.679  12.576  0.00  0.00    +0.000 A 
ENDROOT
BRANCH   1   7
ATOM      7  C   UNL     1      44.010   3.395  11.905  0.00  0.00    +0.000 C 
BRANCH   7  10
ATOM      8  O   UNL     1      43.913   3.757   9.163  0.00  0.00    +0.000 OA
ATOM      9  C   UNL     1      44.643   2.873   9.603  0.00  0.00    +0.000 C 
ATOM     10  N   UNL     1      44.698   2.572  10.941  0.00  0.00    +0.000 N 
ATOM     11  H   UNL     1      45.456   1.994  11.290  0.00  0.00    +0.000 HD
BRANCH   9  12
ATOM     12  C   UNL     1      45.478   2.061   8.709  0.00  0.00    +0.000 A 
ATOM     13  C   UNL     1      45.384   0.675   8.744  0.00  0.00    +0.000 A 
ATOM     14  S   UNL     1      46.428  -0.109   7.646  0.00  0.00    +0.000 S 
ATOM     15  C   UNL     1      47.003   1.377   7.049  0.00  0.00    +0.000 A 
ATOM     16  N   UNL     1      47.916   1.420   6.042  0.00  0.00    +0.000 NA
ATOM     17  C   UNL     1      48.236   2.611   5.663  0.00  0.00    +0.000 A 
ATOM     18  N   UNL     1      47.734   3.766   6.205  0.00  0.00    +0.000 N 
ATOM     19  C   UNL     1      46.842   3.771   7.250  0.00  0.00    +0.000 A 
ATOM     20  O   UNL     1      46.457   4.821   7.753  0.00  0.00    +0.000 OA
ATOM     21  C   UNL     1      46.430   2.456   7.699  0.00  0.00    +0.000 A 
ATOM     22  H   UNL     1      48.035   4.670   5.872  0.00  0.00    +0.000 HD
ENDBRANCH   9  12
ENDBRANCH   7  10
ENDBRANCH   1   7
BRANCH   4  23
ATOM     23  C   UNL     1      46.833   8.397  12.972  0.00  0.00    +0.000 C 
BRANCH  23  24
ATOM     24  N   UNL     1      47.140   8.587  14.367  0.00  0.00    +0.000 N 
ATOM     25  C   UNL     1      48.414   8.366  14.843  0.00  0.00    +0.000 C 
ATOM     26  O   UNL     1      49.321   7.927  14.138  0.00  0.00    +0.000 OA
ATOM     27  H   UNL     1      46.474   9.021  15.000  0.00  0.00    +0.000 HD
BRANCH  25  28
ATOM     28  C   UNL     1      48.616   8.656  16.342  0.00  0.00    +0.000 C 
ATOM     29  C   UNL     1      48.690   7.343  17.126  0.00  0.00    +0.000 C 
ATOM     30  C   UNL     1      48.882   7.608  18.616  0.00  0.00    +0.000 C 
ATOM     31  C   UNL     1      47.821   8.573  19.134  0.00  0.00    +0.000 C 
ATOM     32  C   UNL     1      47.738   9.831  18.270  0.00  0.00    +0.000 C 
ATOM     33  N   UNL     1      47.511   9.505  16.857  0.00  0.00    +0.000 NA
ATOM     34  H   UNL     1      47.507  10.375  16.323  0.00  0.00    +0.000 HD
ENDBRANCH  25  28
ENDBRANCH  23  24
ENDBRANCH   4  23
TORSDOF 6
ENDMDL
MODEL 6
REMARK VINA RESULT:    -6.613      5.100      7.956
REMARK INTER + INTRA:         -10.009
REMARK INTER:                  -9.040
REMARK INTRA:                  -0.969
REMARK UNBOUND:                -1.076
REMARK  Name = 
REMARK  6 active torsions:
REMARK  status: ('A' for Active; 'I' for Inactive)
REMARK    1  A    between atoms: C_2  and  C_21
REMARK    2  A    between atoms: N_3  and  C_4
REMARK    3  A    between atoms: C_4  and  C_5
REMARK    4  A    between atoms: C_8  and  C_9
REMARK    5  A    between atoms: C_9  and  N_10
REMARK    6  A    between atoms: C_11  and  C_13
REMARK                            x       y       z     vdW  Elec       q    Type
REMARK                         _______ _______ _______ _____ _____    ______ ____
ROOT
ATOM      1  C   UNL     1      47.594   8.465  11.969  0.00  0.00    +0.000 A 
ATOM      2  C   UNL     1      48.506   7.399  11.953  0.00  0.00    +0.000 A 
ATOM      3  C   UNL     1      49.868   7.628  11.725  0.00  0.00    +0.000 A 
ATOM      4  C   UNL     1      50.351   8.928  11.529  0.00  0.00    +0.000 A 
ATOM      5  C   UNL     1      49.442   9.994  11.560  0.00  0.00    +0.000 A 
ATOM      6  C   UNL     1      48.080   9.766  11.788  0.00  0.00    +0.000 A 
ENDROOT
BRANCH   1   7
ATOM      7  C   UNL     1      46.124   8.214  12.188  0.00  0.00    +0.000 C 
BRANCH   7  10
ATOM      8  O   UNL     1      43.642   7.300  11.374  0.00  0.00    +0.000 OA
ATOM      9  C   UNL     1      44.538   6.475  11.529  0.00  0.00    +0.000 C 
ATOM     10  N   UNL     1      45.779   6.827  12.002  0.00  0.00    +0.000 N 
ATOM     11  H   UNL     1      46.548   6.170  11.917  0.00  0.00    +0.000 HD
BRANCH   9  12
ATOM     12  C   UNL     1      44.319   5.051  11.248  0.00  0.00    +0.000 A 
ATOM     13  C   UNL     1      43.519   4.294  12.095  0.00  0.00    +0.000 A 
ATOM     14  S   UNL     1      43.378   2.661  11.623  0.00  0.00    +0.000 S 
ATOM     15  C   UNL     1      44.337   2.922  10.242  0.00  0.00    +0.000 A 
ATOM     16  N   UNL     1      44.585   1.914   9.364  0.00  0.00    +0.000 NA
ATOM     17  C   UNL     1      45.295   2.260   8.342  0.00  0.00    +0.000 A 
ATOM     18  N   UNL     1      45.788   3.520   8.124  0.00  0.00    +0.000 N 
ATOM     19  C   UNL     1      45.596   4.557   9.005  0.00  0.00    +0.000 A 
ATOM     20  O   UNL     1      46.101   5.659   8.810  0.00  0.00    +0.000 OA
ATOM     21  C   UNL     1      44.784   4.228  10.159  0.00  0.00    +0.000 A 
ATOM     22  H   UNL     1      46.348   3.724   7.309  0.00  0.00    +0.000 HD
ENDBRANCH   9  12
ENDBRANCH   7  10
ENDBRANCH   1   7
BRANCH   4  23
ATOM     23  C   UNL     1      51.819   9.184  11.307  0.00  0.00    +0.000 C 
BRANCH  23  24
ATOM     24  N   UNL     1      52.413   8.268  10.366  0.00  0.00    +0.000 N 
ATOM     25  C   UNL     1      52.956   8.727   9.187  0.00  0.00    +0.000 C 
ATOM     26  O   UNL     1      52.895   9.906   8.839  0.00  0.00    +0.000 OA
ATOM     27  H   UNL     1      52.576   7.294  10.607  0.00  0.00    +0.000 HD
BRANCH  25  28
ATOM     28  C   UNL     1      53.604   7.650   8.297  0.00  0.00    +0.000 C 
ATOM     29  C   UNL     1      52.573   6.579   7.933  0.00  0.00    +0.000 C 
ATOM     30  C   UNL     1      53.197   5.496   7.058  0.00  0.00    +0.000 C 
ATOM     31  C   UNL     1      54.459   4.938   7.707  0.00  0.00    +0.000 C 
ATOM     32  C   UNL     1      55.419   6.054   8.120  0.00  0.00    +0.000 C 
ATOM     33  N   UNL     1      54.765   7.036   8.993  0.00  0.00    +0.000 NA
ATOM     34  H   UNL     1      55.435   7.777   9.201  0.00  0.00    +0.000 HD
ENDBRANCH  25  28
ENDBRANCH  23  24
ENDBRANCH   4  23
TORSDOF 6
ENDMDL
MODEL 7
REMARK VINA RESULT:    -6.543      3.473      8.544
REMARK INTER + INTRA:          -9.915
REMARK INTER:                  -9.108
REMARK INTRA:                  -0.807
REMARK UNBOUND:                -1.076
REMARK  Name = 
REMARK  6 active torsions:
REMARK  status: ('A' for Active; 'I' for Inactive)
REMARK    1  A    between atoms: C_2  and  C_21
REMARK    2  A    between atoms: N_3  and  C_4
REMARK    3  A    between atoms: C_4  and  C_5
REMARK    4  A    between atoms: C_8  and  C_9
REMARK    5  A    between atoms: C_9  and  N_10
REMARK    6  A    between atoms: C_11  and  C_13
REMARK                            x       y       z     vdW  Elec       q    Type
REMARK                         _______ _______ _______ _____ _____    ______ ____
ROOT
ATOM      1  C   UNL     1      48.508   8.013  13.660  0.00  0.00    +0.000 A 
ATOM      2  C   UNL     1      48.270   6.806  14.335  0.00  0.00    +0.000 A 
ATOM      3  C   UNL     1      48.834   6.570  15.594  0.00  0.00    +0.000 A 
ATOM      4  C   UNL     1      49.628   7.542  16.216  0.00  0.00    +0.000 A 
ATOM      5  C   UNL     1      49.853   8.753  15.548  0.00  0.00    +0.000 A 
ATOM      6  C   UNL     1      49.289   8.990  14.289  0.00  0.00    +0.000 A 
ENDROOT
BRANCH   1   7
ATOM      7  C   UNL     1      47.923   8.255  12.293  0.00  0.00    +0.000 C 
BRANCH   7  10
ATOM      8  O   UNL     1      45.210   7.887  11.887  0.00  0.00    +0.000 OA
ATOM      9  C   UNL     1      45.975   7.002  11.513  0.00  0.00    +0.000 C 
ATOM     10  N   UNL     1      47.328   7.064  11.740  0.00  0.00    +0.000 N 
ATOM     11  H   UNL     1      47.945   6.433  11.240  0.00  0.00    +0.000 HD
BRANCH   9  12
ATOM     12  C   UNL     1      45.475   5.803  10.829  0.00  0.00    +0.000 A 
ATOM     13  C   UNL     1      45.774   5.595   9.488  0.00  0.00    +0.000 A 
ATOM     14  S   UNL     1      45.109   4.158   8.854  0.00  0.00    +0.000 S 
ATOM     15  C   UNL     1      44.444   3.737  10.363  0.00  0.00    +0.000 A 
ATOM     16  N   UNL     1      43.760   2.573  10.524  0.00  0.00    +0.000 NA
ATOM     17  C   UNL     1      43.343   2.362  11.728  0.00  0.00    +0.000 A 
ATOM     18  N   UNL     1      43.539   3.215  12.783  0.00  0.00    +0.000 N 
ATOM     19  C   UNL     1      44.188   4.419  12.657  0.00  0.00    +0.000 A 
ATOM     20  O   UNL     1      44.296   5.187  13.608  0.00  0.00    +0.000 OA
ATOM     21  C   UNL     1      44.699   4.694  11.329  0.00  0.00    +0.000 A 
ATOM     22  H   UNL     1      43.176   2.998  13.700  0.00  0.00    +0.000 HD
ENDBRANCH   9  12
ENDBRANCH   7  10
ENDBRANCH   1   7
BRANCH   4  23
ATOM     23  C   UNL     1      50.217   7.303  17.581  0.00  0.00    +0.000 C 
BRANCH  23  24
ATOM     24  N   UNL     1      50.405   5.905  17.876  0.00  0.00    +0.000 N 
ATOM     25  C   UNL     1      51.554   5.253  17.485  0.00  0.00    +0.000 C 
ATOM     26  O   UNL     1      52.428   5.792  16.807  0.00  0.00    +0.000 OA
ATOM     27  H   UNL     1      49.774   5.406  18.496  0.00  0.00    +0.000 HD
BRANCH  25  28
ATOM     28  C   UNL     1      51.650   3.776  17.908  0.00  0.00    +0.000 C 
ATOM     29  C   UNL     1      53.111   3.316  17.886  0.00  0.00    +0.000 C 
ATOM     30  C   UNL     1      53.227   1.851  18.295  0.00  0.00    +0.000 C 
ATOM     31  C   UNL     1      52.297   0.981  17.456  0.00  0.00    +0.000 C 
ATOM     32  C   UNL     1      50.870   1.528  17.451  0.00  0.00    +0.000 C 
ATOM     33  N   UNL     1      50.827   2.926  17.008  0.00  0.00    +0.000 NA
ATOM     34  H   UNL     1      49.861   3.252  17.065  0.00  0.00    +0.000 HD
ENDBRANCH  25  28
ENDBRANCH  23  24
ENDBRANCH   4  23
TORSDOF 6
ENDMDL
MODEL 8
REMARK VINA RESULT:    -6.362      5.198      9.998
REMARK INTER + INTRA:          -9.670
REMARK INTER:                  -8.936
REMARK INTRA:                  -0.734
REMARK UNBOUND:                -1.076
REMARK  Name = 
REMARK  6 active torsions:
REMARK  status: ('A' for Active; 'I' for Inactive)
REMARK    1  A    between atoms: C_2  and  C_21
REMARK    2  A    between atoms: N_3  and  C_4
REMARK    3  A    between atoms: C_4  and  C_5
REMARK    4  A    between atoms: C_8  and  C_9
REMARK    5  A    between atoms: C_9  and  N_10
REMARK    6  A    between atoms: C_11  and  C_13
REMARK                            x       y       z     vdW  Elec       q    Type
REMARK                         _______ _______ _______ _____ _____    ______ ____
ROOT
ATOM      1  C   UNL     1      49.898   3.980  17.856  0.00  0.00    +0.000 A 
ATOM      2  C   UNL     1      49.532   2.722  17.358  0.00  0.00    +0.000 A 
ATOM      3  C   UNL     1      50.501   1.742  17.109  0.00  0.00    +0.000 A 
ATOM      4  C   UNL     1      51.854   1.992  17.374  0.00  0.00    +0.000 A 
ATOM      5  C   UNL     1      52.217   3.245  17.886  0.00  0.00    +0.000 A 
ATOM      6  C   UNL     1      51.248   4.224  18.135  0.00  0.00    +0.000 A 
ENDROOT
BRANCH   1   7
ATOM      7  C   UNL     1      48.857   5.042  18.097  0.00  0.00    +0.000 C 
BRANCH   7  10
ATOM      8  O   UNL     1      49.879   6.437  15.937  0.00  0.00    +0.000 OA
ATOM      9  C   UNL     1      48.736   5.998  15.851  0.00  0.00    +0.000 C 
ATOM     10  N   UNL     1      48.119   5.360  16.899  0.00  0.00    +0.000 N 
ATOM     11  H   UNL     1      47.271   4.830  16.729  0.00  0.00    +0.000 HD
BRANCH   9  12
ATOM     12  C   UNL     1      47.946   6.165  14.625  0.00  0.00    +0.000 A 
ATOM     13  C   UNL     1      47.927   7.392  13.975  0.00  0.00    +0.000 A 
ATOM     14  S   UNL     1      46.956   7.409  12.573  0.00  0.00    +0.000 S 
ATOM     15  C   UNL     1      46.569   5.762  12.757  0.00  0.00    +0.000 A 
ATOM     16  N   UNL     1      45.781   5.124  11.850  0.00  0.00    +0.000 NA
ATOM     17  C   UNL     1      45.600   3.869  12.091  0.00  0.00    +0.000 A 
ATOM     18  N   UNL     1      46.126   3.196  13.163  0.00  0.00    +0.000 N 
ATOM     19  C   UNL     1      46.892   3.809  14.125  0.00  0.00    +0.000 A 
ATOM     20  O   UNL     1      47.299   3.191  15.103  0.00  0.00    +0.000 OA
ATOM     21  C   UNL     1      47.147   5.215  13.888  0.00  0.00    +0.000 A 
ATOM     22  H   UNL     1      45.936   2.214  13.303  0.00  0.00    +0.000 HD
ENDBRANCH   9  12
ENDBRANCH   7  10
ENDBRANCH   1   7
BRANCH   4  23
ATOM     23  C   UNL     1      52.898   0.935  17.132  0.00  0.00    +0.000 C 
BRANCH  23  24
ATOM     24  N   UNL     1      52.952  -0.054  18.179  0.00  0.00    +0.000 N 
ATOM     25  C   UNL     1      54.031  -0.903  18.288  0.00  0.00    +0.000 C 
ATOM     26  O   UNL     1      54.950  -0.921  17.471  0.00  0.00    +0.000 OA
ATOM     27  H   UNL     1      52.278  -0.055  18.939  0.00  0.00    +0.000 HD
BRANCH  25  28
ATOM     28  C   UNL     1      53.985  -1.875  19.482  0.00  0.00    +0.000 C 
ATOM     29  C   UNL     1      54.967  -3.028  19.259  0.00  0.00    +0.000 C 
ATOM     30  C   UNL     1      54.932  -4.009  20.427  0.00  0.00    +0.000 C 
ATOM     31  C   UNL     1      53.503  -4.464  20.706  0.00  0.00    +0.000 C 
ATOM     32  C   UNL     1      52.552  -3.276  20.844  0.00  0.00    +0.000 C 
ATOM     33  N   UNL     1      52.607  -2.398  19.669  0.00  0.00    +0.000 NA
ATOM     34  H   UNL     1      51.988  -1.603  19.832  0.00  0.00    +0.000 HD
ENDBRANCH  25  28
ENDBRANCH  23  24
ENDBRANCH   4  23
TORSDOF 6
ENDMDL
MODEL 9
REMARK VINA RESULT:    -6.214      4.183      8.800
REMARK INTER + INTRA:          -9.469
REMARK INTER:                  -8.700
REMARK INTRA:                  -0.770
REMARK UNBOUND:                -1.076
REMARK  Name = 
REMARK  6 active torsions:
REMARK  status: ('A' for Active; 'I' for Inactive)
REMARK    1  A    between atoms: C_2  and  C_21
REMARK    2  A    between atoms: N_3  and  C_4
REMARK    3  A    between atoms: C_4  and  C_5
REMARK    4  A    between atoms: C_8  and  C_9
REMARK    5  A    between atoms: C_9  and  N_10
REMARK    6  A    between atoms: C_11  and  C_13
REMARK                            x       y       z     vdW  Elec       q    Type
REMARK                         _______ _______ _______ _____ _____    ______ ____
ROOT
ATOM      1  C   UNL     1      44.653   4.637  12.207  0.00  0.00    +0.000 A 
ATOM      2  C   UNL     1      44.160   5.914  11.904  0.00  0.00    +0.000 A 
ATOM      3  C   UNL     1      44.874   7.060  12.272  0.00  0.00    +0.000 A 
ATOM      4  C   UNL     1      46.107   6.954  12.930  0.00  0.00    +0.000 A 
ATOM      5  C   UNL     1      46.606   5.676  13.218  0.00  0.00    +0.000 A 
ATOM      6  C   UNL     1      45.892   4.530  12.850  0.00  0.00    +0.000 A 
ENDROOT
BRANCH   1   7
ATOM      7  C   UNL     1      43.869   3.404  11.834  0.00  0.00    +0.000 C 
BRANCH   7  10
ATOM      8  O   UNL     1      43.969   3.883   9.110  0.00  0.00    +0.000 OA
ATOM      9  C   UNL     1      44.621   2.942   9.555  0.00  0.00    +0.000 C 
ATOM     10  N   UNL     1      44.573   2.584  10.880  0.00  0.00    +0.000 N 
ATOM     11  H   UNL     1      45.274   1.949  11.249  0.00  0.00    +0.000 HD
BRANCH   9  12
ATOM     12  C   UNL     1      45.466   2.120   8.680  0.00  0.00    +0.000 A 
ATOM     13  C   UNL     1      45.350   0.736   8.706  0.00  0.00    +0.000 A 
ATOM     14  S   UNL     1      46.409  -0.060   7.632  0.00  0.00    +0.000 S 
ATOM     15  C   UNL     1      47.022   1.419   7.056  0.00  0.00    +0.000 A 
ATOM     16  N   UNL     1      47.962   1.451   6.073  0.00  0.00    +0.000 NA
ATOM     17  C   UNL     1      48.310   2.640   5.707  0.00  0.00    +0.000 A 
ATOM     18  N   UNL     1      47.812   3.799   6.242  0.00  0.00    +0.000 N 
ATOM     19  C   UNL     1      46.893   3.814   7.264  0.00  0.00    +0.000 A 
ATOM     20  O   UNL     1      46.511   4.869   7.761  0.00  0.00    +0.000 OA
ATOM     21  C   UNL     1      46.450   2.504   7.696  0.00  0.00    +0.000 A 
ATOM     22  H   UNL     1      48.135   4.700   5.920  0.00  0.00    +0.000 HD
ENDBRANCH   9  12
ENDBRANCH   7  10
ENDBRANCH   1   7
BRANCH   4  23
ATOM     23  C   UNL     1      46.892   8.183  13.307  0.00  0.00    +0.000 C 
BRANCH  23  24
ATOM     24  N   UNL     1      48.166   8.263  12.638  0.00  0.00    +0.000 N 
ATOM     25  C   UNL     1      49.118   9.170  13.048  0.00  0.00    +0.000 C 
ATOM     26  O   UNL     1      48.911   9.999  13.933  0.00  0.00    +0.000 OA
ATOM     27  H   UNL     1      48.448   7.568  11.954  0.00  0.00    +0.000 HD
BRANCH  25  28
ATOM     28  C   UNL     1      50.453   9.116  12.282  0.00  0.00    +0.000 C 
ATOM     29  C   UNL     1      50.432   7.966  11.270  0.00  0.00    +0.000 C 
ATOM     30  C   UNL     1      51.749   7.889  10.506  0.00  0.00    +0.000 C 
ATOM     31  C   UNL     1      52.930   7.836  11.469  0.00  0.00    +0.000 C 
ATOM     32  C   UNL     1      52.861   8.959  12.503  0.00  0.00    +0.000 C 
ATOM     33  N   UNL     1      51.586   8.949  13.230  0.00  0.00    +0.000 NA
ATOM     34  H   UNL     1      51.576   9.741  13.874  0.00  0.00    +0.000 HD
ENDBRANCH  25  28
ENDBRANCH  23  24
ENDBRANCH   4  23
TORSDOF 6
ENDMDL
