MODEL 1
REMARK VINA RESULT:    -7.897      0.000      0.000
REMARK INTER + INTRA:         -11.830
REMARK INTER:                 -10.667
REMARK INTRA:                  -1.163
REMARK UNBOUND:                -1.163
REMARK  Name = 
REMARK  7 active torsions:
REMARK  status: ('A' for Active; 'I' for Inactive)
REMARK    1  A    between atoms: C_1  and  C_2
REMARK    2  A    between atoms: C_2  and  N_3
REMARK    3  A    between atoms: C_2  and  C_16
REMARK    4  A    between atoms: C_4  and  C_6
REMARK    5  A    between atoms: C_19  and  O_20
REMARK    6  A    between atoms: O_20  and  C_21
REMARK    7  A    between atoms: C_21  and  C_22
REMARK                            x       y       z     vdW  Elec       q    Type
REMARK                         _______ _______ _______ _____ _____    ______ ____
ROOT
ATOM      1  C   UNL     1      48.250   8.440  12.687  0.00  0.00    +0.000 C 
ATOM      2  C   UNL     1      47.506   7.440  13.580  0.00  0.00    +0.000 C 
ENDROOT
BRANCH   2   3
ATOM      3  C   UNL     1      46.733   6.396  12.798  0.00  0.00    +0.000 A 
ATOM      4  C   UNL     1      46.174   6.707  11.548  0.00  0.00    +0.000 A 
ATOM      5  C   UNL     1      45.389   5.771  10.869  0.00  0.00    +0.000 A 
ATOM      6  C   UNL     1      45.149   4.516  11.432  0.00  0.00    +0.000 A 
ATOM      7  C   UNL     1      45.687   4.209  12.678  0.00  0.00    +0.000 A 
ATOM      8  C   UNL     1      46.475   5.135  13.350  0.00  0.00    +0.000 A 
BRANCH   6   9
ATOM      9  O   UNL     1      44.370   3.667  10.699  0.00  0.00    +0.000 OA
BRANCH   9  10
ATOM     10  C   UNL     1      44.242   4.019   9.317  0.00  0.00    +0.000 C 
BRANCH  10  11
ATOM     11  C   UNL     1      45.297   3.303   8.517  0.00  0.00    +0.000 A 
ATOM     12  C   UNL     1      45.501   1.939   8.713  0.00  0.00    +0.000 A 
ATOM     13  C   UNL     1      46.462   1.290   7.950  0.00  0.00    +0.000 A 
ATOM     14  C   UNL     1      47.182   2.015   7.010  0.00  0.00    +0.000 A 
ATOM     15  C   UNL     1      46.909   3.368   6.865  0.00  0.00    +0.000 A 
ATOM     16  N   UNL     1      45.978   4.024   7.590  0.00  0.00    +0.000 NA
ENDBRANCH  10  11
ENDBRANCH   9  10
ENDBRANCH   6   9
ENDBRANCH   2   3
BRANCH   2  17
ATOM     17  N   UNL     1      48.447   6.750  14.444  0.00  0.00    +0.000 N 
ATOM     18  C   UNL     1      48.794   7.245  15.677  0.00  0.00    +0.000 C 
ATOM     19  O   UNL     1      48.313   8.273  16.134  0.00  0.00    +0.000 OA
ATOM     20  H   UNL     1      48.956   5.970  14.055  0.00  0.00    +0.000 HD
BRANCH  18  21
ATOM     21  C   UNL     1      49.740   6.422  16.433  0.00  0.00    +0.000 A 
ATOM     22  C   UNL     1      51.031   6.812  16.762  0.00  0.00    +0.000 A 
ATOM     23  S   UNL     1      51.954   5.552  17.461  0.00  0.00    +0.000 S 
ATOM     24  C   UNL     1      50.655   4.456  17.341  0.00  0.00    +0.000 A 
ATOM     25  N   UNL     1      50.794   3.150  17.692  0.00  0.00    +0.000 NA
ATOM     26  C   UNL     1      49.728   2.441  17.516  0.00  0.00    +0.000 A 
ATOM     27  N   UNL     1      48.528   2.929  17.064  0.00  0.00    +0.000 N 
ATOM     28  C   UNL     1      48.307   4.266  16.823  0.00  0.00    +0.000 A 
ATOM     29  O   UNL     1      47.171   4.704  16.690  0.00  0.00    +0.000 OA
ATOM     30  C   UNL     1      49.514   5.069  16.861  0.00  0.00    +0.000 A 
ATOM     31  H   UNL     1      47.707   2.341  17.042  0.00  0.00    +0.000 HD
ENDBRANCH  18  21
ENDBRANCH   2  17
TORSDOF 6
ENDMDL
MODEL 2
REMARK VINA RESULT:    -7.558      2.294      4.287
REMARK INTER + INTRA:         -11.372
REMARK INTER:                 -10.211
REMARK INTRA:                  -1.161
REMARK UNBOUND:                -1.163
REMARK  Name = 
REMARK  7 active torsions:
REMARK  status: ('A' for Active; 'I' for Inactive)
REMARK    1  A    between atoms: C_1  and  C_2
REMARK    2  A    between atoms: C_2  and  N_3
REMARK    3  A    between atoms: C_2  and  C_16
REMARK    4  A    between atoms: C_4  and  C_6
REMARK    5  A    between atoms: C_19  and  O_20
REMARK    6  A    between atoms: O_20  and  C_21
REMARK    7  A    between atoms: C_21  and  C_22
REMARK                            x       y       z     vdW  Elec       q    Type
REMARK                         _______ _______ _______ _____ _____    ______ ____
ROOT
ATOM      1  C   UNL     1      46.983   4.237  16.065  0.00  0.00    +0.000 C 
ATOM      2  C   UNL     1      47.565   4.854  14.787  0.00  0.00    +0.000 C 
ENDROOT
BRANCH   2   3
ATOM      3  C   UNL     1      46.652   4.718  13.584  0.00  0.00    +0.000 A 
ATOM      4  C   UNL     1      46.082   3.477  13.256  0.00  0.00    +0.000 A 
ATOM      5  C   UNL     1      45.313   3.334  12.098  0.00  0.00    +0.000 A 
ATOM      6  C   UNL     1      45.105   4.428  11.255  0.00  0.00    +0.000 A 
ATOM      7  C   UNL     1      45.680   5.655  11.568  0.00  0.00    +0.000 A 
ATOM      8  C   UNL     1      46.438   5.800  12.722  0.00  0.00    +0.000 A 
BRANCH   6   9
ATOM      9  O   UNL     1      44.341   4.195  10.147  0.00  0.00    +0.000 OA
BRANCH   9  10
ATOM     10  C   UNL     1      44.296   2.826   9.729  0.00  0.00    +0.000 C 
BRANCH  10  11
ATOM     11  C   UNL     1      45.304   2.603   8.634  0.00  0.00    +0.000 A 
ATOM     12  C   UNL     1      45.602   3.640   7.752  0.00  0.00    +0.000 A 
ATOM     13  C   UNL     1      46.552   3.425   6.763  0.00  0.00    +0.000 A 
ATOM     14  C   UNL     1      47.182   2.190   6.688  0.00  0.00    +0.000 A 
ATOM     15  C   UNL     1      46.840   1.213   7.613  0.00  0.00    +0.000 A 
ATOM     16  N   UNL     1      45.923   1.396   8.587  0.00  0.00    +0.000 NA
ENDBRANCH  10  11
ENDBRANCH   9  10
ENDBRANCH   6   9
ENDBRANCH   2   3
BRANCH   2  17
ATOM     17  N   UNL     1      47.830   6.266  14.994  0.00  0.00    +0.000 N 
ATOM     18  C   UNL     1      48.971   6.705  15.621  0.00  0.00    +0.000 C 
ATOM     19  O   UNL     1      49.843   5.941  16.013  0.00  0.00    +0.000 OA
ATOM     20  H   UNL     1      47.084   6.917  14.798  0.00  0.00    +0.000 HD
BRANCH  18  21
ATOM     21  C   UNL     1      49.098   8.159  15.734  0.00  0.00    +0.000 A 
ATOM     22  C   UNL     1      49.100   8.854  16.935  0.00  0.00    +0.000 A 
ATOM     23  S   UNL     1      49.051  10.552  16.726  0.00  0.00    +0.000 S 
ATOM     24  C   UNL     1      49.024  10.400  15.030  0.00  0.00    +0.000 A 
ATOM     25  N   UNL     1      48.898  11.487  14.222  0.00  0.00    +0.000 NA
ATOM     26  C   UNL     1      48.864  11.204  12.961  0.00  0.00    +0.000 A 
ATOM     27  N   UNL     1      48.989   9.943  12.437  0.00  0.00    +0.000 N 
ATOM     28  C   UNL     1      49.250   8.834  13.209  0.00  0.00    +0.000 A 
ATOM     29  O   UNL     1      49.625   7.785  12.701  0.00  0.00    +0.000 OA
ATOM     30  C   UNL     1      49.143   9.082  14.634  0.00  0.00    +0.000 A 
ATOM     31  H   UNL     1      49.052   9.802  11.438  0.00  0.00    +0.000 HD
ENDBRANCH  18  21
ENDBRANCH   2  17
TORSDOF 6
ENDMDL
MODEL 3
REMARK VINA RESULT:    -7.420      2.687      3.403
REMARK INTER + INTRA:         -11.186
REMARK INTER:                  -9.937
REMARK INTRA:                  -1.249
REMARK UNBOUND:                -1.163
REMARK  Name = 
REMARK  7 active torsions:
REMARK  status: ('A' for Active; 'I' for Inactive)
REMARK    1  A    between atoms: C_1  and  C_2
REMARK    2  A    between atoms: C_2  and  N_3
REMARK    3  A    between atoms: C_2  and  C_16
REMARK    4  A    between atoms: C_4  and  C_6
REMARK    5  A    between atoms: C_19  and  O_20
REMARK    6  A    between atoms: O_20  and  C_21
REMARK    7  A    between atoms: C_21  and  C_22
REMARK                            x       y       z     vdW  Elec       q    Type
REMARK                         _______ _______ _______ _____ _____    ______ ____
ROOT
ATOM      1  C   UNL     1      47.373   3.639  16.087  0.00  0.00    +0.000 C 
ATOM      2  C   UNL     1      47.893   4.742  15.159  0.00  0.00    +0.000 C 
ENDROOT
BRANCH   2   3
ATOM      3  C   UNL     1      47.100   4.869  13.872  0.00  0.00    +0.000 A 
ATOM      4  C   UNL     1      47.238   6.003  13.056  0.00  0.00    +0.000 A 
ATOM      5  C   UNL     1      46.444   6.158  11.917  0.00  0.00    +0.000 A 
ATOM      6  C   UNL     1      45.500   5.185  11.582  0.00  0.00    +0.000 A 
ATOM      7  C   UNL     1      45.348   4.068  12.396  0.00  0.00    +0.000 A 
ATOM      8  C   UNL     1      46.143   3.908  13.524  0.00  0.00    +0.000 A 
BRANCH   6   9
ATOM      9  O   UNL     1      44.768   5.421  10.453  0.00  0.00    +0.000 OA
BRANCH   9  10
ATOM     10  C   UNL     1      44.130   4.264   9.902  0.00  0.00    +0.000 C 
BRANCH  10  11
ATOM     11  C   UNL     1      45.085   3.557   8.978  0.00  0.00    +0.000 A 
ATOM     12  C   UNL     1      45.255   2.179   9.088  0.00  0.00    +0.000 A 
ATOM     13  C   UNL     1      46.122   1.540   8.212  0.00  0.00    +0.000 A 
ATOM     14  C   UNL     1      46.784   2.289   7.249  0.00  0.00    +0.000 A 
ATOM     15  C   UNL     1      46.549   3.655   7.195  0.00  0.00    +0.000 A 
ATOM     16  N   UNL     1      45.709   4.303   8.031  0.00  0.00    +0.000 NA
ENDBRANCH  10  11
ENDBRANCH   9  10
ENDBRANCH   6   9
ENDBRANCH   2   3
BRANCH   2  17
ATOM     17  N   UNL     1      47.852   6.024  15.840  0.00  0.00    +0.000 N 
ATOM     18  C   UNL     1      48.997   6.661  16.252  0.00  0.00    +0.000 C 
ATOM     19  O   UNL     1      50.114   6.208  16.046  0.00  0.00    +0.000 OA
ATOM     20  H   UNL     1      46.952   6.369  16.137  0.00  0.00    +0.000 HD
BRANCH  18  21
ATOM     21  C   UNL     1      48.787   7.954  16.907  0.00  0.00    +0.000 A 
ATOM     22  C   UNL     1      49.147   9.177  16.359  0.00  0.00    +0.000 A 
ATOM     23  S   UNL     1      48.966  10.480  17.453  0.00  0.00    +0.000 S 
ATOM     24  C   UNL     1      48.406   9.445  18.684  0.00  0.00    +0.000 A 
ATOM     25  N   UNL     1      48.141   9.907  19.934  0.00  0.00    +0.000 NA
ATOM     26  C   UNL     1      47.752   8.994  20.763  0.00  0.00    +0.000 A 
ATOM     27  N   UNL     1      47.565   7.674  20.441  0.00  0.00    +0.000 N 
ATOM     28  C   UNL     1      47.695   7.190  19.160  0.00  0.00    +0.000 A 
ATOM     29  O   UNL     1      47.260   6.086  18.854  0.00  0.00    +0.000 OA
ATOM     30  C   UNL     1      48.274   8.144  18.235  0.00  0.00    +0.000 A 
ATOM     31  H   UNL     1      47.166   7.031  21.111  0.00  0.00    +0.000 HD
ENDBRANCH  18  21
ENDBRANCH   2  17
TORSDOF 6
ENDMDL
MODEL 4
REMARK VINA RESULT:    -7.267      1.888      2.379
REMARK INTER + INTRA:         -10.979
REMARK INTER:                  -9.984
REMARK INTRA:                  -0.995
REMARK UNBOUND:                -1.163
REMARK  Name = 
REMARK  7 active torsions:
REMARK  status: ('A' for Active; 'I' for Inactive)
REMARK    1  A    between atoms: C_1  and  C_2
REMARK    2  A    between atoms: C_2  and  N_3
REMARK    3  A    between atoms: C_2  and  C_16
REMARK    4  A    between atoms: C_4  and  C_6
REMARK    5  A    between atoms: C_19  and  O_20
REMARK    6  A    between atoms: O_20  and  C_21
REMARK    7  A    between atoms: C_21  and  C_22
REMARK                            x       y       z     vdW  Elec       q    Type
REMARK                         _______ _______ _______ _____ _____    ______ ____
ROOT
ATOM      1  C   UNL     1      49.458   7.292  13.085  0.00  0.00    +0.000 C 
ATOM      2  C   UNL     1      48.031   7.547  13.584  0.00  0.00    +0.000 C 
ENDROOT
BRANCH   2   3
ATOM      3  C   UNL     1      47.001   6.627  12.955  0.00  0.00    +0.000 A 
ATOM      4  C   UNL     1      46.870   5.298  13.390  0.00  0.00    +0.000 A 
ATOM      5  C   UNL     1      45.982   4.428  12.752  0.00  0.00    +0.000 A 
ATOM      6  C   UNL     1      45.218   4.874  11.671  0.00  0.00    +0.000 A 
ATOM      7  C   UNL     1      45.357   6.184  11.226  0.00  0.00    +0.000 A 
ATOM      8  C   UNL     1      46.233   7.053  11.866  0.00  0.00    +0.000 A 
BRANCH   6   9
ATOM      9  O   UNL     1      44.380   3.954  11.109  0.00  0.00    +0.000 OA
BRANCH   9  10
ATOM     10  C   UNL     1      44.075   4.188   9.729  0.00  0.00    +0.000 C 
BRANCH  10  11
ATOM     11  C   UNL     1      45.044   3.426   8.866  0.00  0.00    +0.000 A 
ATOM     12  C   UNL     1      45.815   4.110   7.928  0.00  0.00    +0.000 A 
ATOM     13  C   UNL     1      46.720   3.394   7.157  0.00  0.00    +0.000 A 
ATOM     14  C   UNL     1      46.838   2.025   7.349  0.00  0.00    +0.000 A 
ATOM     15  C   UNL     1      46.044   1.419   8.313  0.00  0.00    +0.000 A 
ATOM     16  N   UNL     1      45.158   2.090   9.079  0.00  0.00    +0.000 NA
ENDBRANCH  10  11
ENDBRANCH   9  10
ENDBRANCH   6   9
ENDBRANCH   2   3
BRANCH   2  17
ATOM     17  N   UNL     1      47.970   7.372  15.024  0.00  0.00    +0.000 N 
ATOM     18  C   UNL     1      48.628   8.217  15.884  0.00  0.00    +0.000 C 
ATOM     19  O   UNL     1      49.276   9.180  15.495  0.00  0.00    +0.000 OA
ATOM     20  H   UNL     1      47.551   6.525  15.377  0.00  0.00    +0.000 HD
BRANCH  18  21
ATOM     21  C   UNL     1      48.451   7.919  17.306  0.00  0.00    +0.000 A 
ATOM     22  C   UNL     1      47.916   8.803  18.232  0.00  0.00    +0.000 A 
ATOM     23  S   UNL     1      48.036   8.240  19.843  0.00  0.00    +0.000 S 
ATOM     24  C   UNL     1      48.806   6.805  19.345  0.00  0.00    +0.000 A 
ATOM     25  N   UNL     1      49.263   5.895  20.246  0.00  0.00    +0.000 NA
ATOM     26  C   UNL     1      49.849   4.873  19.713  0.00  0.00    +0.000 A 
ATOM     27  N   UNL     1      49.978   4.661  18.364  0.00  0.00    +0.000 N 
ATOM     28  C   UNL     1      49.415   5.488  17.419  0.00  0.00    +0.000 A 
ATOM     29  O   UNL     1      49.310   5.132  16.251  0.00  0.00    +0.000 OA
ATOM     30  C   UNL     1      48.884   6.719  17.968  0.00  0.00    +0.000 A 
ATOM     31  H   UNL     1      50.360   3.794  18.012  0.00  0.00    +0.000 HD
ENDBRANCH  18  21
ENDBRANCH   2  17
TORSDOF 6
ENDMDL
MODEL 5
REMARK VINA RESULT:    -7.153      4.087      4.912
REMARK INTER + INTRA:         -10.826
REMARK INTER:                  -9.699
REMARK INTRA:                  -1.126
REMARK UNBOUND:                -1.163
REMARK  Name = 
REMARK  7 active torsions:
REMARK  status: ('A' for Active; 'I' for Inactive)
REMARK    1  A    between atoms: C_1  and  C_2
REMARK    2  A    between atoms: C_2  and  N_3
REMARK    3  A    between atoms: C_2  and  C_16
REMARK    4  A    between atoms: C_4  and  C_6
REMARK    5  A    between atoms: C_19  and  O_20
REMARK    6  A    between atoms: O_20  and  C_21
REMARK    7  A    between atoms: C_21  and  C_22
REMARK                            x       y       z     vdW  Elec       q    Type
REMARK                         _______ _______ _______ _____ _____    ______ ____
ROOT
ATOM      1  C   UNL     1      43.307   9.107  10.904  0.00  0.00    +0.000 C 
ATOM      2  C   UNL     1      44.380   8.353  11.698  0.00  0.00    +0.000 C 
ENDROOT
BRANCH   2   3
ATOM      3  C   UNL     1      44.490   6.888  11.320  0.00  0.00    +0.000 A 
ATOM      4  C   UNL     1      43.351   6.067  11.303  0.00  0.00    +0.000 A 
ATOM      5  C   UNL     1      43.466   4.700  11.040  0.00  0.00    +0.000 A 
ATOM      6  C   UNL     1      44.720   4.136  10.793  0.00  0.00    +0.000 A 
ATOM      7  C   UNL     1      45.853   4.943  10.824  0.00  0.00    +0.000 A 
ATOM      8  C   UNL     1      45.739   6.304  11.077  0.00  0.00    +0.000 A 
BRANCH   6   9
ATOM      9  O   UNL     1      44.737   2.793  10.547  0.00  0.00    +0.000 OA
BRANCH   9  10
ATOM     10  C   UNL     1      44.256   2.417   9.252  0.00  0.00    +0.000 C 
BRANCH  10  11
ATOM     11  C   UNL     1      45.416   2.309   8.298  0.00  0.00    +0.000 A 
ATOM     12  C   UNL     1      45.743   3.394   7.488  0.00  0.00    +0.000 A 
ATOM     13  C   UNL     1      46.830   3.285   6.632  0.00  0.00    +0.000 A 
ATOM     14  C   UNL     1      47.562   2.106   6.615  0.00  0.00    +0.000 A 
ATOM     15  C   UNL     1      47.181   1.076   7.463  0.00  0.00    +0.000 A 
ATOM     16  N   UNL     1      46.131   1.155   8.309  0.00  0.00    +0.000 NA
ENDBRANCH  10  11
ENDBRANCH   9  10
ENDBRANCH   6   9
ENDBRANCH   2   3
BRANCH   2  17
ATOM     17  N   UNL     1      45.678   8.970  11.488  0.00  0.00    +0.000 N 
ATOM     18  C   UNL     1      46.548   9.196  12.526  0.00  0.00    +0.000 C 
ATOM     19  O   UNL     1      46.300   8.865  13.678  0.00  0.00    +0.000 OA
ATOM     20  H   UNL     1      45.867   9.367  10.580  0.00  0.00    +0.000 HD
BRANCH  18  21
ATOM     21  C   UNL     1      47.822   9.808  12.147  0.00  0.00    +0.000 A 
ATOM     22  C   UNL     1      47.986  11.152  11.840  0.00  0.00    +0.000 A 
ATOM     23  S   UNL     1      49.543  11.516  11.232  0.00  0.00    +0.000 S 
ATOM     24  C   UNL     1      50.036   9.890  11.361  0.00  0.00    +0.000 A 
ATOM     25  N   UNL     1      51.258   9.482  10.925  0.00  0.00    +0.000 NA
ATOM     26  C   UNL     1      51.471   8.215  11.066  0.00  0.00    +0.000 A 
ATOM     27  N   UNL     1      50.594   7.332  11.642  0.00  0.00    +0.000 N 
ATOM     28  C   UNL     1      49.405   7.724  12.214  0.00  0.00    +0.000 A 
ATOM     29  O   UNL     1      48.782   6.972  12.953  0.00  0.00    +0.000 OA
ATOM     30  C   UNL     1      49.059   9.106  11.943  0.00  0.00    +0.000 A 
ATOM     31  H   UNL     1      50.862   6.373  11.810  0.00  0.00    +0.000 HD
ENDBRANCH  18  21
ENDBRANCH   2  17
TORSDOF 6
ENDMDL
MODEL 6
REMARK VINA RESULT:    -6.503      2.045      2.671
REMARK INTER + INTRA:          -9.947
REMARK INTER:                  -8.854
REMARK INTRA:                  -1.093
REMARK UNBOUND:                -1.163
REMARK  Name = 
REMARK  7 active torsions:
REMARK  status: ('A' for Active; 'I' for Inactive)
REMARK    1  A    between atoms: C_1  and  C_2
REMARK    2  A    between atoms: C_2  and  N_3
REMARK    3  A    between atoms: C_2  and  C_16
REMARK    4  A    between atoms: C_4  and  C_6
REMARK    5  A    between atoms: C_19  and  O_20
REMARK    6  A    between atoms: O_20  and  C_21
REMARK    7  A    between atoms: C_21  and  C_22
REMARK                            x       y       z     vdW  Elec       q    Type
REMARK                         _______ _______ _______ _____ _____    ______ ____
ROOT
ATOM      1  C   UNL     1      49.680   7.652  13.233  0.00  0.00    +0.000 C 
ATOM      2  C   UNL     1      48.417   7.415  14.068  0.00  0.00    +0.000 C 
ENDROOT
BRANCH   2   3
ATOM      3  C   UNL     1      47.357   6.612  13.340  0.00  0.00    +0.000 A 
ATOM      4  C   UNL     1      46.423   7.250  12.508  0.00  0.00    +0.000 A 
ATOM      5  C   UNL     1      45.393   6.521  11.907  0.00  0.00    +0.000 A 
ATOM      6  C   UNL     1      45.283   5.147  12.132  0.00  0.00    +0.000 A 
ATOM      7  C   UNL     1      46.196   4.513  12.968  0.00  0.00    +0.000 A 
ATOM      8  C   UNL     1      47.225   5.235  13.559  0.00  0.00    +0.000 A 
BRANCH   6   9
ATOM      9  O   UNL     1      44.246   4.517  11.505  0.00  0.00    +0.000 OA
BRANCH   9  10
ATOM     10  C   UNL     1      44.067   4.883  10.133  0.00  0.00    +0.000 C 
BRANCH  10  11
ATOM     11  C   UNL     1      44.908   3.990   9.261  0.00  0.00    +0.000 A 
ATOM     12  C   UNL     1      44.868   2.610   9.450  0.00  0.00    +0.000 A 
ATOM     13  C   UNL     1      45.633   1.799   8.622  0.00  0.00    +0.000 A 
ATOM     14  C   UNL     1      46.404   2.385   7.627  0.00  0.00    +0.000 A 
ATOM     15  C   UNL     1      46.378   3.766   7.494  0.00  0.00    +0.000 A 
ATOM     16  N   UNL     1      45.642   4.578   8.283  0.00  0.00    +0.000 NA
ENDBRANCH  10  11
ENDBRANCH   9  10
ENDBRANCH   6   9
ENDBRANCH   2   3
BRANCH   2  17
ATOM     17  N   UNL     1      48.757   6.708  15.291  0.00  0.00    +0.000 N 
ATOM     18  C   UNL     1      48.724   7.326  16.517  0.00  0.00    +0.000 C 
ATOM     19  O   UNL     1      48.381   8.492  16.659  0.00  0.00    +0.000 OA
ATOM     20  H   UNL     1      49.162   5.788  15.203  0.00  0.00    +0.000 HD
BRANCH  18  21
ATOM     21  C   UNL     1      49.075   6.472  17.653  0.00  0.00    +0.000 A 
ATOM     22  C   UNL     1      48.284   5.434  18.127  0.00  0.00    +0.000 A 
ATOM     23  S   UNL     1      48.864   4.764  19.590  0.00  0.00    +0.000 S 
ATOM     24  C   UNL     1      50.183   5.842  19.628  0.00  0.00    +0.000 A 
ATOM     25  N   UNL     1      51.049   5.867  20.675  0.00  0.00    +0.000 NA
ATOM     26  C   UNL     1      51.979   6.759  20.568  0.00  0.00    +0.000 A 
ATOM     27  N   UNL     1      52.144   7.594  19.493  0.00  0.00    +0.000 N 
ATOM     28  C   UNL     1      51.371   7.513  18.357  0.00  0.00    +0.000 A 
ATOM     29  O   UNL     1      51.710   8.072  17.322  0.00  0.00    +0.000 OA
ATOM     30  C   UNL     1      50.226   6.634  18.497  0.00  0.00    +0.000 A 
ATOM     31  H   UNL     1      52.948   8.202  19.429  0.00  0.00    +0.000 HD
ENDBRANCH  18  21
ENDBRANCH   2  17
TORSDOF 6
ENDMDL
MODEL 7
REMARK VINA RESULT:    -6.445      2.389      3.944
REMARK INTER + INTRA:          -9.870
REMARK INTER:                  -8.739
REMARK INTRA:                  -1.131
REMARK UNBOUND:                -1.163
REMARK  Name = 
REMARK  7 active torsions:
REMARK  status: ('A' for Active; 'I' for Inactive)
REMARK    1  A    between atoms: C_1  and  C_2
REMARK    2  A    between atoms: C_2  and  N_3
REMARK    3  A    between atoms: C_2  and  C_16
REMARK    4  A    between atoms: C_4  and  C_6
REMARK    5  A    between atoms: C_19  and  O_20
REMARK    6  A    between atoms: O_20  and  C_21
REMARK    7  A    between atoms: C_21  and  C_22
REMARK                            x       y       z     vdW  Elec       q    Type
REMARK                         _______ _______ _______ _____ _____    ______ ____
ROOT
ATOM      1  C   UNL     1      46.989   3.980  16.804  0.00  0.00    +0.000 C 
ATOM      2  C   UNL     1      47.918   4.788  15.891  0.00  0.00    +0.000 C 
ENDROOT
BRANCH   2   3
ATOM      3  C   UNL     1      47.269   5.197  14.583  0.00  0.00    +0.000 A 
ATOM      4  C   UNL     1      46.244   4.420  14.020  0.00  0.00    +0.000 A 
ATOM      5  C   UNL     1      45.707   4.751  12.773  0.00  0.00    +0.000 A 
ATOM      6  C   UNL     1      46.189   5.859  12.073  0.00  0.00    +0.000 A 
ATOM      7  C   UNL     1      47.215   6.622  12.620  0.00  0.00    +0.000 A 
ATOM      8  C   UNL     1      47.744   6.300  13.863  0.00  0.00    +0.000 A 
BRANCH   6   9
ATOM      9  O   UNL     1      45.607   6.105  10.862  0.00  0.00    +0.000 OA
BRANCH   9  10
ATOM     10  C   UNL     1      44.618   5.147  10.469  0.00  0.00    +0.000 C 
BRANCH  10  11
ATOM     11  C   UNL     1      45.211   4.201   9.459  0.00  0.00    +0.000 A 
ATOM     12  C   UNL     1      45.022   2.829   9.609  0.00  0.00    +0.000 A 
ATOM     13  C   UNL     1      45.555   1.972   8.656  0.00  0.00    +0.000 A 
ATOM     14  C   UNL     1      46.249   2.507   7.579  0.00  0.00    +0.000 A 
ATOM     15  C   UNL     1      46.381   3.886   7.494  0.00  0.00    +0.000 A 
ATOM     16  N   UNL     1      45.870   4.742   8.404  0.00  0.00    +0.000 NA
ENDBRANCH  10  11
ENDBRANCH   9  10
ENDBRANCH   6   9
ENDBRANCH   2   3
BRANCH   2  17
ATOM     17  N   UNL     1      48.358   5.993  16.572  0.00  0.00    +0.000 N 
ATOM     18  C   UNL     1      49.530   6.032  17.287  0.00  0.00    +0.000 C 
ATOM     19  O   UNL     1      50.285   5.073  17.370  0.00  0.00    +0.000 OA
ATOM     20  H   UNL     1      47.708   6.762  16.630  0.00  0.00    +0.000 HD
BRANCH  18  21
ATOM     21  C   UNL     1      49.841   7.326  17.898  0.00  0.00    +0.000 A 
ATOM     22  C   UNL     1      49.764   7.590  19.258  0.00  0.00    +0.000 A 
ATOM     23  S   UNL     1      49.984   9.244  19.634  0.00  0.00    +0.000 S 
ATOM     24  C   UNL     1      50.187   9.649  17.991  0.00  0.00    +0.000 A 
ATOM     25  N   UNL     1      50.335  10.940  17.592  0.00  0.00    +0.000 NA
ATOM     26  C   UNL     1      50.449  11.085  16.312  0.00  0.00    +0.000 A 
ATOM     27  N   UNL     1      50.472  10.056  15.405  0.00  0.00    +0.000 N 
ATOM     28  C   UNL     1      50.457   8.731  15.777  0.00  0.00    +0.000 A 
ATOM     29  O   UNL     1      50.753   7.849  14.981  0.00  0.00    +0.000 OA
ATOM     30  C   UNL     1      50.177   8.527  17.185  0.00  0.00    +0.000 A 
ATOM     31  H   UNL     1      50.661  10.232  14.429  0.00  0.00    +0.000 HD
ENDBRANCH  18  21
ENDBRANCH   2  17
TORSDOF 6
ENDMDL
MODEL 8
REMARK VINA RESULT:    -6.445      2.457      3.256
REMARK INTER + INTRA:          -9.869
REMARK INTER:                 -10.108
REMARK INTRA:                   0.239
REMARK UNBOUND:                -1.163
REMARK  Name = 
REMARK  7 active torsions:
REMARK  status: ('A' for Active; 'I' for Inactive)
REMARK    1  A    between atoms: C_1  and  C_2
REMARK    2  A    between atoms: C_2  and  N_3
REMARK    3  A    between atoms: C_2  and  C_16
REMARK    4  A    between atoms: C_4  and  C_6
REMARK    5  A    between atoms: C_19  and  O_20
REMARK    6  A    between atoms: O_20  and  C_21
REMARK    7  A    between atoms: C_21  and  C_22
REMARK                            x       y       z     vdW  Elec       q    Type
REMARK                         _______ _______ _______ _____ _____    ______ ____
ROOT
ATOM      1  C   UNL     1      49.595   7.410  13.335  0.00  0.00    +0.000 C 
ATOM      2  C   UNL     1      48.123   7.521  13.748  0.00  0.00    +0.000 C 
ENDROOT
BRANCH   2   3
ATOM      3  C   UNL     1      47.224   6.523  13.045  0.00  0.00    +0.000 A 
ATOM      4  C   UNL     1      46.614   6.847  11.822  0.00  0.00    +0.000 A 
ATOM      5  C   UNL     1      45.718   5.961  11.220  0.00  0.00    +0.000 A 
ATOM      6  C   UNL     1      45.417   4.742  11.832  0.00  0.00    +0.000 A 
ATOM      7  C   UNL     1      46.006   4.424  13.051  0.00  0.00    +0.000 A 
ATOM      8  C   UNL     1      46.904   5.300  13.647  0.00  0.00    +0.000 A 
BRANCH   6   9
ATOM      9  O   UNL     1      44.530   3.941  11.172  0.00  0.00    +0.000 OA
BRANCH   9  10
ATOM     10  C   UNL     1      44.288   4.313   9.810  0.00  0.00    +0.000 C 
BRANCH  10  11
ATOM     11  C   UNL     1      45.163   3.491   8.903  0.00  0.00    +0.000 A 
ATOM     12  C   UNL     1      45.918   4.124   7.918  0.00  0.00    +0.000 A 
ATOM     13  C   UNL     1      46.738   3.352   7.105  0.00  0.00    +0.000 A 
ATOM     14  C   UNL     1      46.788   1.980   7.303  0.00  0.00    +0.000 A 
ATOM     15  C   UNL     1      46.016   1.427   8.315  0.00  0.00    +0.000 A 
ATOM     16  N   UNL     1      45.214   2.152   9.123  0.00  0.00    +0.000 NA
ENDBRANCH  10  11
ENDBRANCH   9  10
ENDBRANCH   6   9
ENDBRANCH   2   3
BRANCH   2  17
ATOM     17  N   UNL     1      47.993   7.314  15.180  0.00  0.00    +0.000 N 
ATOM     18  C   UNL     1      49.002   6.755  15.925  0.00  0.00    +0.000 C 
ATOM     19  O   UNL     1      50.076   6.427  15.439  0.00  0.00    +0.000 OA
ATOM     20  H   UNL     1      47.083   7.455  15.592  0.00  0.00    +0.000 HD
BRANCH  18  21
ATOM     21  C   UNL     1      48.722   6.631  17.356  0.00  0.00    +0.000 A 
ATOM     22  C   UNL     1      48.715   5.431  18.053  0.00  0.00    +0.000 A 
ATOM     23  S   UNL     1      48.147   5.592  19.659  0.00  0.00    +0.000 S 
ATOM     24  C   UNL     1      47.895   7.265  19.463  0.00  0.00    +0.000 A 
ATOM     25  N   UNL     1      47.334   8.018  20.447  0.00  0.00    +0.000 NA
ATOM     26  C   UNL     1      47.183   9.264  20.135  0.00  0.00    +0.000 A 
ATOM     27  N   UNL     1      47.580   9.829  18.950  0.00  0.00    +0.000 N 
ATOM     28  C   UNL     1      48.268   9.132  17.982  0.00  0.00    +0.000 A 
ATOM     29  O   UNL     1      48.844   9.717  17.073  0.00  0.00    +0.000 OA
ATOM     30  C   UNL     1      48.323   7.704  18.225  0.00  0.00    +0.000 A 
ATOM     31  H   UNL     1      47.521  10.827  18.808  0.00  0.00    +0.000 HD
ENDBRANCH  18  21
ENDBRANCH   2  17
TORSDOF 6
ENDMDL
MODEL 9
REMARK VINA RESULT:    -6.300      3.525      8.311
REMARK INTER + INTRA:          -9.673
REMARK INTER:                  -8.670
REMARK INTRA:                  -1.003
REMARK UNBOUND:                -1.163
REMARK  Name = 
REMARK  7 active torsions:
REMARK  status: ('A' for Active; 'I' for Inactive)
REMARK    1  A    between atoms: C_1  and  C_2
REMARK    2  A    between atoms: C_2  and  N_3
REMARK    3  A    between atoms: C_2  and  C_16
REMARK    4  A    between atoms: C_4  and  C_6
REMARK    5  A    between atoms: C_19  and  O_20
REMARK    6  A    between atoms: O_20  and  C_21
REMARK    7  A    between atoms: C_21  and  C_22
REMARK                            x       y       z     vdW  Elec       q    Type
REMARK                         _______ _______ _______ _____ _____    ______ ____
ROOT
ATOM      1  C   UNL     1      48.638   8.716  16.666  0.00  0.00    +0.000 C 
ATOM      2  C   UNL     1      49.011   7.580  15.708  0.00  0.00    +0.000 C 
ENDROOT
BRANCH   2   3
ATOM      3  C   UNL     1      49.343   6.280  16.416  0.00  0.00    +0.000 A 
ATOM      4  C   UNL     1      50.658   6.005  16.825  0.00  0.00    +0.000 A 
ATOM      5  C   UNL     1      50.979   4.772  17.399  0.00  0.00    +0.000 A 
ATOM      6  C   UNL     1      49.992   3.799  17.568  0.00  0.00    +0.000 A 
ATOM      7  C   UNL     1      48.691   4.061  17.150  0.00  0.00    +0.000 A 
ATOM      8  C   UNL     1      48.369   5.290  16.588  0.00  0.00    +0.000 A 
BRANCH   6   9
ATOM      9  O   UNL     1      50.397   2.625  18.136  0.00  0.00    +0.000 OA
BRANCH   9  10
ATOM     10  C   UNL     1      51.160   1.775  17.272  0.00  0.00    +0.000 C 
BRANCH  10  11
ATOM     11  C   UNL     1      52.490   1.476  17.910  0.00  0.00    +0.000 A 
ATOM     12  C   UNL     1      53.194   2.498  18.543  0.00  0.00    +0.000 A 
ATOM     13  C   UNL     1      54.408   2.198  19.146  0.00  0.00    +0.000 A 
ATOM     14  C   UNL     1      54.877   0.892  19.111  0.00  0.00    +0.000 A 
ATOM     15  C   UNL     1      54.109  -0.072  18.474  0.00  0.00    +0.000 A 
ATOM     16  N   UNL     1      52.923   0.190  17.882  0.00  0.00    +0.000 NA
ENDBRANCH  10  11
ENDBRANCH   9  10
ENDBRANCH   6   9
ENDBRANCH   2   3
BRANCH   2  17
ATOM     17  N   UNL     1      47.915   7.324  14.790  0.00  0.00    +0.000 N 
ATOM     18  C   UNL     1      48.134   6.890  13.506  0.00  0.00    +0.000 C 
ATOM     19  O   UNL     1      49.253   6.663  13.068  0.00  0.00    +0.000 OA
ATOM     20  H   UNL     1      46.991   7.616  15.071  0.00  0.00    +0.000 HD
BRANCH  18  21
ATOM     21  C   UNL     1      46.924   6.660  12.714  0.00  0.00    +0.000 A 
ATOM     22  C   UNL     1      46.254   7.646  12.003  0.00  0.00    +0.000 A 
ATOM     23  S   UNL     1      44.764   7.110  11.355  0.00  0.00    +0.000 S 
ATOM     24  C   UNL     1      44.975   5.551  12.009  0.00  0.00    +0.000 A 
ATOM     25  N   UNL     1      44.012   4.598  11.896  0.00  0.00    +0.000 NA
ATOM     26  C   UNL     1      44.311   3.477  12.469  0.00  0.00    +0.000 A 
ATOM     27  N   UNL     1      45.499   3.213  13.102  0.00  0.00    +0.000 N 
ATOM     28  C   UNL     1      46.549   4.102  13.124  0.00  0.00    +0.000 A 
ATOM     29  O   UNL     1      47.674   3.743  13.449  0.00  0.00    +0.000 OA
ATOM     30  C   UNL     1      46.203   5.420  12.630  0.00  0.00    +0.000 A 
ATOM     31  H   UNL     1      45.707   2.286  13.444  0.00  0.00    +0.000 HD
ENDBRANCH  18  21
ENDBRANCH   2  17
TORSDOF 6
ENDMDL
