MODEL 1
REMARK VINA RESULT:    -6.886      0.000      0.000
REMARK INTER + INTRA:          -9.677
REMARK INTER:                  -8.899
REMARK INTRA:                  -0.778
REMARK UNBOUND:                -0.778
REMARK  Name = 
REMARK  5 active torsions:
REMARK  status: ('A' for Active; 'I' for Inactive)
REMARK    1  A    between atoms: C_2  and  C_18
REMARK    2  A    between atoms: N_3  and  C_4
REMARK    3  A    between atoms: C_4  and  C_5
REMARK    4  A    between atoms: C_8  and  C_9
REMARK    5  A    between atoms: C_9  and  N_10
REMARK                            x       y       z     vdW  Elec       q    Type
REMARK                         _______ _______ _______ _____ _____    ______ ____
ROOT
ATOM      1  O   UNL     1      49.725   5.598  18.964  0.00  0.00    +0.000 OA
ATOM      2  C   UNL     1      50.596   5.376  18.125  0.00  0.00    +0.000 C 
ATOM      3  N   UNL     1      50.577   5.979  16.888  0.00  0.00    +0.000 N 
ATOM      4  H   UNL     1      51.190   5.635  16.155  0.00  0.00    +0.000 HD
ENDROOT
BRANCH   2   5
ATOM      5  C   UNL     1      51.717   4.472  18.427  0.00  0.00    +0.000 A 
ATOM      6  C   UNL     1      52.772   4.921  19.211  0.00  0.00    +0.000 A 
ATOM      7  S   UNL     1      53.976   3.743  19.486  0.00  0.00    +0.000 S 
ATOM      8  C   UNL     1      53.104   2.573  18.611  0.00  0.00    +0.000 A 
ATOM      9  N   UNL     1      53.563   1.297  18.504  0.00  0.00    +0.000 NA
ATOM     10  C   UNL     1      52.780   0.504  17.851  0.00  0.00    +0.000 A 
ATOM     11  N   UNL     1      51.594   0.877  17.277  0.00  0.00    +0.000 N 
ATOM     12  C   UNL     1      51.115   2.165  17.315  0.00  0.00    +0.000 A 
ATOM     13  O   UNL     1      50.087   2.483  16.724  0.00  0.00    +0.000 OA
ATOM     14  C   UNL     1      51.934   3.088  18.078  0.00  0.00    +0.000 A 
ATOM     15  H   UNL     1      51.037   0.211  16.762  0.00  0.00    +0.000 HD
ENDBRANCH   2   5
BRANCH   3  16
ATOM     16  C   UNL     1      49.453   6.802  16.496  0.00  0.00    +0.000 C 
BRANCH  16  17
ATOM     17  C   UNL     1      48.492   6.088  15.575  0.00  0.00    +0.000 A 
ATOM     18  C   UNL     1      47.816   4.948  16.029  0.00  0.00    +0.000 A 
ATOM     19  C   UNL     1      46.939   4.241  15.196  0.00  0.00    +0.000 A 
ATOM     20  C   UNL     1      46.711   4.646  13.873  0.00  0.00    +0.000 A 
ATOM     21  C   UNL     1      47.372   5.799  13.417  0.00  0.00    +0.000 A 
ATOM     22  C   UNL     1      48.257   6.509  14.254  0.00  0.00    +0.000 A 
BRANCH  20  23
ATOM     23  C   UNL     1      45.912   3.751  12.943  0.00  0.00    +0.000 C 
BRANCH  23  24
ATOM     24  N   UNL     1      44.462   3.885  12.821  0.00  0.00    +0.000 NA
ATOM     25  C   UNL     1      43.808   3.143  11.744  0.00  0.00    +0.000 C 
ATOM     26  C   UNL     1      43.651   3.933  10.437  0.00  0.00    +0.000 C 
ATOM     27  O   UNL     1      43.028   5.206  10.653  0.00  0.00    +0.000 OA
ATOM     28  C   UNL     1      43.744   5.980  11.623  0.00  0.00    +0.000 C 
ATOM     29  C   UNL     1      43.888   5.225  12.953  0.00  0.00    +0.000 C 
ENDBRANCH  23  24
ENDBRANCH  20  23
ENDBRANCH  16  17
ENDBRANCH   3  16
TORSDOF 5
ENDMDL
MODEL 2
REMARK VINA RESULT:    -6.769      2.985      3.849
REMARK INTER + INTRA:          -9.526
REMARK INTER:                  -8.432
REMARK INTRA:                  -1.093
REMARK UNBOUND:                -0.778
REMARK  Name = 
REMARK  5 active torsions:
REMARK  status: ('A' for Active; 'I' for Inactive)
REMARK    1  A    between atoms: C_2  and  C_18
REMARK    2  A    between atoms: N_3  and  C_4
REMARK    3  A    between atoms: C_4  and  C_5
REMARK    4  A    between atoms: C_8  and  C_9
REMARK    5  A    between atoms: C_9  and  N_10
REMARK                            x       y       z     vdW  Elec       q    Type
REMARK                         _______ _______ _______ _____ _____    ______ ____
ROOT
ATOM      1  O   UNL     1      48.498   8.579  16.134  0.00  0.00    +0.000 OA
ATOM      2  C   UNL     1      48.893   7.455  15.831  0.00  0.00    +0.000 C 
ATOM      3  N   UNL     1      49.155   7.109  14.525  0.00  0.00    +0.000 N 
ATOM      4  H   UNL     1      49.290   6.132  14.284  0.00  0.00    +0.000 HD
ENDROOT
BRANCH   2   5
ATOM      5  C   UNL     1      49.130   6.437  16.867  0.00  0.00    +0.000 A 
ATOM      6  C   UNL     1      49.996   6.713  17.918  0.00  0.00    +0.000 A 
ATOM      7  S   UNL     1      50.140   5.439  19.044  0.00  0.00    +0.000 S 
ATOM      8  C   UNL     1      49.010   4.492  18.196  0.00  0.00    +0.000 A 
ATOM      9  N   UNL     1      48.629   3.274  18.665  0.00  0.00    +0.000 NA
ATOM     10  C   UNL     1      47.732   2.684  17.947  0.00  0.00    +0.000 A 
ATOM     11  N   UNL     1      47.201   3.192  16.791  0.00  0.00    +0.000 N 
ATOM     12  C   UNL     1      47.592   4.395  16.251  0.00  0.00    +0.000 A 
ATOM     13  O   UNL     1      47.153   4.785  15.173  0.00  0.00    +0.000 OA
ATOM     14  C   UNL     1      48.564   5.121  17.045  0.00  0.00    +0.000 A 
ATOM     15  H   UNL     1      46.516   2.670  16.265  0.00  0.00    +0.000 HD
ENDBRANCH   2   5
BRANCH   3  16
ATOM     16  C   UNL     1      48.851   8.032  13.453  0.00  0.00    +0.000 C 
BRANCH  16  17
ATOM     17  C   UNL     1      47.547   7.719  12.757  0.00  0.00    +0.000 A 
ATOM     18  C   UNL     1      46.386   8.417  13.115  0.00  0.00    +0.000 A 
ATOM     19  C   UNL     1      45.153   8.135  12.515  0.00  0.00    +0.000 A 
ATOM     20  C   UNL     1      45.033   7.139  11.536  0.00  0.00    +0.000 A 
ATOM     21  C   UNL     1      46.197   6.448  11.158  0.00  0.00    +0.000 A 
ATOM     22  C   UNL     1      47.438   6.728  11.765  0.00  0.00    +0.000 A 
BRANCH  20  23
ATOM     23  C   UNL     1      43.655   6.728  11.049  0.00  0.00    +0.000 C 
BRANCH  23  24
ATOM     24  N   UNL     1      43.052   5.461  11.459  0.00  0.00    +0.000 NA
ATOM     25  C   UNL     1      43.039   5.159  12.890  0.00  0.00    +0.000 C 
ATOM     26  C   UNL     1      44.250   4.351  13.377  0.00  0.00    +0.000 C 
ATOM     27  O   UNL     1      44.457   3.170  12.591  0.00  0.00    +0.000 OA
ATOM     28  C   UNL     1      44.592   3.486  11.200  0.00  0.00    +0.000 C 
ATOM     29  C   UNL     1      43.377   4.268  10.678  0.00  0.00    +0.000 C 
ENDBRANCH  23  24
ENDBRANCH  20  23
ENDBRANCH  16  17
ENDBRANCH   3  16
TORSDOF 5
ENDMDL
MODEL 3
REMARK VINA RESULT:    -5.641      6.521      8.114
REMARK INTER + INTRA:          -8.068
REMARK INTER:                  -7.280
REMARK INTRA:                  -0.787
REMARK UNBOUND:                -0.778
REMARK  Name = 
REMARK  5 active torsions:
REMARK  status: ('A' for Active; 'I' for Inactive)
REMARK    1  A    between atoms: C_2  and  C_18
REMARK    2  A    between atoms: N_3  and  C_4
REMARK    3  A    between atoms: C_4  and  C_5
REMARK    4  A    between atoms: C_8  and  C_9
REMARK    5  A    between atoms: C_9  and  N_10
REMARK                            x       y       z     vdW  Elec       q    Type
REMARK                         _______ _______ _______ _____ _____    ______ ____
ROOT
ATOM      1  O   UNL     1      53.334   7.917  11.648  0.00  0.00    +0.000 OA
ATOM      2  C   UNL     1      52.583   7.713  10.697  0.00  0.00    +0.000 C 
ATOM      3  N   UNL     1      51.251   8.057  10.743  0.00  0.00    +0.000 N 
ATOM      4  H   UNL     1      50.619   7.706  10.029  0.00  0.00    +0.000 HD
ENDROOT
BRANCH   2   5
ATOM      5  C   UNL     1      53.090   7.116   9.452  0.00  0.00    +0.000 A 
ATOM      6  C   UNL     1      53.480   5.782   9.436  0.00  0.00    +0.000 A 
ATOM      7  S   UNL     1      54.020   5.239   7.912  0.00  0.00    +0.000 S 
ATOM      8  C   UNL     1      53.702   6.754   7.203  0.00  0.00    +0.000 A 
ATOM      9  N   UNL     1      53.898   6.955   5.872  0.00  0.00    +0.000 NA
ATOM     10  C   UNL     1      53.574   8.135   5.460  0.00  0.00    +0.000 A 
ATOM     11  N   UNL     1      53.096   9.137   6.262  0.00  0.00    +0.000 N 
ATOM     12  C   UNL     1      52.930   8.996   7.620  0.00  0.00    +0.000 A 
ATOM     13  O   UNL     1      52.574   9.938   8.322  0.00  0.00    +0.000 OA
ATOM     14  C   UNL     1      53.235   7.672   8.128  0.00  0.00    +0.000 A 
ATOM     15  H   UNL     1      52.880  10.046   5.880  0.00  0.00    +0.000 HD
ENDBRANCH   2   5
BRANCH   3  16
ATOM     16  C   UNL     1      50.670   8.558  11.970  0.00  0.00    +0.000 C 
BRANCH  16  17
ATOM     17  C   UNL     1      49.269   8.049  12.211  0.00  0.00    +0.000 A 
ATOM     18  C   UNL     1      49.079   6.748  12.694  0.00  0.00    +0.000 A 
ATOM     19  C   UNL     1      47.795   6.228  12.902  0.00  0.00    +0.000 A 
ATOM     20  C   UNL     1      46.651   6.991  12.629  0.00  0.00    +0.000 A 
ATOM     21  C   UNL     1      46.834   8.304  12.162  0.00  0.00    +0.000 A 
ATOM     22  C   UNL     1      48.126   8.826  11.949  0.00  0.00    +0.000 A 
BRANCH  20  23
ATOM     23  C   UNL     1      45.282   6.335  12.680  0.00  0.00    +0.000 C 
BRANCH  23  24
ATOM     24  N   UNL     1      44.518   6.080  11.460  0.00  0.00    +0.000 NA
ATOM     25  C   UNL     1      43.111   5.712  11.617  0.00  0.00    +0.000 C 
ATOM     26  C   UNL     1      42.858   4.200  11.688  0.00  0.00    +0.000 C 
ATOM     27  O   UNL     1      43.465   3.503  10.592  0.00  0.00    +0.000 OA
ATOM     28  C   UNL     1      44.871   3.773  10.517  0.00  0.00    +0.000 C 
ATOM     29  C   UNL     1      45.152   5.279  10.413  0.00  0.00    +0.000 C 
ENDBRANCH  23  24
ENDBRANCH  20  23
ENDBRANCH  16  17
ENDBRANCH   3  16
TORSDOF 5
ENDMDL
MODEL 4
REMARK VINA RESULT:    -5.557      2.855      4.184
REMARK INTER + INTRA:          -7.959
REMARK INTER:                  -7.141
REMARK INTRA:                  -0.818
REMARK UNBOUND:                -0.778
REMARK  Name = 
REMARK  5 active torsions:
REMARK  status: ('A' for Active; 'I' for Inactive)
REMARK    1  A    between atoms: C_2  and  C_18
REMARK    2  A    between atoms: N_3  and  C_4
REMARK    3  A    between atoms: C_4  and  C_5
REMARK    4  A    between atoms: C_8  and  C_9
REMARK    5  A    between atoms: C_9  and  N_10
REMARK                            x       y       z     vdW  Elec       q    Type
REMARK                         _______ _______ _______ _____ _____    ______ ____
ROOT
ATOM      1  O   UNL     1      50.428  10.132  14.448  0.00  0.00    +0.000 OA
ATOM      2  C   UNL     1      50.378   8.905  14.516  0.00  0.00    +0.000 C 
ATOM      3  N   UNL     1      49.239   8.211  14.178  0.00  0.00    +0.000 N 
ATOM      4  H   UNL     1      49.161   7.229  14.424  0.00  0.00    +0.000 HD
ENDROOT
BRANCH   2   5
ATOM      5  C   UNL     1      51.553   8.126  14.935  0.00  0.00    +0.000 A 
ATOM      6  C   UNL     1      52.807   8.445  14.428  0.00  0.00    +0.000 A 
ATOM      7  S   UNL     1      54.065   7.464  15.033  0.00  0.00    +0.000 S 
ATOM      8  C   UNL     1      52.986   6.610  16.034  0.00  0.00    +0.000 A 
ATOM      9  N   UNL     1      53.435   5.642  16.877  0.00  0.00    +0.000 NA
ATOM     10  C   UNL     1      52.517   5.107  17.611  0.00  0.00    +0.000 A 
ATOM     11  N   UNL     1      51.188   5.437  17.560  0.00  0.00    +0.000 N 
ATOM     12  C   UNL     1      50.680   6.373  16.689  0.00  0.00    +0.000 A 
ATOM     13  O   UNL     1      49.475   6.589  16.615  0.00  0.00    +0.000 OA
ATOM     14  C   UNL     1      51.679   7.038  15.875  0.00  0.00    +0.000 A 
ATOM     15  H   UNL     1      50.516   4.967  18.148  0.00  0.00    +0.000 HD
ENDBRANCH   2   5
BRANCH   3  16
ATOM     16  C   UNL     1      48.022   8.922  13.851  0.00  0.00    +0.000 C 
BRANCH  16  17
ATOM     17  C   UNL     1      47.074   8.110  13.000  0.00  0.00    +0.000 A 
ATOM     18  C   UNL     1      47.418   6.802  12.636  0.00  0.00    +0.000 A 
ATOM     19  C   UNL     1      46.581   6.028  11.824  0.00  0.00    +0.000 A 
ATOM     20  C   UNL     1      45.367   6.536  11.340  0.00  0.00    +0.000 A 
ATOM     21  C   UNL     1      45.007   7.841  11.716  0.00  0.00    +0.000 A 
ATOM     22  C   UNL     1      45.851   8.623  12.531  0.00  0.00    +0.000 A 
BRANCH  20  23
ATOM     23  C   UNL     1      44.581   5.746  10.309  0.00  0.00    +0.000 C 
BRANCH  23  24
ATOM     24  N   UNL     1      43.555   4.785  10.710  0.00  0.00    +0.000 NA
ATOM     25  C   UNL     1      42.627   5.197  11.762  0.00  0.00    +0.000 C 
ATOM     26  C   UNL     1      43.066   4.809  13.180  0.00  0.00    +0.000 C 
ATOM     27  O   UNL     1      43.388   3.416  13.279  0.00  0.00    +0.000 OA
ATOM     28  C   UNL     1      44.389   3.042  12.325  0.00  0.00    +0.000 C 
ATOM     29  C   UNL     1      43.962   3.391  10.891  0.00  0.00    +0.000 C 
ENDBRANCH  23  24
ENDBRANCH  20  23
ENDBRANCH  16  17
ENDBRANCH   3  16
TORSDOF 5
ENDMDL
MODEL 5
REMARK VINA RESULT:    -5.292      6.142      6.697
REMARK INTER + INTRA:          -7.617
REMARK INTER:                  -6.717
REMARK INTRA:                  -0.900
REMARK UNBOUND:                -0.778
REMARK  Name = 
REMARK  5 active torsions:
REMARK  status: ('A' for Active; 'I' for Inactive)
REMARK    1  A    between atoms: C_2  and  C_18
REMARK    2  A    between atoms: N_3  and  C_4
REMARK    3  A    between atoms: C_4  and  C_5
REMARK    4  A    between atoms: C_8  and  C_9
REMARK    5  A    between atoms: C_9  and  N_10
REMARK                            x       y       z     vdW  Elec       q    Type
REMARK                         _______ _______ _______ _____ _____    ______ ____
ROOT
ATOM      1  O   UNL     1      50.808  11.384  10.953  0.00  0.00    +0.000 OA
ATOM      2  C   UNL     1      51.160  10.326  11.471  0.00  0.00    +0.000 C 
ATOM      3  N   UNL     1      50.268   9.516  12.135  0.00  0.00    +0.000 N 
ATOM      4  H   UNL     1      50.616   8.756  12.713  0.00  0.00    +0.000 HD
ENDROOT
BRANCH   2   5
ATOM      5  C   UNL     1      52.555   9.868  11.373  0.00  0.00    +0.000 A 
ATOM      6  C   UNL     1      53.586  10.714  11.761  0.00  0.00    +0.000 A 
ATOM      7  S   UNL     1      55.139  10.022  11.609  0.00  0.00    +0.000 S 
ATOM      8  C   UNL     1      54.485   8.548  11.068  0.00  0.00    +0.000 A 
ATOM      9  N   UNL     1      55.290   7.484  10.804  0.00  0.00    +0.000 NA
ATOM     10  C   UNL     1      54.659   6.416  10.445  0.00  0.00    +0.000 A 
ATOM     11  N   UNL     1      53.300   6.324  10.304  0.00  0.00    +0.000 N 
ATOM     12  C   UNL     1      52.450   7.386  10.510  0.00  0.00    +0.000 A 
ATOM     13  O   UNL     1      51.245   7.291  10.299  0.00  0.00    +0.000 OA
ATOM     14  C   UNL     1      53.105   8.598  10.961  0.00  0.00    +0.000 A 
ATOM     15  H   UNL     1      52.869   5.463  10.000  0.00  0.00    +0.000 HD
ENDBRANCH   2   5
BRANCH   3  16
ATOM     16  C   UNL     1      48.905   9.955  12.349  0.00  0.00    +0.000 C 
BRANCH  16  17
ATOM     17  C   UNL     1      47.922   8.811  12.429  0.00  0.00    +0.000 A 
ATOM     18  C   UNL     1      46.570   9.078  12.682  0.00  0.00    +0.000 A 
ATOM     19  C   UNL     1      45.633   8.043  12.793  0.00  0.00    +0.000 A 
ATOM     20  C   UNL     1      46.015   6.700  12.660  0.00  0.00    +0.000 A 
ATOM     21  C   UNL     1      47.366   6.427  12.389  0.00  0.00    +0.000 A 
ATOM     22  C   UNL     1      48.311   7.468  12.280  0.00  0.00    +0.000 A 
BRANCH  20  23
ATOM     23  C   UNL     1      45.016   5.602  12.978  0.00  0.00    +0.000 C 
BRANCH  23  24
ATOM     24  N   UNL     1      43.955   5.246  12.038  0.00  0.00    +0.000 NA
ATOM     25  C   UNL     1      43.023   4.196  12.447  0.00  0.00    +0.000 C 
ATOM     26  C   UNL     1      43.426   2.784  12.002  0.00  0.00    +0.000 C 
ATOM     27  O   UNL     1      43.703   2.724  10.597  0.00  0.00    +0.000 OA
ATOM     28  C   UNL     1      44.708   3.673  10.221  0.00  0.00    +0.000 C 
ATOM     29  C   UNL     1      44.315   5.102  10.627  0.00  0.00    +0.000 C 
ENDBRANCH  23  24
ENDBRANCH  20  23
ENDBRANCH  16  17
ENDBRANCH   3  16
TORSDOF 5
ENDMDL
MODEL 6
REMARK VINA RESULT:    -5.246      5.483      7.003
REMARK INTER + INTRA:          -7.557
REMARK INTER:                  -7.138
REMARK INTRA:                  -0.420
REMARK UNBOUND:                -0.778
REMARK  Name = 
REMARK  5 active torsions:
REMARK  status: ('A' for Active; 'I' for Inactive)
REMARK    1  A    between atoms: C_2  and  C_18
REMARK    2  A    between atoms: N_3  and  C_4
REMARK    3  A    between atoms: C_4  and  C_5
REMARK    4  A    between atoms: C_8  and  C_9
REMARK    5  A    between atoms: C_9  and  N_10
REMARK                            x       y       z     vdW  Elec       q    Type
REMARK                         _______ _______ _______ _____ _____    ______ ____
ROOT
ATOM      1  O   UNL     1      47.938   9.172  14.382  0.00  0.00    +0.000 OA
ATOM      2  C   UNL     1      48.462   8.732  13.360  0.00  0.00    +0.000 C 
ATOM      3  N   UNL     1      48.441   7.389  13.060  0.00  0.00    +0.000 N 
ATOM      4  H   UNL     1      49.040   7.032  12.322  0.00  0.00    +0.000 HD
ENDROOT
BRANCH   2   5
ATOM      5  C   UNL     1      49.111   9.635  12.398  0.00  0.00    +0.000 A 
ATOM      6  C   UNL     1      48.336  10.494  11.628  0.00  0.00    +0.000 A 
ATOM      7  S   UNL     1      49.243  11.491  10.582  0.00  0.00    +0.000 S 
ATOM      8  C   UNL     1      50.710  10.849  11.159  0.00  0.00    +0.000 A 
ATOM      9  N   UNL     1      51.903  11.320  10.707  0.00  0.00    +0.000 NA
ATOM     10  C   UNL     1      52.934  10.776  11.262  0.00  0.00    +0.000 A 
ATOM     11  N   UNL     1      52.879   9.789  12.209  0.00  0.00    +0.000 N 
ATOM     12  C   UNL     1      51.699   9.246  12.660  0.00  0.00    +0.000 A 
ATOM     13  O   UNL     1      51.687   8.309  13.452  0.00  0.00    +0.000 OA
ATOM     14  C   UNL     1      50.507   9.856  12.103  0.00  0.00    +0.000 A 
ATOM     15  H   UNL     1      53.725   9.391  12.590  0.00  0.00    +0.000 HD
ENDBRANCH   2   5
BRANCH   3  16
ATOM     16  C   UNL     1      47.904   6.439  14.010  0.00  0.00    +0.000 C 
BRANCH  16  17
ATOM     17  C   UNL     1      46.829   5.556  13.420  0.00  0.00    +0.000 A 
ATOM     18  C   UNL     1      47.048   4.177  13.313  0.00  0.00    +0.000 A 
ATOM     19  C   UNL     1      46.089   3.330  12.744  0.00  0.00    +0.000 A 
ATOM     20  C   UNL     1      44.875   3.833  12.255  0.00  0.00    +0.000 A 
ATOM     21  C   UNL     1      44.641   5.213  12.377  0.00  0.00    +0.000 A 
ATOM     22  C   UNL     1      45.608   6.067  12.946  0.00  0.00    +0.000 A 
BRANCH  20  23
ATOM     23  C   UNL     1      43.946   2.921  11.473  0.00  0.00    +0.000 C 
BRANCH  23  24
ATOM     24  N   UNL     1      43.815   3.036  10.022  0.00  0.00    +0.000 NA
ATOM     25  C   UNL     1      44.374   1.955   9.211  0.00  0.00    +0.000 C 
ATOM     26  C   UNL     1      45.823   2.188   8.760  0.00  0.00    +0.000 C 
ATOM     27  O   UNL     1      45.987   3.462   8.124  0.00  0.00    +0.000 OA
ATOM     28  C   UNL     1      45.549   4.530   8.972  0.00  0.00    +0.000 C 
ATOM     29  C   UNL     1      44.091   4.339   9.414  0.00  0.00    +0.000 C 
ENDBRANCH  23  24
ENDBRANCH  20  23
ENDBRANCH  16  17
ENDBRANCH   3  16
TORSDOF 5
ENDMDL
MODEL 7
REMARK VINA RESULT:    -4.952     10.857     12.320
REMARK INTER + INTRA:          -7.178
REMARK INTER:                  -6.279
REMARK INTRA:                  -0.899
REMARK UNBOUND:                -0.778
REMARK  Name = 
REMARK  5 active torsions:
REMARK  status: ('A' for Active; 'I' for Inactive)
REMARK    1  A    between atoms: C_2  and  C_18
REMARK    2  A    between atoms: N_3  and  C_4
REMARK    3  A    between atoms: C_4  and  C_5
REMARK    4  A    between atoms: C_8  and  C_9
REMARK    5  A    between atoms: C_9  and  N_10
REMARK                            x       y       z     vdW  Elec       q    Type
REMARK                         _______ _______ _______ _____ _____    ______ ____
ROOT
ATOM      1  O   UNL     1      42.951  -3.974  17.380  0.00  0.00    +0.000 OA
ATOM      2  C   UNL     1      41.844  -4.034  16.848  0.00  0.00    +0.000 C 
ATOM      3  N   UNL     1      40.726  -3.500  17.447  0.00  0.00    +0.000 N 
ATOM      4  H   UNL     1      39.806  -3.731  17.084  0.00  0.00    +0.000 HD
ENDROOT
BRANCH   2   5
ATOM      5  C   UNL     1      41.678  -4.659  15.527  0.00  0.00    +0.000 A 
ATOM      6  C   UNL     1      42.093  -5.970  15.328  0.00  0.00    +0.000 A 
ATOM      7  S   UNL     1      41.806  -6.552  13.750  0.00  0.00    +0.000 S 
ATOM      8  C   UNL     1      41.068  -5.089  13.289  0.00  0.00    +0.000 A 
ATOM      9  N   UNL     1      40.537  -4.938  12.047  0.00  0.00    +0.000 NA
ATOM     10  C   UNL     1      39.968  -3.795  11.847  0.00  0.00    +0.000 A 
ATOM     11  N   UNL     1      39.905  -2.785  12.770  0.00  0.00    +0.000 N 
ATOM     12  C   UNL     1      40.471  -2.873  14.020  0.00  0.00    +0.000 A 
ATOM     13  O   UNL     1      40.464  -1.921  14.794  0.00  0.00    +0.000 OA
ATOM     14  C   UNL     1      41.082  -4.155  14.312  0.00  0.00    +0.000 A 
ATOM     15  H   UNL     1      39.462  -1.907  12.544  0.00  0.00    +0.000 HD
ENDBRANCH   2   5
BRANCH   3  16
ATOM     16  C   UNL     1      40.806  -2.958  18.787  0.00  0.00    +0.000 C 
BRANCH  16  17
ATOM     17  C   UNL     1      39.945  -1.732  18.980  0.00  0.00    +0.000 A 
ATOM     18  C   UNL     1      40.035  -1.005  20.174  0.00  0.00    +0.000 A 
ATOM     19  C   UNL     1      39.233   0.120  20.403  0.00  0.00    +0.000 A 
ATOM     20  C   UNL     1      38.306   0.558  19.447  0.00  0.00    +0.000 A 
ATOM     21  C   UNL     1      38.224  -0.156  18.239  0.00  0.00    +0.000 A 
ATOM     22  C   UNL     1      39.028  -1.291  18.009  0.00  0.00    +0.000 A 
BRANCH  20  23
ATOM     23  C   UNL     1      37.321   1.657  19.804  0.00  0.00    +0.000 C 
BRANCH  23  24
ATOM     24  N   UNL     1      37.542   3.039  19.384  0.00  0.00    +0.000 NA
ATOM     25  C   UNL     1      36.511   3.657  18.551  0.00  0.00    +0.000 C 
ATOM     26  C   UNL     1      36.750   3.516  17.041  0.00  0.00    +0.000 C 
ATOM     27  O   UNL     1      38.063   3.951  16.664  0.00  0.00    +0.000 OA
ATOM     28  C   UNL     1      39.076   3.252  17.398  0.00  0.00    +0.000 C 
ATOM     29  C   UNL     1      38.879   3.403  18.914  0.00  0.00    +0.000 C 
ENDBRANCH  23  24
ENDBRANCH  20  23
ENDBRANCH  16  17
ENDBRANCH   3  16
TORSDOF 5
ENDMDL
MODEL 8
REMARK VINA RESULT:    -4.900      1.783      2.677
REMARK INTER + INTRA:          -7.111
REMARK INTER:                  -6.314
REMARK INTRA:                  -0.797
REMARK UNBOUND:                -0.778
REMARK  Name = 
REMARK  5 active torsions:
REMARK  status: ('A' for Active; 'I' for Inactive)
REMARK    1  A    between atoms: C_2  and  C_18
REMARK    2  A    between atoms: N_3  and  C_4
REMARK    3  A    between atoms: C_4  and  C_5
REMARK    4  A    between atoms: C_8  and  C_9
REMARK    5  A    between atoms: C_9  and  N_10
REMARK                            x       y       z     vdW  Elec       q    Type
REMARK                         _______ _______ _______ _____ _____    ______ ____
ROOT
ATOM      1  O   UNL     1      51.114   6.504  19.437  0.00  0.00    +0.000 OA
ATOM      2  C   UNL     1      51.874   6.116  18.551  0.00  0.00    +0.000 C 
ATOM      3  N   UNL     1      52.155   6.894  17.451  0.00  0.00    +0.000 N 
ATOM      4  H   UNL     1      52.624   6.478  16.652  0.00  0.00    +0.000 HD
ENDROOT
BRANCH   2   5
ATOM      5  C   UNL     1      52.540   4.808  18.650  0.00  0.00    +0.000 A 
ATOM      6  C   UNL     1      53.738   4.696  19.344  0.00  0.00    +0.000 A 
ATOM      7  S   UNL     1      54.364   3.109  19.386  0.00  0.00    +0.000 S 
ATOM      8  C   UNL     1      53.029   2.504  18.522  0.00  0.00    +0.000 A 
ATOM      9  N   UNL     1      52.912   1.175  18.262  0.00  0.00    +0.000 NA
ATOM     10  C   UNL     1      51.828   0.848  17.639  0.00  0.00    +0.000 A 
ATOM     11  N   UNL     1      50.865   1.734  17.234  0.00  0.00    +0.000 N 
ATOM     12  C   UNL     1      50.964   3.092  17.430  0.00  0.00    +0.000 A 
ATOM     13  O   UNL     1      50.121   3.866  16.986  0.00  0.00    +0.000 OA
ATOM     14  C   UNL     1      52.141   3.507  18.168  0.00  0.00    +0.000 A 
ATOM     15  H   UNL     1      50.049   1.416  16.733  0.00  0.00    +0.000 HD
ENDBRANCH   2   5
BRANCH   3  16
ATOM     16  C   UNL     1      51.460   8.147  17.248  0.00  0.00    +0.000 C 
BRANCH  16  17
ATOM     17  C   UNL     1      50.457   8.088  16.119  0.00  0.00    +0.000 A 
ATOM     18  C   UNL     1      49.105   8.347  16.381  0.00  0.00    +0.000 A 
ATOM     19  C   UNL     1      48.140   8.274  15.369  0.00  0.00    +0.000 A 
ATOM     20  C   UNL     1      48.492   7.933  14.055  0.00  0.00    +0.000 A 
ATOM     21  C   UNL     1      49.849   7.691  13.781  0.00  0.00    +0.000 A 
ATOM     22  C   UNL     1      50.820   7.761  14.801  0.00  0.00    +0.000 A 
BRANCH  20  23
ATOM     23  C   UNL     1      47.402   7.674  13.030  0.00  0.00    +0.000 C 
BRANCH  23  24
ATOM     24  N   UNL     1      47.136   6.327  12.529  0.00  0.00    +0.000 NA
ATOM     25  C   UNL     1      45.823   6.080  11.937  0.00  0.00    +0.000 C 
ATOM     26  C   UNL     1      44.772   5.554  12.924  0.00  0.00    +0.000 C 
ATOM     27  O   UNL     1      45.245   4.412  13.651  0.00  0.00    +0.000 OA
ATOM     28  C   UNL     1      46.473   4.698  14.331  0.00  0.00    +0.000 C 
ATOM     29  C   UNL     1      47.554   5.197  13.360  0.00  0.00    +0.000 C 
ENDBRANCH  23  24
ENDBRANCH  20  23
ENDBRANCH  16  17
ENDBRANCH   3  16
TORSDOF 5
ENDMDL
MODEL 9
REMARK VINA RESULT:    -4.818     11.410     13.810
REMARK INTER + INTRA:          -7.004
REMARK INTER:                  -6.124
REMARK INTRA:                  -0.880
REMARK UNBOUND:                -0.778
REMARK  Name = 
REMARK  5 active torsions:
REMARK  status: ('A' for Active; 'I' for Inactive)
REMARK    1  A    between atoms: C_2  and  C_18
REMARK    2  A    between atoms: N_3  and  C_4
REMARK    3  A    between atoms: C_4  and  C_5
REMARK    4  A    between atoms: C_8  and  C_9
REMARK    5  A    between atoms: C_9  and  N_10
REMARK                            x       y       z     vdW  Elec       q    Type
REMARK                         _______ _______ _______ _____ _____    ______ ____
ROOT
ATOM      1  O   UNL     1      41.297  -2.359  12.342  0.00  0.00    +0.000 OA
ATOM      2  C   UNL     1      40.098  -2.632  12.330  0.00  0.00    +0.000 C 
ATOM      3  N   UNL     1      39.366  -2.718  13.492  0.00  0.00    +0.000 N 
ATOM      4  H   UNL     1      38.438  -3.129  13.469  0.00  0.00    +0.000 HD
ENDROOT
BRANCH   2   5
ATOM      5  C   UNL     1      39.389  -2.849  11.059  0.00  0.00    +0.000 A 
ATOM      6  C   UNL     1      39.583  -4.030  10.355  0.00  0.00    +0.000 A 
ATOM      7  S   UNL     1      38.669  -4.135   8.918  0.00  0.00    +0.000 S 
ATOM      8  C   UNL     1      37.939  -2.626   9.212  0.00  0.00    +0.000 A 
ATOM      9  N   UNL     1      36.991  -2.135   8.370  0.00  0.00    +0.000 NA
ATOM     10  C   UNL     1      36.489  -1.003   8.737  0.00  0.00    +0.000 A 
ATOM     11  N   UNL     1      36.868  -0.309   9.855  0.00  0.00    +0.000 N 
ATOM     12  C   UNL     1      37.857  -0.740  10.707  0.00  0.00    +0.000 A 
ATOM     13  O   UNL     1      38.227  -0.056  11.657  0.00  0.00    +0.000 OA
ATOM     14  C   UNL     1      38.421  -2.031  10.366  0.00  0.00    +0.000 A 
ATOM     15  H   UNL     1      36.449   0.583  10.076  0.00  0.00    +0.000 HD
ENDBRANCH   2   5
BRANCH   3  16
ATOM     16  C   UNL     1      40.024  -2.610  14.777  0.00  0.00    +0.000 C 
BRANCH  16  17
ATOM     17  C   UNL     1      39.311  -1.680  15.729  0.00  0.00    +0.000 A 
ATOM     18  C   UNL     1      39.710  -1.624  17.071  0.00  0.00    +0.000 A 
ATOM     19  C   UNL     1      39.055  -0.797  17.991  0.00  0.00    +0.000 A 
ATOM     20  C   UNL     1      37.971   0.003  17.605  0.00  0.00    +0.000 A 
ATOM     21  C   UNL     1      37.577  -0.034  16.256  0.00  0.00    +0.000 A 
ATOM     22  C   UNL     1      38.234  -0.869  15.329  0.00  0.00    +0.000 A 
BRANCH  20  23
ATOM     23  C   UNL     1      37.164   0.736  18.662  0.00  0.00    +0.000 C 
BRANCH  23  24
ATOM     24  N   UNL     1      37.255   2.187  18.815  0.00  0.00    +0.000 NA
ATOM     25  C   UNL     1      36.291   2.999  18.074  0.00  0.00    +0.000 C 
ATOM     26  C   UNL     1      36.779   3.454  16.692  0.00  0.00    +0.000 C 
ATOM     27  O   UNL     1      38.062   4.090  16.759  0.00  0.00    +0.000 OA
ATOM     28  C   UNL     1      39.035   3.239  17.378  0.00  0.00    +0.000 C 
ATOM     29  C   UNL     1      38.586   2.794  18.778  0.00  0.00    +0.000 C 
ENDBRANCH  23  24
ENDBRANCH  20  23
ENDBRANCH  16  17
ENDBRANCH   3  16
TORSDOF 5
ENDMDL
