MODEL 1
REMARK VINA RESULT:    -9.057      0.000      0.000
REMARK INTER + INTRA:         -14.118
REMARK INTER:                 -13.028
REMARK INTRA:                  -1.091
REMARK UNBOUND:                -1.091
REMARK  Name = 
REMARK  8 active torsions:
REMARK  status: ('A' for Active; 'I' for Inactive)
REMARK    1  A    between atoms: C_2  and  C_21
REMARK    2  A    between atoms: N_3  and  C_4
REMARK    3  A    between atoms: C_4  and  C_5
REMARK    4  A    between atoms: C_8  and  C_9
REMARK    5  A    between atoms: C_9  and  N_10
REMARK    6  A    between atoms: N_10  and  C_11
REMARK    7  A    between atoms: C_11  and  C_12
REMARK    8  A    between atoms: C_15  and  O_16
REMARK                            x       y       z     vdW  Elec       q    Type
REMARK                         _______ _______ _______ _____ _____    ______ ____
ROOT
ATOM      1  C   UNL     1      47.069   6.221  12.748  0.00  0.00    +0.000 A 
ATOM      2  C   UNL     1      46.784   6.668  11.453  0.00  0.00    +0.000 A 
ATOM      3  C   UNL     1      45.630   6.238  10.795  0.00  0.00    +0.000 A 
ATOM      4  C   UNL     1      44.730   5.362  11.421  0.00  0.00    +0.000 A 
ATOM      5  C   UNL     1      44.997   4.947  12.731  0.00  0.00    +0.000 A 
ATOM      6  C   UNL     1      46.151   5.377  13.391  0.00  0.00    +0.000 A 
ENDROOT
BRANCH   1   7
ATOM      7  C   UNL     1      48.328   6.666  13.444  0.00  0.00    +0.000 C 
BRANCH   7  10
ATOM      8  O   UNL     1      50.373   6.683  15.392  0.00  0.00    +0.000 OA
ATOM      9  C   UNL     1      49.201   6.749  15.752  0.00  0.00    +0.000 C 
ATOM     10  N   UNL     1      48.153   6.688  14.872  0.00  0.00    +0.000 N 
ATOM     11  H   UNL     1      47.222   6.925  15.195  0.00  0.00    +0.000 HD
BRANCH   9  12
ATOM     12  C   UNL     1      48.838   6.839  17.173  0.00  0.00    +0.000 A 
ATOM     13  C   UNL     1      48.339   8.029  17.684  0.00  0.00    +0.000 A 
ATOM     14  S   UNL     1      47.984   7.962  19.350  0.00  0.00    +0.000 S 
ATOM     15  C   UNL     1      48.443   6.325  19.439  0.00  0.00    +0.000 A 
ATOM     16  N   UNL     1      48.346   5.634  20.607  0.00  0.00    +0.000 NA
ATOM     17  C   UNL     1      48.691   4.392  20.523  0.00  0.00    +0.000 A 
ATOM     18  N   UNL     1      49.136   3.783  19.380  0.00  0.00    +0.000 N 
ATOM     19  C   UNL     1      49.323   4.460  18.197  0.00  0.00    +0.000 A 
ATOM     20  O   UNL     1      49.855   3.914  17.235  0.00  0.00    +0.000 OA
ATOM     21  C   UNL     1      48.895   5.846  18.222  0.00  0.00    +0.000 A 
ATOM     22  H   UNL     1      49.426   2.816  19.386  0.00  0.00    +0.000 HD
ENDBRANCH   9  12
ENDBRANCH   7  10
ENDBRANCH   1   7
BRANCH   4  23
ATOM     23  C   UNL     1      43.497   4.880  10.690  0.00  0.00    +0.000 C 
BRANCH  23  24
ATOM     24  N   UNL     1      43.862   4.311   9.396  0.00  0.00    +0.000 NA
ATOM     25  H   UNL     1      44.527   4.930   8.935  0.00  0.00    +0.000 HD
BRANCH  24  26
ATOM     26  C   UNL     1      44.409   2.962   9.505  0.00  0.00    +0.000 C 
BRANCH  26  27
ATOM     27  C   UNL     1      45.232   2.625   8.243  0.00  0.00    +0.000 C 
ATOM     28  C   UNL     1      46.141   3.806   7.855  0.00  0.00    +0.000 C 
ATOM     29  C   UNL     1      47.007   3.480   6.639  0.00  0.00    +0.000 C 
ATOM     30  C   UNL     1      47.819   2.204   6.850  0.00  0.00    +0.000 C 
ATOM     31  C   UNL     1      46.917   1.030   7.214  0.00  0.00    +0.000 C 
ATOM     32  C   UNL     1      46.065   1.343   8.437  0.00  0.00    +0.000 C 
BRANCH  30  33
ATOM     33  O   UNL     1      48.550   1.900   5.668  0.00  0.00    +0.000 OA
ATOM     34  H   UNL     1      48.615   2.714   5.139  0.00  0.00    +0.000 HD
ENDBRANCH  30  33
ENDBRANCH  26  27
ENDBRANCH  24  26
ENDBRANCH  23  24
ENDBRANCH   4  23
TORSDOF 8
ENDMDL
MODEL 2
REMARK VINA RESULT:    -8.867      1.272      2.072
REMARK INTER + INTRA:         -13.845
REMARK INTER:                 -12.796
REMARK INTRA:                  -1.049
REMARK UNBOUND:                -1.091
REMARK  Name = 
REMARK  8 active torsions:
REMARK  status: ('A' for Active; 'I' for Inactive)
REMARK    1  A    between atoms: C_2  and  C_21
REMARK    2  A    between atoms: N_3  and  C_4
REMARK    3  A    between atoms: C_4  and  C_5
REMARK    4  A    between atoms: C_8  and  C_9
REMARK    5  A    between atoms: C_9  and  N_10
REMARK    6  A    between atoms: N_10  and  C_11
REMARK    7  A    between atoms: C_11  and  C_12
REMARK    8  A    between atoms: C_15  and  O_16
REMARK                            x       y       z     vdW  Elec       q    Type
REMARK                         _______ _______ _______ _____ _____    ______ ____
ROOT
ATOM      1  C   UNL     1      46.839   6.329  12.893  0.00  0.00    +0.000 A 
ATOM      2  C   UNL     1      45.873   5.499  13.471  0.00  0.00    +0.000 A 
ATOM      3  C   UNL     1      44.792   5.039  12.715  0.00  0.00    +0.000 A 
ATOM      4  C   UNL     1      44.661   5.389  11.363  0.00  0.00    +0.000 A 
ATOM      5  C   UNL     1      45.649   6.189  10.776  0.00  0.00    +0.000 A 
ATOM      6  C   UNL     1      46.731   6.649  11.532  0.00  0.00    +0.000 A 
ENDROOT
BRANCH   1   7
ATOM      7  C   UNL     1      47.988   6.845  13.719  0.00  0.00    +0.000 C 
BRANCH   7  10
ATOM      8  O   UNL     1      50.153   6.618  15.520  0.00  0.00    +0.000 OA
ATOM      9  C   UNL     1      49.026   6.299  15.892  0.00  0.00    +0.000 C 
ATOM     10  N   UNL     1      47.938   6.326  15.061  0.00  0.00    +0.000 N 
ATOM     11  H   UNL     1      47.010   6.228  15.457  0.00  0.00    +0.000 HD
BRANCH   9  12
ATOM     12  C   UNL     1      48.779   5.805  17.253  0.00  0.00    +0.000 A 
ATOM     13  C   UNL     1      49.006   4.468  17.554  0.00  0.00    +0.000 A 
ATOM     14  S   UNL     1      48.655   4.064  19.173  0.00  0.00    +0.000 S 
ATOM     15  C   UNL     1      48.230   5.670  19.541  0.00  0.00    +0.000 A 
ATOM     16  N   UNL     1      47.856   6.023  20.801  0.00  0.00    +0.000 NA
ATOM     17  C   UNL     1      47.598   7.280  20.949  0.00  0.00    +0.000 A 
ATOM     18  N   UNL     1      47.666   8.212  19.948  0.00  0.00    +0.000 N 
ATOM     19  C   UNL     1      47.964   7.888  18.644  0.00  0.00    +0.000 A 
ATOM     20  O   UNL     1      47.877   8.726  17.751  0.00  0.00    +0.000 OA
ATOM     21  C   UNL     1      48.319   6.497  18.435  0.00  0.00    +0.000 A 
ATOM     22  H   UNL     1      47.416   9.175  20.117  0.00  0.00    +0.000 HD
ENDBRANCH   9  12
ENDBRANCH   7  10
ENDBRANCH   1   7
BRANCH   4  23
ATOM     23  C   UNL     1      43.473   4.909  10.559  0.00  0.00    +0.000 C 
BRANCH  23  24
ATOM     24  N   UNL     1      43.912   4.359   9.280  0.00  0.00    +0.000 NA
ATOM     25  H   UNL     1      44.616   4.974   8.875  0.00  0.00    +0.000 HD
BRANCH  24  26
ATOM     26  C   UNL     1      44.431   2.999   9.398  0.00  0.00    +0.000 C 
BRANCH  26  27
ATOM     27  C   UNL     1      45.248   2.637   8.140  0.00  0.00    +0.000 C 
ATOM     28  C   UNL     1      46.125   3.824   7.700  0.00  0.00    +0.000 C 
ATOM     29  C   UNL     1      46.985   3.475   6.486  0.00  0.00    +0.000 C 
ATOM     30  C   UNL     1      47.828   2.227   6.732  0.00  0.00    +0.000 C 
ATOM     31  C   UNL     1      46.959   1.046   7.147  0.00  0.00    +0.000 C 
ATOM     32  C   UNL     1      46.113   1.381   8.368  0.00  0.00    +0.000 C 
BRANCH  30  33
ATOM     33  O   UNL     1      48.554   1.899   5.553  0.00  0.00    +0.000 OA
ATOM     34  H   UNL     1      48.447   0.946   5.391  0.00  0.00    +0.000 HD
ENDBRANCH  30  33
ENDBRANCH  26  27
ENDBRANCH  24  26
ENDBRANCH  23  24
ENDBRANCH   4  23
TORSDOF 8
ENDMDL
MODEL 3
REMARK VINA RESULT:    -8.150      1.904      2.542
REMARK INTER + INTRA:         -12.814
REMARK INTER:                 -11.831
REMARK INTRA:                  -0.983
REMARK UNBOUND:                -1.091
REMARK  Name = 
REMARK  8 active torsions:
REMARK  status: ('A' for Active; 'I' for Inactive)
REMARK    1  A    between atoms: C_2  and  C_21
REMARK    2  A    between atoms: N_3  and  C_4
REMARK    3  A    between atoms: C_4  and  C_5
REMARK    4  A    between atoms: C_8  and  C_9
REMARK    5  A    between atoms: C_9  and  N_10
REMARK    6  A    between atoms: N_10  and  C_11
REMARK    7  A    between atoms: C_11  and  C_12
REMARK    8  A    between atoms: C_15  and  O_16
REMARK                            x       y       z     vdW  Elec       q    Type
REMARK                         _______ _______ _______ _____ _____    ______ ____
ROOT
ATOM      1  C   UNL     1      47.098   6.441  12.620  0.00  0.00    +0.000 A 
ATOM      2  C   UNL     1      46.868   5.395  13.521  0.00  0.00    +0.000 A 
ATOM      3  C   UNL     1      45.918   4.411  13.235  0.00  0.00    +0.000 A 
ATOM      4  C   UNL     1      45.187   4.445  12.038  0.00  0.00    +0.000 A 
ATOM      5  C   UNL     1      45.446   5.471  11.121  0.00  0.00    +0.000 A 
ATOM      6  C   UNL     1      46.397   6.455  11.405  0.00  0.00    +0.000 A 
ENDROOT
BRANCH   1   7
ATOM      7  C   UNL     1      48.103   7.513  12.945  0.00  0.00    +0.000 C 
BRANCH   7  10
ATOM      8  O   UNL     1      49.571   9.001  14.845  0.00  0.00    +0.000 OA
ATOM      9  C   UNL     1      49.764   7.792  14.750  0.00  0.00    +0.000 C 
ATOM     10  N   UNL     1      49.135   7.014  13.815  0.00  0.00    +0.000 N 
ATOM     11  H   UNL     1      49.189   6.005  13.893  0.00  0.00    +0.000 HD
BRANCH   9  12
ATOM     12  C   UNL     1      50.739   7.101  15.604  0.00  0.00    +0.000 A 
ATOM     13  C   UNL     1      52.087   7.424  15.514  0.00  0.00    +0.000 A 
ATOM     14  S   UNL     1      53.078   6.518  16.566  0.00  0.00    +0.000 S 
ATOM     15  C   UNL     1      51.736   5.694  17.212  0.00  0.00    +0.000 A 
ATOM     16  N   UNL     1      51.890   4.778  18.205  0.00  0.00    +0.000 NA
ATOM     17  C   UNL     1      50.786   4.257  18.627  0.00  0.00    +0.000 A 
ATOM     18  N   UNL     1      49.544   4.560  18.136  0.00  0.00    +0.000 N 
ATOM     19  C   UNL     1      49.348   5.421  17.081  0.00  0.00    +0.000 A 
ATOM     20  O   UNL     1      48.236   5.559  16.578  0.00  0.00    +0.000 OA
ATOM     21  C   UNL     1      50.551   6.078  16.607  0.00  0.00    +0.000 A 
ATOM     22  H   UNL     1      48.720   4.092  18.483  0.00  0.00    +0.000 HD
ENDBRANCH   9  12
ENDBRANCH   7  10
ENDBRANCH   1   7
BRANCH   4  23
ATOM     23  C   UNL     1      44.141   3.392  11.749  0.00  0.00    +0.000 C 
BRANCH  23  24
ATOM     24  N   UNL     1      44.642   2.431  10.771  0.00  0.00    +0.000 NA
ATOM     25  H   UNL     1      44.191   1.531  10.925  0.00  0.00    +0.000 HD
BRANCH  24  26
ATOM     26  C   UNL     1      44.445   2.872   9.393  0.00  0.00    +0.000 C 
BRANCH  26  27
ATOM     27  C   UNL     1      45.758   2.716   8.598  0.00  0.00    +0.000 C 
ATOM     28  C   UNL     1      46.003   1.239   8.235  0.00  0.00    +0.000 C 
ATOM     29  C   UNL     1      47.270   1.062   7.401  0.00  0.00    +0.000 C 
ATOM     30  C   UNL     1      47.252   1.941   6.153  0.00  0.00    +0.000 C 
ATOM     31  C   UNL     1      47.032   3.406   6.512  0.00  0.00    +0.000 C 
ATOM     32  C   UNL     1      45.759   3.591   7.329  0.00  0.00    +0.000 C 
BRANCH  30  33
ATOM     33  O   UNL     1      48.480   1.800   5.449  0.00  0.00    +0.000 OA
ATOM     34  H   UNL     1      48.875   2.683   5.353  0.00  0.00    +0.000 HD
ENDBRANCH  30  33
ENDBRANCH  26  27
ENDBRANCH  24  26
ENDBRANCH  23  24
ENDBRANCH   4  23
TORSDOF 8
ENDMDL
MODEL 4
REMARK VINA RESULT:    -7.731      2.125      2.676
REMARK INTER + INTRA:         -12.212
REMARK INTER:                 -11.168
REMARK INTRA:                  -1.044
REMARK UNBOUND:                -1.091
REMARK  Name = 
REMARK  8 active torsions:
REMARK  status: ('A' for Active; 'I' for Inactive)
REMARK    1  A    between atoms: C_2  and  C_21
REMARK    2  A    between atoms: N_3  and  C_4
REMARK    3  A    between atoms: C_4  and  C_5
REMARK    4  A    between atoms: C_8  and  C_9
REMARK    5  A    between atoms: C_9  and  N_10
REMARK    6  A    between atoms: N_10  and  C_11
REMARK    7  A    between atoms: C_11  and  C_12
REMARK    8  A    between atoms: C_15  and  O_16
REMARK                            x       y       z     vdW  Elec       q    Type
REMARK                         _______ _______ _______ _____ _____    ______ ____
ROOT
ATOM      1  C   UNL     1      47.396   7.295  12.784  0.00  0.00    +0.000 A 
ATOM      2  C   UNL     1      46.370   7.992  12.138  0.00  0.00    +0.000 A 
ATOM      3  C   UNL     1      45.328   7.301  11.515  0.00  0.00    +0.000 A 
ATOM      4  C   UNL     1      45.284   5.899  11.535  0.00  0.00    +0.000 A 
ATOM      5  C   UNL     1      46.291   5.204  12.216  0.00  0.00    +0.000 A 
ATOM      6  C   UNL     1      47.333   5.894  12.840  0.00  0.00    +0.000 A 
ENDROOT
BRANCH   1   7
ATOM      7  C   UNL     1      48.531   8.043  13.431  0.00  0.00    +0.000 C 
BRANCH   7  10
ATOM      8  O   UNL     1      48.409   8.232  16.247  0.00  0.00    +0.000 OA
ATOM      9  C   UNL     1      49.074   7.337  15.733  0.00  0.00    +0.000 C 
ATOM     10  N   UNL     1      49.228   7.214  14.379  0.00  0.00    +0.000 N 
ATOM     11  H   UNL     1      49.632   6.364  14.001  0.00  0.00    +0.000 HD
BRANCH   9  12
ATOM     12  C   UNL     1      49.805   6.359  16.551  0.00  0.00    +0.000 A 
ATOM     13  C   UNL     1      49.105   5.459  17.343  0.00  0.00    +0.000 A 
ATOM     14  S   UNL     1      50.108   4.408  18.234  0.00  0.00    +0.000 S 
ATOM     15  C   UNL     1      51.515   5.089  17.560  0.00  0.00    +0.000 A 
ATOM     16  N   UNL     1      52.747   4.612  17.884  0.00  0.00    +0.000 NA
ATOM     17  C   UNL     1      53.723   5.194  17.271  0.00  0.00    +0.000 A 
ATOM     18  N   UNL     1      53.580   6.219  16.375  0.00  0.00    +0.000 N 
ATOM     19  C   UNL     1      52.361   6.784  16.076  0.00  0.00    +0.000 A 
ATOM     20  O   UNL     1      52.288   7.791  15.378  0.00  0.00    +0.000 OA
ATOM     21  C   UNL     1      51.224   6.129  16.694  0.00  0.00    +0.000 A 
ATOM     22  H   UNL     1      54.385   6.659  15.955  0.00  0.00    +0.000 HD
ENDBRANCH   9  12
ENDBRANCH   7  10
ENDBRANCH   1   7
BRANCH   4  23
ATOM     23  C   UNL     1      44.167   5.157  10.835  0.00  0.00    +0.000 C 
BRANCH  23  24
ATOM     24  N   UNL     1      44.606   4.699   9.520  0.00  0.00    +0.000 NA
ATOM     25  H   UNL     1      45.600   4.898   9.411  0.00  0.00    +0.000 HD
BRANCH  24  26
ATOM     26  C   UNL     1      44.343   3.280   9.298  0.00  0.00    +0.000 C 
BRANCH  26  27
ATOM     27  C   UNL     1      45.183   2.769   8.108  0.00  0.00    +0.000 C 
ATOM     28  C   UNL     1      46.094   3.887   7.566  0.00  0.00    +0.000 C 
ATOM     29  C   UNL     1      46.976   3.393   6.420  0.00  0.00    +0.000 C 
ATOM     30  C   UNL     1      47.789   2.165   6.822  0.00  0.00    +0.000 C 
ATOM     31  C   UNL     1      46.887   1.051   7.339  0.00  0.00    +0.000 C 
ATOM     32  C   UNL     1      46.018   1.532   8.494  0.00  0.00    +0.000 C 
BRANCH  30  33
ATOM     33  O   UNL     1      48.536   1.698   5.705  0.00  0.00    +0.000 OA
ATOM     34  H   UNL     1      48.053   0.951   5.313  0.00  0.00    +0.000 HD
ENDBRANCH  30  33
ENDBRANCH  26  27
ENDBRANCH  24  26
ENDBRANCH  23  24
ENDBRANCH   4  23
TORSDOF 8
ENDMDL
MODEL 5
REMARK VINA RESULT:    -7.576      3.616      8.506
REMARK INTER + INTRA:         -11.988
REMARK INTER:                 -10.357
REMARK INTRA:                  -1.631
REMARK UNBOUND:                -1.091
REMARK  Name = 
REMARK  8 active torsions:
REMARK  status: ('A' for Active; 'I' for Inactive)
REMARK    1  A    between atoms: C_2  and  C_21
REMARK    2  A    between atoms: N_3  and  C_4
REMARK    3  A    between atoms: C_4  and  C_5
REMARK    4  A    between atoms: C_8  and  C_9
REMARK    5  A    between atoms: C_9  and  N_10
REMARK    6  A    between atoms: N_10  and  C_11
REMARK    7  A    between atoms: C_11  and  C_12
REMARK    8  A    between atoms: C_15  and  O_16
REMARK                            x       y       z     vdW  Elec       q    Type
REMARK                         _______ _______ _______ _____ _____    ______ ____
ROOT
ATOM      1  C   UNL     1      48.425   8.078  13.569  0.00  0.00    +0.000 A 
ATOM      2  C   UNL     1      48.233   9.229  14.341  0.00  0.00    +0.000 A 
ATOM      3  C   UNL     1      48.322   9.170  15.734  0.00  0.00    +0.000 A 
ATOM      4  C   UNL     1      48.617   7.961  16.383  0.00  0.00    +0.000 A 
ATOM      5  C   UNL     1      48.846   6.819  15.607  0.00  0.00    +0.000 A 
ATOM      6  C   UNL     1      48.758   6.878  14.213  0.00  0.00    +0.000 A 
ENDROOT
BRANCH   1   7
ATOM      7  C   UNL     1      48.301   8.142  12.069  0.00  0.00    +0.000 C 
BRANCH   7  10
ATOM      8  O   UNL     1      45.499   7.961  11.761  0.00  0.00    +0.000 OA
ATOM      9  C   UNL     1      46.206   7.027  11.391  0.00  0.00    +0.000 C 
ATOM     10  N   UNL     1      47.564   7.016  11.560  0.00  0.00    +0.000 N 
ATOM     11  H   UNL     1      48.116   6.313  11.082  0.00  0.00    +0.000 HD
BRANCH   9  12
ATOM     12  C   UNL     1      45.626   5.818  10.790  0.00  0.00    +0.000 A 
ATOM     13  C   UNL     1      45.857   5.534   9.451  0.00  0.00    +0.000 A 
ATOM     14  S   UNL     1      45.100   4.104   8.915  0.00  0.00    +0.000 S 
ATOM     15  C   UNL     1      44.473   3.788  10.465  0.00  0.00    +0.000 A 
ATOM     16  N   UNL     1      43.739   2.669  10.708  0.00  0.00    +0.000 NA
ATOM     17  C   UNL     1      43.358   2.535  11.935  0.00  0.00    +0.000 A 
ATOM     18  N   UNL     1      43.634   3.427  12.938  0.00  0.00    +0.000 N 
ATOM     19  C   UNL     1      44.306   4.608  12.722  0.00  0.00    +0.000 A 
ATOM     20  O   UNL     1      44.410   5.445  13.614  0.00  0.00    +0.000 OA
ATOM     21  C   UNL     1      44.806   4.780  11.372  0.00  0.00    +0.000 A 
ATOM     22  H   UNL     1      43.278   3.286  13.871  0.00  0.00    +0.000 HD
ENDBRANCH   9  12
ENDBRANCH   7  10
ENDBRANCH   1   7
BRANCH   4  23
ATOM     23  C   UNL     1      48.684   7.900  17.893  0.00  0.00    +0.000 C 
BRANCH  23  24
ATOM     24  N   UNL     1      47.593   7.084  18.418  0.00  0.00    +0.000 NA
ATOM     25  H   UNL     1      47.164   6.567  17.653  0.00  0.00    +0.000 HD
BRANCH  24  26
ATOM     26  C   UNL     1      48.027   6.170  19.471  0.00  0.00    +0.000 C 
BRANCH  26  27
ATOM     27  C   UNL     1      48.276   4.766  18.879  0.00  0.00    +0.000 C 
ATOM     28  C   UNL     1      47.272   4.465  17.751  0.00  0.00    +0.000 C 
ATOM     29  C   UNL     1      47.530   3.103  17.110  0.00  0.00    +0.000 C 
ATOM     30  C   UNL     1      48.969   2.974  16.617  0.00  0.00    +0.000 C 
ATOM     31  C   UNL     1      49.963   3.251  17.739  0.00  0.00    +0.000 C 
ATOM     32  C   UNL     1      49.723   4.616  18.369  0.00  0.00    +0.000 C 
BRANCH  30  33
ATOM     33  O   UNL     1      49.183   1.667  16.098  0.00  0.00    +0.000 OA
ATOM     34  H   UNL     1      49.320   1.744  15.138  0.00  0.00    +0.000 HD
ENDBRANCH  30  33
ENDBRANCH  26  27
ENDBRANCH  24  26
ENDBRANCH  23  24
ENDBRANCH   4  23
TORSDOF 8
ENDMDL
MODEL 6
REMARK VINA RESULT:    -7.301      3.158      8.989
REMARK INTER + INTRA:         -11.593
REMARK INTER:                 -10.061
REMARK INTRA:                  -1.532
REMARK UNBOUND:                -1.091
REMARK  Name = 
REMARK  8 active torsions:
REMARK  status: ('A' for Active; 'I' for Inactive)
REMARK    1  A    between atoms: C_2  and  C_21
REMARK    2  A    between atoms: N_3  and  C_4
REMARK    3  A    between atoms: C_4  and  C_5
REMARK    4  A    between atoms: C_8  and  C_9
REMARK    5  A    between atoms: C_9  and  N_10
REMARK    6  A    between atoms: N_10  and  C_11
REMARK    7  A    between atoms: C_11  and  C_12
REMARK    8  A    between atoms: C_15  and  O_16
REMARK                            x       y       z     vdW  Elec       q    Type
REMARK                         _______ _______ _______ _____ _____    ______ ____
ROOT
ATOM      1  C   UNL     1      48.458   8.158  13.122  0.00  0.00    +0.000 A 
ATOM      2  C   UNL     1      49.763   7.658  13.188  0.00  0.00    +0.000 A 
ATOM      3  C   UNL     1      50.512   7.787  14.360  0.00  0.00    +0.000 A 
ATOM      4  C   UNL     1      49.968   8.407  15.495  0.00  0.00    +0.000 A 
ATOM      5  C   UNL     1      48.649   8.873  15.440  0.00  0.00    +0.000 A 
ATOM      6  C   UNL     1      47.898   8.744  14.268  0.00  0.00    +0.000 A 
ENDROOT
BRANCH   1   7
ATOM      7  C   UNL     1      47.664   8.042  11.848  0.00  0.00    +0.000 C 
BRANCH   7  10
ATOM      8  O   UNL     1      44.852   7.772  11.816  0.00  0.00    +0.000 OA
ATOM      9  C   UNL     1      45.553   6.766  11.742  0.00  0.00    +0.000 C 
ATOM     10  N   UNL     1      46.920   6.810  11.810  0.00  0.00    +0.000 N 
ATOM     11  H   UNL     1      47.455   5.984  11.566  0.00  0.00    +0.000 HD
BRANCH   9  12
ATOM     12  C   UNL     1      44.962   5.425  11.635  0.00  0.00    +0.000 A 
ATOM     13  C   UNL     1      44.278   4.883  12.716  0.00  0.00    +0.000 A 
ATOM     14  S   UNL     1      43.670   3.318  12.424  0.00  0.00    +0.000 S 
ATOM     15  C   UNL     1      44.259   3.325  10.827  0.00  0.00    +0.000 A 
ATOM     16  N   UNL     1      44.043   2.270   9.997  0.00  0.00    +0.000 NA
ATOM     17  C   UNL     1      44.511   2.424   8.803  0.00  0.00    +0.000 A 
ATOM     18  N   UNL     1      45.188   3.533   8.369  0.00  0.00    +0.000 N 
ATOM     19  C   UNL     1      45.496   4.590   9.195  0.00  0.00    +0.000 A 
ATOM     20  O   UNL     1      46.225   5.499   8.808  0.00  0.00    +0.000 OA
ATOM     21  C   UNL     1      44.943   4.492  10.532  0.00  0.00    +0.000 A 
ATOM     22  H   UNL     1      45.562   3.580   7.433  0.00  0.00    +0.000 HD
ENDBRANCH   9  12
ENDBRANCH   7  10
ENDBRANCH   1   7
BRANCH   4  23
ATOM     23  C   UNL     1      50.795   8.567  16.751  0.00  0.00    +0.000 C 
BRANCH  23  24
ATOM     24  N   UNL     1      50.302   7.682  17.802  0.00  0.00    +0.000 NA
ATOM     25  H   UNL     1      49.283   7.700  17.803  0.00  0.00    +0.000 HD
BRANCH  24  26
ATOM     26  C   UNL     1      50.787   6.313  17.663  0.00  0.00    +0.000 C 
BRANCH  26  27
ATOM     27  C   UNL     1      49.673   5.318  18.052  0.00  0.00    +0.000 C 
ATOM     28  C   UNL     1      48.291   5.864  17.650  0.00  0.00    +0.000 C 
ATOM     29  C   UNL     1      47.173   4.875  17.976  0.00  0.00    +0.000 C 
ATOM     30  C   UNL     1      47.430   3.506  17.349  0.00  0.00    +0.000 C 
ATOM     31  C   UNL     1      48.789   2.955  17.764  0.00  0.00    +0.000 C 
ATOM     32  C   UNL     1      49.910   3.929  17.425  0.00  0.00    +0.000 C 
BRANCH  30  33
ATOM     33  O   UNL     1      46.405   2.600  17.740  0.00  0.00    +0.000 OA
ATOM     34  H   UNL     1      46.693   1.702  17.503  0.00  0.00    +0.000 HD
ENDBRANCH  30  33
ENDBRANCH  26  27
ENDBRANCH  24  26
ENDBRANCH  23  24
ENDBRANCH   4  23
TORSDOF 8
ENDMDL
MODEL 7
REMARK VINA RESULT:    -7.147      4.007      9.341
REMARK INTER + INTRA:         -11.372
REMARK INTER:                  -9.373
REMARK INTRA:                  -1.999
REMARK UNBOUND:                -1.091
REMARK  Name = 
REMARK  8 active torsions:
REMARK  status: ('A' for Active; 'I' for Inactive)
REMARK    1  A    between atoms: C_2  and  C_21
REMARK    2  A    between atoms: N_3  and  C_4
REMARK    3  A    between atoms: C_4  and  C_5
REMARK    4  A    between atoms: C_8  and  C_9
REMARK    5  A    between atoms: C_9  and  N_10
REMARK    6  A    between atoms: N_10  and  C_11
REMARK    7  A    between atoms: C_11  and  C_12
REMARK    8  A    between atoms: C_15  and  O_16
REMARK                            x       y       z     vdW  Elec       q    Type
REMARK                         _______ _______ _______ _____ _____    ______ ____
ROOT
ATOM      1  C   UNL     1      47.971   4.312  17.778  0.00  0.00    +0.000 A 
ATOM      2  C   UNL     1      49.286   3.960  18.098  0.00  0.00    +0.000 A 
ATOM      3  C   UNL     1      49.980   4.644  19.098  0.00  0.00    +0.000 A 
ATOM      4  C   UNL     1      49.369   5.688  19.809  0.00  0.00    +0.000 A 
ATOM      5  C   UNL     1      48.039   6.014  19.515  0.00  0.00    +0.000 A 
ATOM      6  C   UNL     1      47.345   5.329  18.515  0.00  0.00    +0.000 A 
ENDROOT
BRANCH   1   7
ATOM      7  C   UNL     1      47.237   3.589  16.680  0.00  0.00    +0.000 C 
BRANCH   7  10
ATOM      8  O   UNL     1      47.218   3.166  13.887  0.00  0.00    +0.000 OA
ATOM      9  C   UNL     1      46.744   4.204  14.341  0.00  0.00    +0.000 C 
ATOM     10  N   UNL     1      46.768   4.507  15.676  0.00  0.00    +0.000 N 
ATOM     11  H   UNL     1      46.210   5.281  16.018  0.00  0.00    +0.000 HD
BRANCH   9  12
ATOM     12  C   UNL     1      46.164   5.230  13.463  0.00  0.00    +0.000 A 
ATOM     13  C   UNL     1      46.912   6.348  13.120  0.00  0.00    +0.000 A 
ATOM     14  S   UNL     1      46.082   7.441  12.107  0.00  0.00    +0.000 S 
ATOM     15  C   UNL     1      44.709   6.437  12.055  0.00  0.00    +0.000 A 
ATOM     16  N   UNL     1      43.620   6.780  11.315  0.00  0.00    +0.000 NA
ATOM     17  C   UNL     1      42.666   5.910  11.335  0.00  0.00    +0.000 A 
ATOM     18  N   UNL     1      42.696   4.735  12.039  0.00  0.00    +0.000 N 
ATOM     19  C   UNL     1      43.743   4.385  12.860  0.00  0.00    +0.000 A 
ATOM     20  O   UNL     1      43.672   3.394  13.582  0.00  0.00    +0.000 OA
ATOM     21  C   UNL     1      44.867   5.300  12.829  0.00  0.00    +0.000 A 
ATOM     22  H   UNL     1      41.903   4.112  12.044  0.00  0.00    +0.000 HD
ENDBRANCH   9  12
ENDBRANCH   7  10
ENDBRANCH   1   7
BRANCH   4  23
ATOM     23  C   UNL     1      50.136   6.442  20.872  0.00  0.00    +0.000 C 
BRANCH  23  24
ATOM     24  N   UNL     1      50.181   7.866  20.554  0.00  0.00    +0.000 NA
ATOM     25  H   UNL     1      50.419   8.390  21.395  0.00  0.00    +0.000 HD
BRANCH  24  26
ATOM     26  C   UNL     1      51.118   8.176  19.478  0.00  0.00    +0.000 C 
BRANCH  26  27
ATOM     27  C   UNL     1      50.357   8.765  18.271  0.00  0.00    +0.000 C 
ATOM     28  C   UNL     1      50.292   7.746  17.118  0.00  0.00    +0.000 C 
ATOM     29  C   UNL     1      49.497   8.283  15.929  0.00  0.00    +0.000 C 
ATOM     30  C   UNL     1      48.100   8.737  16.344  0.00  0.00    +0.000 C 
ATOM     31  C   UNL     1      48.164   9.762  17.470  0.00  0.00    +0.000 C 
ATOM     32  C   UNL     1      48.939   9.225  18.666  0.00  0.00    +0.000 C 
BRANCH  30  33
ATOM     33  O   UNL     1      47.426   9.297  15.223  0.00  0.00    +0.000 OA
ATOM     34  H   UNL     1      46.573   8.839  15.126  0.00  0.00    +0.000 HD
ENDBRANCH  30  33
ENDBRANCH  26  27
ENDBRANCH  24  26
ENDBRANCH  23  24
ENDBRANCH   4  23
TORSDOF 8
ENDMDL
MODEL 8
REMARK VINA RESULT:    -6.988      3.954      4.949
REMARK INTER + INTRA:         -11.143
REMARK INTER:                 -10.430
REMARK INTRA:                  -0.713
REMARK UNBOUND:                -1.091
REMARK  Name = 
REMARK  8 active torsions:
REMARK  status: ('A' for Active; 'I' for Inactive)
REMARK    1  A    between atoms: C_2  and  C_21
REMARK    2  A    between atoms: N_3  and  C_4
REMARK    3  A    between atoms: C_4  and  C_5
REMARK    4  A    between atoms: C_8  and  C_9
REMARK    5  A    between atoms: C_9  and  N_10
REMARK    6  A    between atoms: N_10  and  C_11
REMARK    7  A    between atoms: C_11  and  C_12
REMARK    8  A    between atoms: C_15  and  O_16
REMARK                            x       y       z     vdW  Elec       q    Type
REMARK                         _______ _______ _______ _____ _____    ______ ____
ROOT
ATOM      1  C   UNL     1      46.450   6.622  12.714  0.00  0.00    +0.000 A 
ATOM      2  C   UNL     1      45.606   5.680  13.311  0.00  0.00    +0.000 A 
ATOM      3  C   UNL     1      44.822   4.832  12.525  0.00  0.00    +0.000 A 
ATOM      4  C   UNL     1      44.874   4.901  11.125  0.00  0.00    +0.000 A 
ATOM      5  C   UNL     1      45.747   5.818  10.528  0.00  0.00    +0.000 A 
ATOM      6  C   UNL     1      46.532   6.666  11.314  0.00  0.00    +0.000 A 
ENDROOT
BRANCH   1   7
ATOM      7  C   UNL     1      47.272   7.552  13.565  0.00  0.00    +0.000 C 
BRANCH   7  10
ATOM      8  O   UNL     1      49.084   9.580  14.331  0.00  0.00    +0.000 OA
ATOM      9  C   UNL     1      49.373   8.839  13.395  0.00  0.00    +0.000 C 
ATOM     10  N   UNL     1      48.523   7.871  12.929  0.00  0.00    +0.000 N 
ATOM     11  H   UNL     1      48.874   7.175  12.281  0.00  0.00    +0.000 HD
BRANCH   9  12
ATOM     12  C   UNL     1      50.640   8.981  12.666  0.00  0.00    +0.000 A 
ATOM     13  C   UNL     1      50.637   9.455  11.361  0.00  0.00    +0.000 A 
ATOM     14  S   UNL     1      52.190   9.544  10.663  0.00  0.00    +0.000 S 
ATOM     15  C   UNL     1      52.928   8.995  12.095  0.00  0.00    +0.000 A 
ATOM     16  N   UNL     1      54.279   8.875  12.185  0.00  0.00    +0.000 NA
ATOM     17  C   UNL     1      54.706   8.485  13.339  0.00  0.00    +0.000 A 
ATOM     18  N   UNL     1      53.902   8.191  14.409  0.00  0.00    +0.000 N 
ATOM     19  C   UNL     1      52.528   8.225  14.341  0.00  0.00    +0.000 A 
ATOM     20  O   UNL     1      51.841   7.820  15.275  0.00  0.00    +0.000 OA
ATOM     21  C   UNL     1      51.998   8.713  13.082  0.00  0.00    +0.000 A 
ATOM     22  H   UNL     1      54.293   7.856  15.276  0.00  0.00    +0.000 HD
ENDBRANCH   9  12
ENDBRANCH   7  10
ENDBRANCH   1   7
BRANCH   4  23
ATOM     23  C   UNL     1      44.001   3.999  10.281  0.00  0.00    +0.000 C 
BRANCH  23  24
ATOM     24  N   UNL     1      44.297   2.597  10.561  0.00  0.00    +0.000 NA
ATOM     25  H   UNL     1      43.575   2.218  11.171  0.00  0.00    +0.000 HD
BRANCH  24  26
ATOM     26  C   UNL     1      44.416   1.791   9.350  0.00  0.00    +0.000 C 
BRANCH  26  27
ATOM     27  C   UNL     1      45.683   2.199   8.569  0.00  0.00    +0.000 C 
ATOM     28  C   UNL     1      46.348   0.967   7.928  0.00  0.00    +0.000 C 
ATOM     29  C   UNL     1      47.576   1.349   7.103  0.00  0.00    +0.000 C 
ATOM     30  C   UNL     1      47.244   2.407   6.053  0.00  0.00    +0.000 C 
ATOM     31  C   UNL     1      46.605   3.635   6.689  0.00  0.00    +0.000 C 
ATOM     32  C   UNL     1      45.369   3.263   7.498  0.00  0.00    +0.000 C 
BRANCH  30  33
ATOM     33  O   UNL     1      48.429   2.785   5.362  0.00  0.00    +0.000 OA
ATOM     34  H   UNL     1      48.630   3.707   5.595  0.00  0.00    +0.000 HD
ENDBRANCH  30  33
ENDBRANCH  26  27
ENDBRANCH  24  26
ENDBRANCH  23  24
ENDBRANCH   4  23
TORSDOF 8
ENDMDL
MODEL 9
REMARK VINA RESULT:    -6.846      4.306      9.446
REMARK INTER + INTRA:         -10.938
REMARK INTER:                  -9.924
REMARK INTRA:                  -1.014
REMARK UNBOUND:                -1.091
REMARK  Name = 
REMARK  8 active torsions:
REMARK  status: ('A' for Active; 'I' for Inactive)
REMARK    1  A    between atoms: C_2  and  C_21
REMARK    2  A    between atoms: N_3  and  C_4
REMARK    3  A    between atoms: C_4  and  C_5
REMARK    4  A    between atoms: C_8  and  C_9
REMARK    5  A    between atoms: C_9  and  N_10
REMARK    6  A    between atoms: N_10  and  C_11
REMARK    7  A    between atoms: C_11  and  C_12
REMARK    8  A    between atoms: C_15  and  O_16
REMARK                            x       y       z     vdW  Elec       q    Type
REMARK                         _______ _______ _______ _____ _____    ______ ____
ROOT
ATOM      1  C   UNL     1      48.514   3.859  17.236  0.00  0.00    +0.000 A 
ATOM      2  C   UNL     1      49.511   2.879  17.269  0.00  0.00    +0.000 A 
ATOM      3  C   UNL     1      50.804   3.198  17.690  0.00  0.00    +0.000 A 
ATOM      4  C   UNL     1      51.124   4.502  18.098  0.00  0.00    +0.000 A 
ATOM      5  C   UNL     1      50.115   5.473  18.101  0.00  0.00    +0.000 A 
ATOM      6  C   UNL     1      48.821   5.154  17.681  0.00  0.00    +0.000 A 
ENDROOT
BRANCH   1   7
ATOM      7  C   UNL     1      47.128   3.516  16.755  0.00  0.00    +0.000 C 
BRANCH   7  10
ATOM      8  O   UNL     1      47.293   3.159  13.958  0.00  0.00    +0.000 OA
ATOM      9  C   UNL     1      46.752   4.168  14.404  0.00  0.00    +0.000 C 
ATOM     10  N   UNL     1      46.685   4.439  15.744  0.00  0.00    +0.000 N 
ATOM     11  H   UNL     1      46.077   5.183  16.068  0.00  0.00    +0.000 HD
BRANCH   9  12
ATOM     12  C   UNL     1      46.186   5.191  13.515  0.00  0.00    +0.000 A 
ATOM     13  C   UNL     1      46.933   6.316  13.193  0.00  0.00    +0.000 A 
ATOM     14  S   UNL     1      46.120   7.405  12.164  0.00  0.00    +0.000 S 
ATOM     15  C   UNL     1      44.757   6.391  12.075  0.00  0.00    +0.000 A 
ATOM     16  N   UNL     1      43.683   6.727  11.309  0.00  0.00    +0.000 NA
ATOM     17  C   UNL     1      42.736   5.850  11.303  0.00  0.00    +0.000 A 
ATOM     18  N   UNL     1      42.758   4.674  12.004  0.00  0.00    +0.000 N 
ATOM     19  C   UNL     1      43.788   4.329  12.850  0.00  0.00    +0.000 A 
ATOM     20  O   UNL     1      43.707   3.335  13.568  0.00  0.00    +0.000 OA
ATOM     21  C   UNL     1      44.905   5.253  12.850  0.00  0.00    +0.000 A 
ATOM     22  H   UNL     1      41.970   4.044  11.988  0.00  0.00    +0.000 HD
ENDBRANCH   9  12
ENDBRANCH   7  10
ENDBRANCH   1   7
BRANCH   4  23
ATOM     23  C   UNL     1      52.533   4.846  18.527  0.00  0.00    +0.000 C 
BRANCH  23  24
ATOM     24  N   UNL     1      53.504   4.181  17.664  0.00  0.00    +0.000 NA
ATOM     25  H   UNL     1      53.831   4.839  16.958  0.00  0.00    +0.000 HD
BRANCH  24  26
ATOM     26  C   UNL     1      54.633   3.625  18.405  0.00  0.00    +0.000 C 
BRANCH  26  27
ATOM     27  C   UNL     1      54.880   2.165  17.969  0.00  0.00    +0.000 C 
ATOM     28  C   UNL     1      53.608   1.318  18.158  0.00  0.00    +0.000 C 
ATOM     29  C   UNL     1      53.809  -0.121  17.685  0.00  0.00    +0.000 C 
ATOM     30  C   UNL     1      54.300  -0.176  16.240  0.00  0.00    +0.000 C 
ATOM     31  C   UNL     1      55.571   0.645  16.057  0.00  0.00    +0.000 C 
ATOM     32  C   UNL     1      55.371   2.085  16.510  0.00  0.00    +0.000 C 
BRANCH  30  33
ATOM     33  O   UNL     1      54.544  -1.528  15.868  0.00  0.00    +0.000 OA
ATOM     34  H   UNL     1      53.900  -2.088  16.335  0.00  0.00    +0.000 HD
ENDBRANCH  30  33
ENDBRANCH  26  27
ENDBRANCH  24  26
ENDBRANCH  23  24
ENDBRANCH   4  23
TORSDOF 8
ENDMDL
