MODEL 1
REMARK VINA RESULT:    -7.233      0.000      0.000
REMARK INTER + INTRA:          -9.506
REMARK INTER:                  -9.135
REMARK INTRA:                  -0.371
REMARK UNBOUND:                -0.371
REMARK  Name = 
REMARK  5 active torsions:
REMARK  status: ('A' for Active; 'I' for Inactive)
REMARK    1  A    between atoms: N_1  and  C_2
REMARK    2  A    between atoms: C_2  and  C_3
REMARK    3  A    between atoms: C_6  and  O_7
REMARK    4  A    between atoms: O_7  and  C_8
REMARK    5  A    between atoms: C_8  and  C_9
REMARK                            x       y       z     vdW  Elec       q    Type
REMARK                         _______ _______ _______ _____ _____    ______ ____
ROOT
ATOM      1  C   UNL     1      46.611   2.325   7.520  0.00  0.00    +0.000 A 
ATOM      2  C   UNL     1      46.405   3.711   7.553  0.00  0.00    +0.000 A 
ATOM      3  C   UNL     1      45.452   4.275   8.408  0.00  0.00    +0.000 A 
ATOM      4  C   UNL     1      44.688   3.457   9.239  0.00  0.00    +0.000 A 
ATOM      5  C   UNL     1      44.919   2.081   9.245  0.00  0.00    +0.000 A 
ATOM      6  C   UNL     1      45.868   1.515   8.386  0.00  0.00    +0.000 A 
ENDROOT
BRANCH   1   7
ATOM      7  C   UNL     1      47.585   1.721   6.540  0.00  0.00    +0.000 C 
BRANCH   7   8
ATOM      8  N   UNL     1      48.727   2.594   6.296  0.00  0.00    +0.000 NA
ATOM      9  H   UNL     1      49.564   2.159   6.676  0.00  0.00    +0.000 HD
ATOM     10  H   UNL     1      48.591   3.460   6.812  0.00  0.00    +0.000 HD
ENDBRANCH   7   8
ENDBRANCH   1   7
BRANCH   4  11
ATOM     11  O   UNL     1      43.730   3.898  10.111  0.00  0.00    +0.000 OA
BRANCH  11  12
ATOM     12  C   UNL     1      43.790   3.324  11.423  0.00  0.00    +0.000 C 
BRANCH  12  13
ATOM     13  C   UNL     1      44.831   4.038  12.259  0.00  0.00    +0.000 A 
ATOM     14  N   UNL     1      45.744   3.273  12.902  0.00  0.00    +0.000 NA
ATOM     15  C   UNL     1      46.675   3.922  13.622  0.00  0.00    +0.000 A 
ATOM     16  C   UNL     1      46.742   5.290  13.719  0.00  0.00    +0.000 A 
ATOM     17  C   UNL     1      45.775   5.981  13.027  0.00  0.00    +0.000 A 
ATOM     18  N   UNL     1      44.816   5.387  12.291  0.00  0.00    +0.000 NA
ENDBRANCH  12  13
ENDBRANCH  11  12
ENDBRANCH   4  11
TORSDOF 5
ENDMDL
MODEL 2
REMARK VINA RESULT:    -6.412      1.827      5.754
REMARK INTER + INTRA:          -8.469
REMARK INTER:                  -8.150
REMARK INTRA:                  -0.319
REMARK UNBOUND:                -0.371
REMARK  Name = 
REMARK  5 active torsions:
REMARK  status: ('A' for Active; 'I' for Inactive)
REMARK    1  A    between atoms: N_1  and  C_2
REMARK    2  A    between atoms: C_2  and  C_3
REMARK    3  A    between atoms: C_6  and  O_7
REMARK    4  A    between atoms: O_7  and  C_8
REMARK    5  A    between atoms: C_8  and  C_9
REMARK                            x       y       z     vdW  Elec       q    Type
REMARK                         _______ _______ _______ _____ _____    ______ ____
ROOT
ATOM      1  C   UNL     1      46.597   5.466  12.871  0.00  0.00    +0.000 A 
ATOM      2  C   UNL     1      46.382   6.238  11.721  0.00  0.00    +0.000 A 
ATOM      3  C   UNL     1      45.598   5.756  10.668  0.00  0.00    +0.000 A 
ATOM      4  C   UNL     1      45.023   4.488  10.749  0.00  0.00    +0.000 A 
ATOM      5  C   UNL     1      45.195   3.732  11.910  0.00  0.00    +0.000 A 
ATOM      6  C   UNL     1      45.983   4.211  12.961  0.00  0.00    +0.000 A 
ENDROOT
BRANCH   1   7
ATOM      7  C   UNL     1      47.506   5.963  13.966  0.00  0.00    +0.000 C 
BRANCH   7   8
ATOM      8  N   UNL     1      47.460   5.105  15.145  0.00  0.00    +0.000 NA
ATOM      9  H   UNL     1      47.339   4.139  14.846  0.00  0.00    +0.000 HD
ATOM     10  H   UNL     1      46.636   5.345  15.690  0.00  0.00    +0.000 HD
ENDBRANCH   7   8
ENDBRANCH   1   7
BRANCH   4  11
ATOM     11  O   UNL     1      44.242   3.914   9.783  0.00  0.00    +0.000 OA
BRANCH  11  12
ATOM     12  C   UNL     1      44.508   2.530   9.527  0.00  0.00    +0.000 C 
BRANCH  12  13
ATOM     13  C   UNL     1      45.495   2.388   8.387  0.00  0.00    +0.000 A 
ATOM     14  N   UNL     1      45.603   3.427   7.527  0.00  0.00    +0.000 NA
ATOM     15  C   UNL     1      46.499   3.296   6.533  0.00  0.00    +0.000 A 
ATOM     16  C   UNL     1      47.293   2.188   6.369  0.00  0.00    +0.000 A 
ATOM     17  C   UNL     1      47.114   1.188   7.296  0.00  0.00    +0.000 A 
ATOM     18  N   UNL     1      46.232   1.261   8.310  0.00  0.00    +0.000 NA
ENDBRANCH  12  13
ENDBRANCH  11  12
ENDBRANCH   4  11
TORSDOF 5
ENDMDL
MODEL 3
REMARK VINA RESULT:    -6.410      1.846      5.744
REMARK INTER + INTRA:          -8.467
REMARK INTER:                  -8.136
REMARK INTRA:                  -0.331
REMARK UNBOUND:                -0.371
REMARK  Name = 
REMARK  5 active torsions:
REMARK  status: ('A' for Active; 'I' for Inactive)
REMARK    1  A    between atoms: N_1  and  C_2
REMARK    2  A    between atoms: C_2  and  C_3
REMARK    3  A    between atoms: C_6  and  O_7
REMARK    4  A    between atoms: O_7  and  C_8
REMARK    5  A    between atoms: C_8  and  C_9
REMARK                            x       y       z     vdW  Elec       q    Type
REMARK                         _______ _______ _______ _____ _____    ______ ____
ROOT
ATOM      1  C   UNL     1      46.498   5.415  12.945  0.00  0.00    +0.000 A 
ATOM      2  C   UNL     1      45.934   4.146  13.132  0.00  0.00    +0.000 A 
ATOM      3  C   UNL     1      45.145   3.556  12.139  0.00  0.00    +0.000 A 
ATOM      4  C   UNL     1      44.904   4.234  10.945  0.00  0.00    +0.000 A 
ATOM      5  C   UNL     1      45.498   5.478  10.732  0.00  0.00    +0.000 A 
ATOM      6  C   UNL     1      46.283   6.071  11.726  0.00  0.00    +0.000 A 
ENDROOT
BRANCH   1   7
ATOM      7  C   UNL     1      47.282   6.074  14.050  0.00  0.00    +0.000 C 
BRANCH   7   8
ATOM      8  N   UNL     1      47.645   5.129  15.100  0.00  0.00    +0.000 NA
ATOM      9  H   UNL     1      47.805   5.641  15.966  0.00  0.00    +0.000 HD
ATOM     10  H   UNL     1      48.531   4.693  14.854  0.00  0.00    +0.000 HD
ENDBRANCH   7   8
ENDBRANCH   1   7
BRANCH   4  11
ATOM     11  O   UNL     1      44.148   3.757   9.908  0.00  0.00    +0.000 OA
BRANCH  11  12
ATOM     12  C   UNL     1      44.417   2.401   9.532  0.00  0.00    +0.000 C 
BRANCH  12  13
ATOM     13  C   UNL     1      45.461   2.359   8.436  0.00  0.00    +0.000 A 
ATOM     14  N   UNL     1      46.171   1.215   8.298  0.00  0.00    +0.000 NA
ATOM     15  C   UNL     1      47.079   1.184   7.307  0.00  0.00    +0.000 A 
ATOM     16  C   UNL     1      47.299   2.232   6.447  0.00  0.00    +0.000 A 
ATOM     17  C   UNL     1      46.526   3.348   6.664  0.00  0.00    +0.000 A 
ATOM     18  N   UNL     1      45.603   3.439   7.640  0.00  0.00    +0.000 NA
ENDBRANCH  12  13
ENDBRANCH  11  12
ENDBRANCH   4  11
TORSDOF 5
ENDMDL
MODEL 4
REMARK VINA RESULT:    -5.459      3.949      8.056
REMARK INTER + INTRA:          -7.266
REMARK INTER:                  -6.977
REMARK INTRA:                  -0.289
REMARK UNBOUND:                -0.371
REMARK  Name = 
REMARK  5 active torsions:
REMARK  status: ('A' for Active; 'I' for Inactive)
REMARK    1  A    between atoms: N_1  and  C_2
REMARK    2  A    between atoms: C_2  and  C_3
REMARK    3  A    between atoms: C_6  and  O_7
REMARK    4  A    between atoms: O_7  and  C_8
REMARK    5  A    between atoms: C_8  and  C_9
REMARK                            x       y       z     vdW  Elec       q    Type
REMARK                         _______ _______ _______ _____ _____    ______ ____
ROOT
ATOM      1  C   UNL     1      48.556   4.513  18.465  0.00  0.00    +0.000 A 
ATOM      2  C   UNL     1      48.304   3.172  18.144  0.00  0.00    +0.000 A 
ATOM      3  C   UNL     1      47.855   2.810  16.870  0.00  0.00    +0.000 A 
ATOM      4  C   UNL     1      47.647   3.788  15.898  0.00  0.00    +0.000 A 
ATOM      5  C   UNL     1      47.939   5.120  16.195  0.00  0.00    +0.000 A 
ATOM      6  C   UNL     1      48.383   5.484  17.471  0.00  0.00    +0.000 A 
ENDROOT
BRANCH   1   7
ATOM      7  C   UNL     1      48.966   4.901  19.862  0.00  0.00    +0.000 C 
BRANCH   7   8
ATOM      8  N   UNL     1      48.487   3.947  20.856  0.00  0.00    +0.000 NA
ATOM      9  H   UNL     1      48.849   4.211  21.770  0.00  0.00    +0.000 HD
ATOM     10  H   UNL     1      48.878   3.032  20.643  0.00  0.00    +0.000 HD
ENDBRANCH   7   8
ENDBRANCH   1   7
BRANCH   4  11
ATOM     11  O   UNL     1      47.209   3.551  14.623  0.00  0.00    +0.000 OA
BRANCH  11  12
ATOM     12  C   UNL     1      46.850   4.720  13.876  0.00  0.00    +0.000 C 
BRANCH  12  13
ATOM     13  C   UNL     1      45.508   4.519  13.204  0.00  0.00    +0.000 A 
ATOM     14  N   UNL     1      45.304   3.346  12.561  0.00  0.00    +0.000 NA
ATOM     15  C   UNL     1      44.099   3.174  11.989  0.00  0.00    +0.000 A 
ATOM     16  C   UNL     1      43.094   4.108  12.041  0.00  0.00    +0.000 A 
ATOM     17  C   UNL     1      43.395   5.265  12.720  0.00  0.00    +0.000 A 
ATOM     18  N   UNL     1      44.583   5.496  13.311  0.00  0.00    +0.000 NA
ENDBRANCH  12  13
ENDBRANCH  11  12
ENDBRANCH   4  11
TORSDOF 5
ENDMDL
MODEL 5
REMARK VINA RESULT:    -5.016      3.805      5.629
REMARK INTER + INTRA:          -6.706
REMARK INTER:                  -6.487
REMARK INTRA:                  -0.220
REMARK UNBOUND:                -0.371
REMARK  Name = 
REMARK  5 active torsions:
REMARK  status: ('A' for Active; 'I' for Inactive)
REMARK    1  A    between atoms: N_1  and  C_2
REMARK    2  A    between atoms: C_2  and  C_3
REMARK    3  A    between atoms: C_6  and  O_7
REMARK    4  A    between atoms: O_7  and  C_8
REMARK    5  A    between atoms: C_8  and  C_9
REMARK                            x       y       z     vdW  Elec       q    Type
REMARK                         _______ _______ _______ _____ _____    ______ ____
ROOT
ATOM      1  C   UNL     1      45.025   4.559  11.586  0.00  0.00    +0.000 A 
ATOM      2  C   UNL     1      45.534   3.634  12.508  0.00  0.00    +0.000 A 
ATOM      3  C   UNL     1      46.627   3.954  13.319  0.00  0.00    +0.000 A 
ATOM      4  C   UNL     1      47.231   5.207  13.216  0.00  0.00    +0.000 A 
ATOM      5  C   UNL     1      46.702   6.150  12.333  0.00  0.00    +0.000 A 
ATOM      6  C   UNL     1      45.613   5.828  11.517  0.00  0.00    +0.000 A 
ENDROOT
BRANCH   1   7
ATOM      7  C   UNL     1      43.897   4.177  10.662  0.00  0.00    +0.000 C 
BRANCH   7   8
ATOM      8  N   UNL     1      42.797   3.542  11.378  0.00  0.00    +0.000 NA
ATOM      9  H   UNL     1      42.941   2.534  11.379  0.00  0.00    +0.000 HD
ATOM     10  H   UNL     1      41.935   3.710  10.866  0.00  0.00    +0.000 HD
ENDBRANCH   7   8
ENDBRANCH   1   7
BRANCH   4  11
ATOM     11  O   UNL     1      48.303   5.628  13.955  0.00  0.00    +0.000 OA
BRANCH  11  12
ATOM     12  C   UNL     1      47.988   6.103  15.269  0.00  0.00    +0.000 C 
BRANCH  12  13
ATOM     13  C   UNL     1      48.233   5.013  16.292  0.00  0.00    +0.000 A 
ATOM     14  N   UNL     1      49.501   4.853  16.738  0.00  0.00    +0.000 NA
ATOM     15  C   UNL     1      49.699   3.897  17.662  0.00  0.00    +0.000 A 
ATOM     16  C   UNL     1      48.694   3.108  18.165  0.00  0.00    +0.000 A 
ATOM     17  C   UNL     1      47.441   3.348  17.654  0.00  0.00    +0.000 A 
ATOM     18  N   UNL     1      47.180   4.289  16.726  0.00  0.00    +0.000 NA
ENDBRANCH  12  13
ENDBRANCH  11  12
ENDBRANCH   4  11
TORSDOF 5
ENDMDL
MODEL 6
REMARK VINA RESULT:    -4.995      5.098      8.229
REMARK INTER + INTRA:          -6.680
REMARK INTER:                  -6.390
REMARK INTRA:                  -0.290
REMARK UNBOUND:                -0.371
REMARK  Name = 
REMARK  5 active torsions:
REMARK  status: ('A' for Active; 'I' for Inactive)
REMARK    1  A    between atoms: N_1  and  C_2
REMARK    2  A    between atoms: C_2  and  C_3
REMARK    3  A    between atoms: C_6  and  O_7
REMARK    4  A    between atoms: O_7  and  C_8
REMARK    5  A    between atoms: C_8  and  C_9
REMARK                            x       y       z     vdW  Elec       q    Type
REMARK                         _______ _______ _______ _____ _____    ______ ____
ROOT
ATOM      1  C   UNL     1      51.524   2.503  17.683  0.00  0.00    +0.000 A 
ATOM      2  C   UNL     1      51.595   3.896  17.822  0.00  0.00    +0.000 A 
ATOM      3  C   UNL     1      50.486   4.702  17.547  0.00  0.00    +0.000 A 
ATOM      4  C   UNL     1      49.290   4.125  17.121  0.00  0.00    +0.000 A 
ATOM      5  C   UNL     1      49.198   2.736  17.023  0.00  0.00    +0.000 A 
ATOM      6  C   UNL     1      50.308   1.929  17.293  0.00  0.00    +0.000 A 
ENDROOT
BRANCH   1   7
ATOM      7  C   UNL     1      52.746   1.649  17.907  0.00  0.00    +0.000 C 
BRANCH   7   8
ATOM      8  N   UNL     1      52.397   0.272  18.236  0.00  0.00    +0.000 NA
ATOM      9  H   UNL     1      51.408   0.229  18.473  0.00  0.00    +0.000 HD
ATOM     10  H   UNL     1      52.907  -0.003  19.072  0.00  0.00    +0.000 HD
ENDBRANCH   7   8
ENDBRANCH   1   7
BRANCH   4  11
ATOM     11  O   UNL     1      48.145   4.814  16.822  0.00  0.00    +0.000 OA
BRANCH  11  12
ATOM     12  C   UNL     1      47.177   4.083  16.060  0.00  0.00    +0.000 C 
BRANCH  12  13
ATOM     13  C   UNL     1      46.981   4.731  14.705  0.00  0.00    +0.000 A 
ATOM     14  N   UNL     1      45.857   4.414  14.022  0.00  0.00    +0.000 NA
ATOM     15  C   UNL     1      45.686   5.014  12.831  0.00  0.00    +0.000 A 
ATOM     16  C   UNL     1      46.575   5.917  12.301  0.00  0.00    +0.000 A 
ATOM     17  C   UNL     1      47.683   6.178  13.072  0.00  0.00    +0.000 A 
ATOM     18  N   UNL     1      47.911   5.607  14.270  0.00  0.00    +0.000 NA
ENDBRANCH  12  13
ENDBRANCH  11  12
ENDBRANCH   4  11
TORSDOF 5
ENDMDL
MODEL 7
REMARK VINA RESULT:    -4.913      3.009      6.275
REMARK INTER + INTRA:          -6.576
REMARK INTER:                  -6.278
REMARK INTRA:                  -0.298
REMARK UNBOUND:                -0.371
REMARK  Name = 
REMARK  5 active torsions:
REMARK  status: ('A' for Active; 'I' for Inactive)
REMARK    1  A    between atoms: N_1  and  C_2
REMARK    2  A    between atoms: C_2  and  C_3
REMARK    3  A    between atoms: C_6  and  O_7
REMARK    4  A    between atoms: O_7  and  C_8
REMARK    5  A    between atoms: C_8  and  C_9
REMARK                            x       y       z     vdW  Elec       q    Type
REMARK                         _______ _______ _______ _____ _____    ______ ____
ROOT
ATOM      1  C   UNL     1      48.943   7.052  13.881  0.00  0.00    +0.000 A 
ATOM      2  C   UNL     1      47.881   6.165  14.106  0.00  0.00    +0.000 A 
ATOM      3  C   UNL     1      46.890   5.972  13.139  0.00  0.00    +0.000 A 
ATOM      4  C   UNL     1      46.945   6.668  11.933  0.00  0.00    +0.000 A 
ATOM      5  C   UNL     1      48.023   7.519  11.682  0.00  0.00    +0.000 A 
ATOM      6  C   UNL     1      49.012   7.717  12.651  0.00  0.00    +0.000 A 
ENDROOT
BRANCH   1   7
ATOM      7  C   UNL     1      49.964   7.312  14.959  0.00  0.00    +0.000 C 
BRANCH   7   8
ATOM      8  N   UNL     1      51.279   7.611  14.405  0.00  0.00    +0.000 NA
ATOM      9  H   UNL     1      51.993   7.290  15.056  0.00  0.00    +0.000 HD
ATOM     10  H   UNL     1      51.382   8.621  14.338  0.00  0.00    +0.000 HD
ENDBRANCH   7   8
ENDBRANCH   1   7
BRANCH   4  11
ATOM     11  O   UNL     1      46.032   6.560  10.918  0.00  0.00    +0.000 OA
BRANCH  11  12
ATOM     12  C   UNL     1      45.042   5.539  11.096  0.00  0.00    +0.000 C 
BRANCH  12  13
ATOM     13  C   UNL     1      45.160   4.500  10.001  0.00  0.00    +0.000 A 
ATOM     14  N   UNL     1      44.647   3.272  10.251  0.00  0.00    +0.000 NA
ATOM     15  C   UNL     1      44.739   2.367   9.262  0.00  0.00    +0.000 A 
ATOM     16  C   UNL     1      45.304   2.634   8.039  0.00  0.00    +0.000 A 
ATOM     17  C   UNL     1      45.792   3.910   7.878  0.00  0.00    +0.000 A 
ATOM     18  N   UNL     1      45.731   4.858   8.832  0.00  0.00    +0.000 NA
ENDBRANCH  12  13
ENDBRANCH  11  12
ENDBRANCH   4  11
TORSDOF 5
ENDMDL
MODEL 8
REMARK VINA RESULT:    -4.903      3.559      5.148
REMARK INTER + INTRA:          -6.563
REMARK INTER:                  -6.280
REMARK INTRA:                  -0.284
REMARK UNBOUND:                -0.371
REMARK  Name = 
REMARK  5 active torsions:
REMARK  status: ('A' for Active; 'I' for Inactive)
REMARK    1  A    between atoms: N_1  and  C_2
REMARK    2  A    between atoms: C_2  and  C_3
REMARK    3  A    between atoms: C_6  and  O_7
REMARK    4  A    between atoms: O_7  and  C_8
REMARK    5  A    between atoms: C_8  and  C_9
REMARK                            x       y       z     vdW  Elec       q    Type
REMARK                         _______ _______ _______ _____ _____    ______ ____
ROOT
ATOM      1  C   UNL     1      44.779   4.010  11.300  0.00  0.00    +0.000 A 
ATOM      2  C   UNL     1      45.191   5.125  10.557  0.00  0.00    +0.000 A 
ATOM      3  C   UNL     1      45.919   6.159  11.156  0.00  0.00    +0.000 A 
ATOM      4  C   UNL     1      46.241   6.092  12.511  0.00  0.00    +0.000 A 
ATOM      5  C   UNL     1      45.873   4.964  13.247  0.00  0.00    +0.000 A 
ATOM      6  C   UNL     1      45.141   3.933  12.650  0.00  0.00    +0.000 A 
ENDROOT
BRANCH   1   7
ATOM      7  C   UNL     1      43.929   2.940  10.664  0.00  0.00    +0.000 C 
BRANCH   7   8
ATOM      8  N   UNL     1      43.062   2.283  11.635  0.00  0.00    +0.000 NA
ATOM      9  H   UNL     1      42.380   1.714  11.138  0.00  0.00    +0.000 HD
ATOM     10  H   UNL     1      42.535   2.995  12.135  0.00  0.00    +0.000 HD
ENDBRANCH   7   8
ENDBRANCH   1   7
BRANCH   4  11
ATOM     11  O   UNL     1      46.944   7.042  13.201  0.00  0.00    +0.000 OA
BRANCH  11  12
ATOM     12  C   UNL     1      48.305   6.700  13.491  0.00  0.00    +0.000 C 
BRANCH  12  13
ATOM     13  C   UNL     1      48.541   6.719  14.987  0.00  0.00    +0.000 A 
ATOM     14  N   UNL     1      48.600   5.525  15.622  0.00  0.00    +0.000 NA
ATOM     15  C   UNL     1      48.833   5.556  16.946  0.00  0.00    +0.000 A 
ATOM     16  C   UNL     1      49.019   6.717  17.656  0.00  0.00    +0.000 A 
ATOM     17  C   UNL     1      48.947   7.878  16.922  0.00  0.00    +0.000 A 
ATOM     18  N   UNL     1      48.714   7.910  15.596  0.00  0.00    +0.000 NA
ENDBRANCH  12  13
ENDBRANCH  11  12
ENDBRANCH   4  11
TORSDOF 5
ENDMDL
MODEL 9
REMARK VINA RESULT:    -4.884      4.874      6.237
REMARK INTER + INTRA:          -6.540
REMARK INTER:                  -6.242
REMARK INTRA:                  -0.297
REMARK UNBOUND:                -0.371
REMARK  Name = 
REMARK  5 active torsions:
REMARK  status: ('A' for Active; 'I' for Inactive)
REMARK    1  A    between atoms: N_1  and  C_2
REMARK    2  A    between atoms: C_2  and  C_3
REMARK    3  A    between atoms: C_6  and  O_7
REMARK    4  A    between atoms: O_7  and  C_8
REMARK    5  A    between atoms: C_8  and  C_9
REMARK                            x       y       z     vdW  Elec       q    Type
REMARK                         _______ _______ _______ _____ _____    ______ ____
ROOT
ATOM      1  C   UNL     1      45.284   8.315  11.877  0.00  0.00    +0.000 A 
ATOM      2  C   UNL     1      46.319   8.677  12.750  0.00  0.00    +0.000 A 
ATOM      3  C   UNL     1      47.129   7.705  13.347  0.00  0.00    +0.000 A 
ATOM      4  C   UNL     1      46.909   6.354  13.081  0.00  0.00    +0.000 A 
ATOM      5  C   UNL     1      45.910   5.988  12.178  0.00  0.00    +0.000 A 
ATOM      6  C   UNL     1      45.096   6.959  11.586  0.00  0.00    +0.000 A 
ENDROOT
BRANCH   1   7
ATOM      7  C   UNL     1      44.368   9.364  11.301  0.00  0.00    +0.000 C 
BRANCH   7   8
ATOM      8  N   UNL     1      43.133   8.786  10.783  0.00  0.00    +0.000 NA
ATOM      9  H   UNL     1      42.347   9.157  11.312  0.00  0.00    +0.000 HD
ATOM     10  H   UNL     1      43.148   7.783  10.951  0.00  0.00    +0.000 HD
ENDBRANCH   7   8
ENDBRANCH   1   7
BRANCH   4  11
ATOM     11  O   UNL     1      47.636   5.320  13.608  0.00  0.00    +0.000 OA
BRANCH  11  12
ATOM     12  C   UNL     1      46.894   4.415  14.435  0.00  0.00    +0.000 C 
BRANCH  12  13
ATOM     13  C   UNL     1      47.564   4.273  15.786  0.00  0.00    +0.000 A 
ATOM     14  N   UNL     1      48.515   5.181  16.106  0.00  0.00    +0.000 NA
ATOM     15  C   UNL     1      49.084   5.056  17.318  0.00  0.00    +0.000 A 
ATOM     16  C   UNL     1      48.740   4.080  18.221  0.00  0.00    +0.000 A 
ATOM     17  C   UNL     1      47.761   3.208  17.806  0.00  0.00    +0.000 A 
ATOM     18  N   UNL     1      47.156   3.281  16.605  0.00  0.00    +0.000 NA
ENDBRANCH  12  13
ENDBRANCH  11  12
ENDBRANCH   4  11
TORSDOF 5
ENDMDL
