MODEL 1
REMARK VINA RESULT:    -8.674      0.000      0.000
REMARK INTER + INTRA:         -13.000
REMARK INTER:                 -11.969
REMARK INTRA:                  -1.031
REMARK UNBOUND:                -1.031
REMARK  Name = 
REMARK  7 active torsions:
REMARK  status: ('A' for Active; 'I' for Inactive)
REMARK    1  A    between atoms: C_2  and  C_3
REMARK    2  A    between atoms: C_6  and  N_7
REMARK    3  A    between atoms: N_7  and  C_8
REMARK    4  A    between atoms: C_8  and  C_9
REMARK    5  A    between atoms: C_9  and  C_12
REMARK    6  A    between atoms: C_14  and  C_15
REMARK    7  A    between atoms: C_18  and  O_19
REMARK                            x       y       z     vdW  Elec       q    Type
REMARK                         _______ _______ _______ _____ _____    ______ ____
ROOT
ATOM      1  C   UNL     1      44.935   5.084  12.838  0.00  0.00    +0.000 A 
ATOM      2  C   UNL     1      45.617   4.689  13.989  0.00  0.00    +0.000 A 
ATOM      3  C   UNL     1      46.925   5.138  14.229  0.00  0.00    +0.000 A 
ATOM      4  C   UNL     1      47.492   5.987  13.269  0.00  0.00    +0.000 A 
ATOM      5  C   UNL     1      46.758   6.335  12.149  0.00  0.00    +0.000 A 
ATOM      6  N   UNL     1      45.503   5.906  11.915  0.00  0.00    +0.000 NA
ENDROOT
BRANCH   3   7
ATOM      7  C   UNL     1      47.671   4.732  15.440  0.00  0.00    +0.000 A 
ATOM      8  C   UNL     1      47.594   3.419  15.948  0.00  0.00    +0.000 A 
ATOM      9  C   UNL     1      48.297   3.029  17.091  0.00  0.00    +0.000 A 
ATOM     10  C   UNL     1      49.088   3.958  17.757  0.00  0.00    +0.000 A 
ATOM     11  C   UNL     1      49.178   5.259  17.277  0.00  0.00    +0.000 A 
ATOM     12  F   UNL     1      49.937   6.168  17.908  0.00  0.00    +0.000 F 
ATOM     13  C   UNL     1      48.486   5.644  16.133  0.00  0.00    +0.000 A 
BRANCH  10  14
ATOM     14  O   UNL     1      49.782   3.614  18.879  0.00  0.00    +0.000 OA
ATOM     15  H   UNL     1      50.649   4.049  18.862  0.00  0.00    +0.000 HD
ENDBRANCH  10  14
ENDBRANCH   3   7
BRANCH   1  16
ATOM     16  C   UNL     1      43.499   4.613  12.632  0.00  0.00    +0.000 C 
ATOM     17  F   UNL     1      42.651   5.662  12.404  0.00  0.00    +0.000 F 
ATOM     18  F   UNL     1      42.995   3.991  13.748  0.00  0.00    +0.000 F 
BRANCH  16  19
ATOM     19  C   UNL     1      43.408   3.617  11.455  0.00  0.00    +0.000 C 
BRANCH  19  20
ATOM     20  N   UNL     1      43.684   4.221  10.137  0.00  0.00    +0.000 N 
ATOM     21  H   UNL     1      42.906   4.723   9.712  0.00  0.00    +0.000 HD
BRANCH  20  25
ATOM     22  C   UNL     1      46.569   2.534   7.566  0.00  0.00    +0.000 A 
ATOM     23  C   UNL     1      45.822   1.704   8.401  0.00  0.00    +0.000 A 
ATOM     24  C   UNL     1      44.847   2.251   9.242  0.00  0.00    +0.000 A 
ATOM     25  C   UNL     1      44.575   3.625   9.253  0.00  0.00    +0.000 A 
ATOM     26  C   UNL     1      45.353   4.445   8.423  0.00  0.00    +0.000 A 
ATOM     27  C   UNL     1      46.339   3.910   7.585  0.00  0.00    +0.000 A 
BRANCH  22  29
ATOM     28  N   UNL     1      48.377   1.532   6.001  0.00  0.00    +0.000 NA
ATOM     29  C   UNL     1      47.561   1.976   6.700  0.00  0.00    +0.000 C 
ENDBRANCH  22  29
ENDBRANCH  20  25
ENDBRANCH  19  20
ENDBRANCH  16  19
ENDBRANCH   1  16
TORSDOF 7
ENDMDL
MODEL 2
REMARK VINA RESULT:    -8.581      0.899      1.574
REMARK INTER + INTRA:         -12.872
REMARK INTER:                 -11.851
REMARK INTRA:                  -1.021
REMARK UNBOUND:                -1.031
REMARK  Name = 
REMARK  7 active torsions:
REMARK  status: ('A' for Active; 'I' for Inactive)
REMARK    1  A    between atoms: C_2  and  C_3
REMARK    2  A    between atoms: C_6  and  N_7
REMARK    3  A    between atoms: N_7  and  C_8
REMARK    4  A    between atoms: C_8  and  C_9
REMARK    5  A    between atoms: C_9  and  C_12
REMARK    6  A    between atoms: C_14  and  C_15
REMARK    7  A    between atoms: C_18  and  O_19
REMARK                            x       y       z     vdW  Elec       q    Type
REMARK                         _______ _______ _______ _____ _____    ______ ____
ROOT
ATOM      1  C   UNL     1      45.033   5.042  12.790  0.00  0.00    +0.000 A 
ATOM      2  C   UNL     1      45.667   4.737  13.995  0.00  0.00    +0.000 A 
ATOM      3  C   UNL     1      46.955   5.225  14.263  0.00  0.00    +0.000 A 
ATOM      4  C   UNL     1      47.552   6.020  13.275  0.00  0.00    +0.000 A 
ATOM      5  C   UNL     1      46.867   6.280  12.102  0.00  0.00    +0.000 A 
ATOM      6  N   UNL     1      45.631   5.813  11.841  0.00  0.00    +0.000 NA
ENDROOT
BRANCH   3   7
ATOM      7  C   UNL     1      47.651   4.915  15.531  0.00  0.00    +0.000 A 
ATOM      8  C   UNL     1      48.694   5.729  16.017  0.00  0.00    +0.000 A 
ATOM      9  C   UNL     1      49.354   5.442  17.216  0.00  0.00    +0.000 A 
ATOM     10  C   UNL     1      48.985   4.319  17.948  0.00  0.00    +0.000 A 
ATOM     11  C   UNL     1      47.961   3.500  17.487  0.00  0.00    +0.000 A 
ATOM     12  F   UNL     1      47.594   2.412  18.180  0.00  0.00    +0.000 F 
ATOM     13  C   UNL     1      47.297   3.792  16.299  0.00  0.00    +0.000 A 
BRANCH  10  14
ATOM     14  O   UNL     1      49.612   4.005  19.116  0.00  0.00    +0.000 OA
ATOM     15  H   UNL     1      50.250   3.293  18.953  0.00  0.00    +0.000 HD
ENDBRANCH  10  14
ENDBRANCH   3   7
BRANCH   1  16
ATOM     16  C   UNL     1      43.616   4.532  12.551  0.00  0.00    +0.000 C 
ATOM     17  F   UNL     1      42.781   5.533  12.136  0.00  0.00    +0.000 F 
ATOM     18  F   UNL     1      43.041   4.050  13.701  0.00  0.00    +0.000 F 
BRANCH  16  19
ATOM     19  C   UNL     1      43.608   3.393  11.506  0.00  0.00    +0.000 C 
BRANCH  19  20
ATOM     20  N   UNL     1      43.682   3.863  10.110  0.00  0.00    +0.000 N 
ATOM     21  H   UNL     1      42.787   4.038   9.656  0.00  0.00    +0.000 HD
BRANCH  20  25
ATOM     22  C   UNL     1      46.643   2.478   7.446  0.00  0.00    +0.000 A 
ATOM     23  C   UNL     1      46.351   3.839   7.502  0.00  0.00    +0.000 A 
ATOM     24  C   UNL     1      45.386   4.313   8.398  0.00  0.00    +0.000 A 
ATOM     25  C   UNL     1      44.712   3.451   9.273  0.00  0.00    +0.000 A 
ATOM     26  C   UNL     1      45.004   2.082   9.185  0.00  0.00    +0.000 A 
ATOM     27  C   UNL     1      45.960   1.596   8.285  0.00  0.00    +0.000 A 
BRANCH  22  29
ATOM     28  N   UNL     1      48.450   1.600   5.807  0.00  0.00    +0.000 NA
ATOM     29  C   UNL     1      47.635   1.992   6.536  0.00  0.00    +0.000 C 
ENDBRANCH  22  29
ENDBRANCH  20  25
ENDBRANCH  19  20
ENDBRANCH  16  19
ENDBRANCH   1  16
TORSDOF 7
ENDMDL
MODEL 3
REMARK VINA RESULT:    -8.540      3.106      4.425
REMARK INTER + INTRA:         -12.816
REMARK INTER:                 -11.846
REMARK INTRA:                  -0.970
REMARK UNBOUND:                -1.031
REMARK  Name = 
REMARK  7 active torsions:
REMARK  status: ('A' for Active; 'I' for Inactive)
REMARK    1  A    between atoms: C_2  and  C_3
REMARK    2  A    between atoms: C_6  and  N_7
REMARK    3  A    between atoms: N_7  and  C_8
REMARK    4  A    between atoms: C_8  and  C_9
REMARK    5  A    between atoms: C_9  and  C_12
REMARK    6  A    between atoms: C_14  and  C_15
REMARK    7  A    between atoms: C_18  and  O_19
REMARK                            x       y       z     vdW  Elec       q    Type
REMARK                         _______ _______ _______ _____ _____    ______ ____
ROOT
ATOM      1  C   UNL     1      44.830   5.155  12.894  0.00  0.00    +0.000 A 
ATOM      2  C   UNL     1      45.390   6.358  12.462  0.00  0.00    +0.000 A 
ATOM      3  C   UNL     1      46.737   6.650  12.731  0.00  0.00    +0.000 A 
ATOM      4  C   UNL     1      47.468   5.686  13.438  0.00  0.00    +0.000 A 
ATOM      5  C   UNL     1      46.846   4.517  13.837  0.00  0.00    +0.000 A 
ATOM      6  N   UNL     1      45.555   4.233  13.582  0.00  0.00    +0.000 NA
ENDROOT
BRANCH   3   7
ATOM      7  C   UNL     1      47.355   7.918  12.287  0.00  0.00    +0.000 A 
ATOM      8  C   UNL     1      46.620   9.121  12.245  0.00  0.00    +0.000 A 
ATOM      9  C   UNL     1      47.199  10.323  11.828  0.00  0.00    +0.000 A 
ATOM     10  C   UNL     1      48.532  10.340  11.432  0.00  0.00    +0.000 A 
ATOM     11  C   UNL     1      49.276   9.166  11.463  0.00  0.00    +0.000 A 
ATOM     12  F   UNL     1      50.562   9.164  11.084  0.00  0.00    +0.000 F 
ATOM     13  C   UNL     1      48.702   7.971  11.888  0.00  0.00    +0.000 A 
BRANCH  10  14
ATOM     14  O   UNL     1      49.126  11.492  11.013  0.00  0.00    +0.000 OA
ATOM     15  H   UNL     1      48.863  11.670  10.097  0.00  0.00    +0.000 HD
ENDBRANCH  10  14
ENDBRANCH   3   7
BRANCH   1  16
ATOM     16  C   UNL     1      43.376   4.851  12.545  0.00  0.00    +0.000 C 
ATOM     17  F   UNL     1      42.701   5.978  12.165  0.00  0.00    +0.000 F 
ATOM     18  F   UNL     1      42.677   4.370  13.624  0.00  0.00    +0.000 F 
BRANCH  16  19
ATOM     19  C   UNL     1      43.288   3.797  11.418  0.00  0.00    +0.000 C 
BRANCH  19  20
ATOM     20  N   UNL     1      43.591   4.330  10.076  0.00  0.00    +0.000 N 
ATOM     21  H   UNL     1      42.792   4.685   9.553  0.00  0.00    +0.000 HD
BRANCH  20  25
ATOM     22  C   UNL     1      46.557   2.593   7.633  0.00  0.00    +0.000 A 
ATOM     23  C   UNL     1      46.398   3.978   7.643  0.00  0.00    +0.000 A 
ATOM     24  C   UNL     1      45.432   4.567   8.467  0.00  0.00    +0.000 A 
ATOM     25  C   UNL     1      44.625   3.798   9.314  0.00  0.00    +0.000 A 
ATOM     26  C   UNL     1      44.783   2.405   9.272  0.00  0.00    +0.000 A 
ATOM     27  C   UNL     1      45.739   1.804   8.444  0.00  0.00    +0.000 A 
BRANCH  22  29
ATOM     28  N   UNL     1      48.348   1.487   6.120  0.00  0.00    +0.000 NA
ATOM     29  C   UNL     1      47.549   1.989   6.797  0.00  0.00    +0.000 C 
ENDBRANCH  22  29
ENDBRANCH  20  25
ENDBRANCH  19  20
ENDBRANCH  16  19
ENDBRANCH   1  16
TORSDOF 7
ENDMDL
MODEL 4
REMARK VINA RESULT:    -8.438      2.666      3.288
REMARK INTER + INTRA:         -12.674
REMARK INTER:                 -11.485
REMARK INTRA:                  -1.189
REMARK UNBOUND:                -1.031
REMARK  Name = 
REMARK  7 active torsions:
REMARK  status: ('A' for Active; 'I' for Inactive)
REMARK    1  A    between atoms: C_2  and  C_3
REMARK    2  A    between atoms: C_6  and  N_7
REMARK    3  A    between atoms: N_7  and  C_8
REMARK    4  A    between atoms: C_8  and  C_9
REMARK    5  A    between atoms: C_9  and  C_12
REMARK    6  A    between atoms: C_14  and  C_15
REMARK    7  A    between atoms: C_18  and  O_19
REMARK                            x       y       z     vdW  Elec       q    Type
REMARK                         _______ _______ _______ _____ _____    ______ ____
ROOT
ATOM      1  C   UNL     1      44.663   5.234  12.194  0.00  0.00    +0.000 A 
ATOM      2  C   UNL     1      45.999   5.556  12.439  0.00  0.00    +0.000 A 
ATOM      3  C   UNL     1      46.465   6.861  12.218  0.00  0.00    +0.000 A 
ATOM      4  C   UNL     1      45.535   7.799  11.750  0.00  0.00    +0.000 A 
ATOM      5  C   UNL     1      44.227   7.408  11.526  0.00  0.00    +0.000 A 
ATOM      6  N   UNL     1      43.775   6.156  11.736  0.00  0.00    +0.000 NA
ENDROOT
BRANCH   3   7
ATOM      7  C   UNL     1      47.876   7.230  12.468  0.00  0.00    +0.000 A 
ATOM      8  C   UNL     1      48.667   7.835  11.469  0.00  0.00    +0.000 A 
ATOM      9  C   UNL     1      50.000   8.187  11.700  0.00  0.00    +0.000 A 
ATOM     10  C   UNL     1      50.572   7.926  12.940  0.00  0.00    +0.000 A 
ATOM     11  C   UNL     1      49.813   7.328  13.938  0.00  0.00    +0.000 A 
ATOM     12  F   UNL     1      50.350   7.069  15.140  0.00  0.00    +0.000 F 
ATOM     13  C   UNL     1      48.483   6.987  13.712  0.00  0.00    +0.000 A 
BRANCH  10  14
ATOM     14  O   UNL     1      51.871   8.249  13.195  0.00  0.00    +0.000 OA
ATOM     15  H   UNL     1      52.422   7.458  13.089  0.00  0.00    +0.000 HD
ENDBRANCH  10  14
ENDBRANCH   3   7
BRANCH   1  16
ATOM     16  C   UNL     1      44.180   3.817  12.489  0.00  0.00    +0.000 C 
ATOM     17  F   UNL     1      43.428   3.766  13.630  0.00  0.00    +0.000 F 
ATOM     18  F   UNL     1      45.223   2.953  12.717  0.00  0.00    +0.000 F 
BRANCH  16  19
ATOM     19  C   UNL     1      43.356   3.258  11.307  0.00  0.00    +0.000 C 
BRANCH  19  20
ATOM     20  N   UNL     1      43.631   3.923  10.019  0.00  0.00    +0.000 N 
ATOM     21  H   UNL     1      42.842   4.412   9.600  0.00  0.00    +0.000 HD
BRANCH  20  25
ATOM     22  C   UNL     1      46.617   2.455   7.428  0.00  0.00    +0.000 A 
ATOM     23  C   UNL     1      45.930   1.570   8.259  0.00  0.00    +0.000 A 
ATOM     24  C   UNL     1      44.923   2.043   9.106  0.00  0.00    +0.000 A 
ATOM     25  C   UNL     1      44.558   3.396   9.128  0.00  0.00    +0.000 A 
ATOM     26  C   UNL     1      45.276   4.273   8.302  0.00  0.00    +0.000 A 
ATOM     27  C   UNL     1      46.293   3.813   7.458  0.00  0.00    +0.000 A 
BRANCH  22  29
ATOM     28  N   UNL     1      48.486   1.584   5.856  0.00  0.00    +0.000 NA
ATOM     29  C   UNL     1      47.643   1.972   6.556  0.00  0.00    +0.000 C 
ENDBRANCH  22  29
ENDBRANCH  20  25
ENDBRANCH  19  20
ENDBRANCH  16  19
ENDBRANCH   1  16
TORSDOF 7
ENDMDL
MODEL 5
REMARK VINA RESULT:    -8.088      4.152      7.664
REMARK INTER + INTRA:         -12.192
REMARK INTER:                 -11.128
REMARK INTRA:                  -1.064
REMARK UNBOUND:                -1.031
REMARK  Name = 
REMARK  7 active torsions:
REMARK  status: ('A' for Active; 'I' for Inactive)
REMARK    1  A    between atoms: C_2  and  C_3
REMARK    2  A    between atoms: C_6  and  N_7
REMARK    3  A    between atoms: N_7  and  C_8
REMARK    4  A    between atoms: C_8  and  C_9
REMARK    5  A    between atoms: C_9  and  C_12
REMARK    6  A    between atoms: C_14  and  C_15
REMARK    7  A    between atoms: C_18  and  O_19
REMARK                            x       y       z     vdW  Elec       q    Type
REMARK                         _______ _______ _______ _____ _____    ______ ____
ROOT
ATOM      1  C   UNL     1      44.071   5.099  11.110  0.00  0.00    +0.000 A 
ATOM      2  C   UNL     1      44.906   4.696  10.067  0.00  0.00    +0.000 A 
ATOM      3  C   UNL     1      44.943   3.350   9.668  0.00  0.00    +0.000 A 
ATOM      4  C   UNL     1      44.112   2.459  10.359  0.00  0.00    +0.000 A 
ATOM      5  C   UNL     1      43.312   2.929  11.386  0.00  0.00    +0.000 A 
ATOM      6  N   UNL     1      43.274   4.219  11.772  0.00  0.00    +0.000 NA
ENDROOT
BRANCH   3   7
ATOM      7  C   UNL     1      45.820   2.895   8.567  0.00  0.00    +0.000 A 
ATOM      8  C   UNL     1      46.432   3.810   7.686  0.00  0.00    +0.000 A 
ATOM      9  C   UNL     1      47.262   3.386   6.645  0.00  0.00    +0.000 A 
ATOM     10  C   UNL     1      47.488   2.027   6.460  0.00  0.00    +0.000 A 
ATOM     11  C   UNL     1      46.894   1.106   7.314  0.00  0.00    +0.000 A 
ATOM     12  F   UNL     1      47.100  -0.209   7.149  0.00  0.00    +0.000 F 
ATOM     13  C   UNL     1      46.075   1.529   8.357  0.00  0.00    +0.000 A 
BRANCH  10  14
ATOM     14  O   UNL     1      48.286   1.579   5.451  0.00  0.00    +0.000 OA
ATOM     15  H   UNL     1      47.731   1.215   4.744  0.00  0.00    +0.000 HD
ENDBRANCH  10  14
ENDBRANCH   3   7
BRANCH   1  16
ATOM     16  C   UNL     1      44.023   6.577  11.487  0.00  0.00    +0.000 C 
ATOM     17  F   UNL     1      42.748   7.068  11.441  0.00  0.00    +0.000 F 
ATOM     18  F   UNL     1      44.732   7.357  10.607  0.00  0.00    +0.000 F 
BRANCH  16  19
ATOM     19  C   UNL     1      44.610   6.806  12.898  0.00  0.00    +0.000 C 
BRANCH  19  20
ATOM     20  N   UNL     1      45.859   6.064  13.153  0.00  0.00    +0.000 N 
ATOM     21  H   UNL     1      45.805   5.346  13.874  0.00  0.00    +0.000 HD
BRANCH  20  25
ATOM     22  C   UNL     1      49.719   7.716  12.761  0.00  0.00    +0.000 A 
ATOM     23  C   UNL     1      48.872   7.676  11.654  0.00  0.00    +0.000 A 
ATOM     24  C   UNL     1      47.581   7.151  11.779  0.00  0.00    +0.000 A 
ATOM     25  C   UNL     1      47.097   6.680  13.006  0.00  0.00    +0.000 A 
ATOM     26  C   UNL     1      47.972   6.707  14.101  0.00  0.00    +0.000 A 
ATOM     27  C   UNL     1      49.269   7.221  13.986  0.00  0.00    +0.000 A 
BRANCH  22  29
ATOM     28  N   UNL     1      52.112   8.692  12.545  0.00  0.00    +0.000 NA
ATOM     29  C   UNL     1      51.037   8.260  12.637  0.00  0.00    +0.000 C 
ENDBRANCH  22  29
ENDBRANCH  20  25
ENDBRANCH  19  20
ENDBRANCH  16  19
ENDBRANCH   1  16
TORSDOF 7
ENDMDL
MODEL 6
REMARK VINA RESULT:    -7.480      3.791      8.342
REMARK INTER + INTRA:         -11.353
REMARK INTER:                 -10.616
REMARK INTRA:                  -0.737
REMARK UNBOUND:                -1.031
REMARK  Name = 
REMARK  7 active torsions:
REMARK  status: ('A' for Active; 'I' for Inactive)
REMARK    1  A    between atoms: C_2  and  C_3
REMARK    2  A    between atoms: C_6  and  N_7
REMARK    3  A    between atoms: N_7  and  C_8
REMARK    4  A    between atoms: C_8  and  C_9
REMARK    5  A    between atoms: C_9  and  C_12
REMARK    6  A    between atoms: C_14  and  C_15
REMARK    7  A    between atoms: C_18  and  O_19
REMARK                            x       y       z     vdW  Elec       q    Type
REMARK                         _______ _______ _______ _____ _____    ______ ____
ROOT
ATOM      1  C   UNL     1      44.572   4.929  11.577  0.00  0.00    +0.000 A 
ATOM      2  C   UNL     1      45.346   4.548  10.481  0.00  0.00    +0.000 A 
ATOM      3  C   UNL     1      45.070   3.352   9.799  0.00  0.00    +0.000 A 
ATOM      4  C   UNL     1      43.997   2.584  10.272  0.00  0.00    +0.000 A 
ATOM      5  C   UNL     1      43.275   3.022  11.367  0.00  0.00    +0.000 A 
ATOM      6  N   UNL     1      43.537   4.169  12.024  0.00  0.00    +0.000 NA
ENDROOT
BRANCH   3   7
ATOM      7  C   UNL     1      45.876   2.922   8.636  0.00  0.00    +0.000 A 
ATOM      8  C   UNL     1      46.430   3.857   7.738  0.00  0.00    +0.000 A 
ATOM      9  C   UNL     1      47.193   3.458   6.637  0.00  0.00    +0.000 A 
ATOM     10  C   UNL     1      47.407   2.103   6.408  0.00  0.00    +0.000 A 
ATOM     11  C   UNL     1      46.868   1.163   7.278  0.00  0.00    +0.000 A 
ATOM     12  F   UNL     1      47.065  -0.148   7.071  0.00  0.00    +0.000 F 
ATOM     13  C   UNL     1      46.117   1.561   8.380  0.00  0.00    +0.000 A 
BRANCH  10  14
ATOM     14  O   UNL     1      48.140   1.678   5.341  0.00  0.00    +0.000 OA
ATOM     15  H   UNL     1      49.071   1.604   5.604  0.00  0.00    +0.000 HD
ENDBRANCH  10  14
ENDBRANCH   3   7
BRANCH   1  16
ATOM     16  C   UNL     1      44.872   6.257  12.265  0.00  0.00    +0.000 C 
ATOM     17  F   UNL     1      43.933   6.559  13.213  0.00  0.00    +0.000 F 
ATOM     18  F   UNL     1      44.836   7.313  11.388  0.00  0.00    +0.000 F 
BRANCH  16  19
ATOM     19  C   UNL     1      46.271   6.236  12.920  0.00  0.00    +0.000 C 
BRANCH  19  20
ATOM     20  N   UNL     1      46.576   4.984  13.640  0.00  0.00    +0.000 N 
ATOM     21  H   UNL     1      45.873   4.250  13.562  0.00  0.00    +0.000 HD
BRANCH  20  25
ATOM     22  C   UNL     1      48.679   5.251  17.285  0.00  0.00    +0.000 A 
ATOM     23  C   UNL     1      47.780   4.204  17.084  0.00  0.00    +0.000 A 
ATOM     24  C   UNL     1      47.093   4.094  15.870  0.00  0.00    +0.000 A 
ATOM     25  C   UNL     1      47.304   5.001  14.824  0.00  0.00    +0.000 A 
ATOM     26  C   UNL     1      48.194   6.060  15.054  0.00  0.00    +0.000 A 
ATOM     27  C   UNL     1      48.878   6.187  16.268  0.00  0.00    +0.000 A 
BRANCH  22  29
ATOM     28  N   UNL     1      49.951   5.450  19.535  0.00  0.00    +0.000 NA
ATOM     29  C   UNL     1      49.387   5.362  18.523  0.00  0.00    +0.000 C 
ENDBRANCH  22  29
ENDBRANCH  20  25
ENDBRANCH  19  20
ENDBRANCH  16  19
ENDBRANCH   1  16
TORSDOF 7
ENDMDL
MODEL 7
REMARK VINA RESULT:    -7.077      4.445      7.674
REMARK INTER + INTRA:         -10.797
REMARK INTER:                  -9.880
REMARK INTRA:                  -0.917
REMARK UNBOUND:                -1.031
REMARK  Name = 
REMARK  7 active torsions:
REMARK  status: ('A' for Active; 'I' for Inactive)
REMARK    1  A    between atoms: C_2  and  C_3
REMARK    2  A    between atoms: C_6  and  N_7
REMARK    3  A    between atoms: N_7  and  C_8
REMARK    4  A    between atoms: C_8  and  C_9
REMARK    5  A    between atoms: C_9  and  C_12
REMARK    6  A    between atoms: C_14  and  C_15
REMARK    7  A    between atoms: C_18  and  O_19
REMARK                            x       y       z     vdW  Elec       q    Type
REMARK                         _______ _______ _______ _____ _____    ______ ____
ROOT
ATOM      1  C   UNL     1      44.165   4.074  11.717  0.00  0.00    +0.000 A 
ATOM      2  C   UNL     1      44.982   3.900  10.600  0.00  0.00    +0.000 A 
ATOM      3  C   UNL     1      44.861   2.750   9.804  0.00  0.00    +0.000 A 
ATOM      4  C   UNL     1      43.895   1.811  10.188  0.00  0.00    +0.000 A 
ATOM      5  C   UNL     1      43.121   2.047  11.310  0.00  0.00    +0.000 A 
ATOM      6  N   UNL     1      43.234   3.149  12.076  0.00  0.00    +0.000 NA
ENDROOT
BRANCH   3   7
ATOM      7  C   UNL     1      45.716   2.539   8.616  0.00  0.00    +0.000 A 
ATOM      8  C   UNL     1      46.307   1.288   8.346  0.00  0.00    +0.000 A 
ATOM      9  C   UNL     1      47.115   1.082   7.224  0.00  0.00    +0.000 A 
ATOM     10  C   UNL     1      47.355   2.137   6.351  0.00  0.00    +0.000 A 
ATOM     11  C   UNL     1      46.785   3.380   6.598  0.00  0.00    +0.000 A 
ATOM     12  F   UNL     1      47.008   4.409   5.766  0.00  0.00    +0.000 F 
ATOM     13  C   UNL     1      45.973   3.582   7.709  0.00  0.00    +0.000 A 
BRANCH  10  14
ATOM     14  O   UNL     1      48.143   1.973   5.252  0.00  0.00    +0.000 OA
ATOM     15  H   UNL     1      49.073   1.962   5.527  0.00  0.00    +0.000 HD
ENDBRANCH  10  14
ENDBRANCH   3   7
BRANCH   1  16
ATOM     16  C   UNL     1      44.292   5.357  12.532  0.00  0.00    +0.000 C 
ATOM     17  F   UNL     1      45.280   5.262  13.474  0.00  0.00    +0.000 F 
ATOM     18  F   UNL     1      43.152   5.631  13.246  0.00  0.00    +0.000 F 
BRANCH  16  19
ATOM     19  C   UNL     1      44.576   6.568  11.615  0.00  0.00    +0.000 C 
BRANCH  19  20
ATOM     20  N   UNL     1      45.032   7.771  12.336  0.00  0.00    +0.000 N 
ATOM     21  H   UNL     1      44.319   8.478  12.508  0.00  0.00    +0.000 HD
BRANCH  20  25
ATOM     22  C   UNL     1      48.969   9.114  11.641  0.00  0.00    +0.000 A 
ATOM     23  C   UNL     1      47.954  10.044  11.864  0.00  0.00    +0.000 A 
ATOM     24  C   UNL     1      46.648   9.609  12.118  0.00  0.00    +0.000 A 
ATOM     25  C   UNL     1      46.329   8.246  12.182  0.00  0.00    +0.000 A 
ATOM     26  C   UNL     1      47.359   7.328  11.932  0.00  0.00    +0.000 A 
ATOM     27  C   UNL     1      48.667   7.752  11.666  0.00  0.00    +0.000 A 
BRANCH  22  29
ATOM     28  N   UNL     1      51.396   9.906  11.193  0.00  0.00    +0.000 NA
ATOM     29  C   UNL     1      50.305   9.557  11.389  0.00  0.00    +0.000 C 
ENDBRANCH  22  29
ENDBRANCH  20  25
ENDBRANCH  19  20
ENDBRANCH  16  19
ENDBRANCH   1  16
TORSDOF 7
ENDMDL
MODEL 8
REMARK VINA RESULT:    -6.855      4.093      7.597
REMARK INTER + INTRA:         -10.490
REMARK INTER:                  -9.252
REMARK INTRA:                  -1.239
REMARK UNBOUND:                -1.031
REMARK  Name = 
REMARK  7 active torsions:
REMARK  status: ('A' for Active; 'I' for Inactive)
REMARK    1  A    between atoms: C_2  and  C_3
REMARK    2  A    between atoms: C_6  and  N_7
REMARK    3  A    between atoms: N_7  and  C_8
REMARK    4  A    between atoms: C_8  and  C_9
REMARK    5  A    between atoms: C_9  and  C_12
REMARK    6  A    between atoms: C_14  and  C_15
REMARK    7  A    between atoms: C_18  and  O_19
REMARK                            x       y       z     vdW  Elec       q    Type
REMARK                         _______ _______ _______ _____ _____    ______ ____
ROOT
ATOM      1  C   UNL     1      46.708   8.976  12.024  0.00  0.00    +0.000 A 
ATOM      2  C   UNL     1      46.249   7.659  12.029  0.00  0.00    +0.000 A 
ATOM      3  C   UNL     1      44.912   7.373  11.710  0.00  0.00    +0.000 A 
ATOM      4  C   UNL     1      44.087   8.460  11.393  0.00  0.00    +0.000 A 
ATOM      5  C   UNL     1      44.610   9.741  11.412  0.00  0.00    +0.000 A 
ATOM      6  N   UNL     1      45.892  10.020  11.718  0.00  0.00    +0.000 NA
ENDROOT
BRANCH   3   7
ATOM      7  C   UNL     1      44.397   5.986  11.709  0.00  0.00    +0.000 A 
ATOM      8  C   UNL     1      43.871   5.395  12.876  0.00  0.00    +0.000 A 
ATOM      9  C   UNL     1      43.382   4.085  12.881  0.00  0.00    +0.000 A 
ATOM     10  C   UNL     1      43.423   3.335  11.712  0.00  0.00    +0.000 A 
ATOM     11  C   UNL     1      43.940   3.896  10.550  0.00  0.00    +0.000 A 
ATOM     12  F   UNL     1      43.987   3.185   9.413  0.00  0.00    +0.000 F 
ATOM     13  C   UNL     1      44.417   5.203  10.542  0.00  0.00    +0.000 A 
BRANCH  10  14
ATOM     14  O   UNL     1      42.962   2.053  11.683  0.00  0.00    +0.000 OA
ATOM     15  H   UNL     1      41.994   2.065  11.622  0.00  0.00    +0.000 HD
ENDBRANCH  10  14
ENDBRANCH   3   7
BRANCH   1  16
ATOM     16  C   UNL     1      48.178   9.246  12.331  0.00  0.00    +0.000 C 
ATOM     17  F   UNL     1      48.528  10.534  12.035  0.00  0.00    +0.000 F 
ATOM     18  F   UNL     1      49.015   8.470  11.568  0.00  0.00    +0.000 F 
BRANCH  16  19
ATOM     19  C   UNL     1      48.493   8.959  13.817  0.00  0.00    +0.000 C 
BRANCH  19  20
ATOM     20  N   UNL     1      49.213   7.690  14.041  0.00  0.00    +0.000 N 
ATOM     21  H   UNL     1      49.779   7.362  13.261  0.00  0.00    +0.000 HD
BRANCH  20  25
ATOM     22  C   UNL     1      47.673   4.520  16.357  0.00  0.00    +0.000 A 
ATOM     23  C   UNL     1      48.629   5.374  16.907  0.00  0.00    +0.000 A 
ATOM     24  C   UNL     1      49.130   6.442  16.155  0.00  0.00    +0.000 A 
ATOM     25  C   UNL     1      48.675   6.701  14.856  0.00  0.00    +0.000 A 
ATOM     26  C   UNL     1      47.731   5.818  14.312  0.00  0.00    +0.000 A 
ATOM     27  C   UNL     1      47.231   4.739  15.051  0.00  0.00    +0.000 A 
BRANCH  22  29
ATOM     28  N   UNL     1      46.725   2.557  17.760  0.00  0.00    +0.000 NA
ATOM     29  C   UNL     1      47.154   3.432  17.127  0.00  0.00    +0.000 C 
ENDBRANCH  22  29
ENDBRANCH  20  25
ENDBRANCH  19  20
ENDBRANCH  16  19
ENDBRANCH   1  16
TORSDOF 7
ENDMDL
MODEL 9
REMARK VINA RESULT:    -6.491      2.150      2.893
REMARK INTER + INTRA:          -9.988
REMARK INTER:                  -9.888
REMARK INTRA:                  -0.100
REMARK UNBOUND:                -1.031
REMARK  Name = 
REMARK  7 active torsions:
REMARK  status: ('A' for Active; 'I' for Inactive)
REMARK    1  A    between atoms: C_2  and  C_3
REMARK    2  A    between atoms: C_6  and  N_7
REMARK    3  A    between atoms: N_7  and  C_8
REMARK    4  A    between atoms: C_8  and  C_9
REMARK    5  A    between atoms: C_9  and  C_12
REMARK    6  A    between atoms: C_14  and  C_15
REMARK    7  A    between atoms: C_18  and  O_19
REMARK                            x       y       z     vdW  Elec       q    Type
REMARK                         _______ _______ _______ _____ _____    ______ ____
ROOT
ATOM      1  C   UNL     1      45.551   5.477  12.151  0.00  0.00    +0.000 A 
ATOM      2  C   UNL     1      46.636   6.245  12.572  0.00  0.00    +0.000 A 
ATOM      3  C   UNL     1      47.421   5.829  13.659  0.00  0.00    +0.000 A 
ATOM      4  C   UNL     1      47.061   4.626  14.279  0.00  0.00    +0.000 A 
ATOM      5  C   UNL     1      45.970   3.916  13.810  0.00  0.00    +0.000 A 
ATOM      6  N   UNL     1      45.214   4.312  12.768  0.00  0.00    +0.000 NA
ENDROOT
BRANCH   3   7
ATOM      7  C   UNL     1      48.576   6.626  14.128  0.00  0.00    +0.000 A 
ATOM      8  C   UNL     1      49.375   7.363  13.230  0.00  0.00    +0.000 A 
ATOM      9  C   UNL     1      50.467   8.119  13.667  0.00  0.00    +0.000 A 
ATOM     10  C   UNL     1      50.786   8.142  15.020  0.00  0.00    +0.000 A 
ATOM     11  C   UNL     1      50.014   7.420  15.923  0.00  0.00    +0.000 A 
ATOM     12  F   UNL     1      50.309   7.430  17.232  0.00  0.00    +0.000 F 
ATOM     13  C   UNL     1      48.921   6.676  15.490  0.00  0.00    +0.000 A 
BRANCH  10  14
ATOM     14  O   UNL     1      51.848   8.862  15.479  0.00  0.00    +0.000 OA
ATOM     15  H   UNL     1      51.541   9.739  15.755  0.00  0.00    +0.000 HD
ENDBRANCH  10  14
ENDBRANCH   3   7
BRANCH   1  16
ATOM     16  C   UNL     1      44.747   5.936  10.938  0.00  0.00    +0.000 C 
ATOM     17  F   UNL     1      45.561   6.281   9.894  0.00  0.00    +0.000 F 
ATOM     18  F   UNL     1      44.016   7.068  11.202  0.00  0.00    +0.000 F 
BRANCH  16  19
ATOM     19  C   UNL     1      43.764   4.837  10.478  0.00  0.00    +0.000 C 
BRANCH  19  20
ATOM     20  N   UNL     1      44.371   3.495  10.382  0.00  0.00    +0.000 N 
ATOM     21  H   UNL     1      44.669   3.083  11.264  0.00  0.00    +0.000 HD
BRANCH  20  25
ATOM     22  C   UNL     1      46.787   2.508   7.070  0.00  0.00    +0.000 A 
ATOM     23  C   UNL     1      46.375   1.504   7.946  0.00  0.00    +0.000 A 
ATOM     24  C   UNL     1      45.556   1.817   9.035  0.00  0.00    +0.000 A 
ATOM     25  C   UNL     1      45.106   3.124   9.263  0.00  0.00    +0.000 A 
ATOM     26  C   UNL     1      45.550   4.123   8.385  0.00  0.00    +0.000 A 
ATOM     27  C   UNL     1      46.379   3.823   7.297  0.00  0.00    +0.000 A 
BRANCH  22  29
ATOM     28  N   UNL     1      48.305   1.939   5.047  0.00  0.00    +0.000 NA
ATOM     29  C   UNL     1      47.619   2.189   5.951  0.00  0.00    +0.000 C 
ENDBRANCH  22  29
ENDBRANCH  20  25
ENDBRANCH  19  20
ENDBRANCH  16  19
ENDBRANCH   1  16
TORSDOF 7
ENDMDL
