MODEL 1
REMARK VINA RESULT:    -8.497      0.000      0.000
REMARK INTER + INTRA:         -11.029
REMARK INTER:                 -10.484
REMARK INTRA:                  -0.546
REMARK UNBOUND:                -0.546
REMARK  Name = 
REMARK  6 active torsions:
REMARK  status: ('A' for Active; 'I' for Inactive)
REMARK    1  A    between atoms: C_1  and  C_2
REMARK    2  A    between atoms: C_2  and  C_3
REMARK    3  A    between atoms: C_2  and  N_4
REMARK    4  A    between atoms: C_2  and  C_14
REMARK    5  A    between atoms: N_4  and  C_5
REMARK    6  A    between atoms: C_8  and  C_9
REMARK                            x       y       z     vdW  Elec       q    Type
REMARK                         _______ _______ _______ _____ _____    ______ ____
ROOT
ATOM      1  N   UNL     1      43.640   4.598   9.968  0.00  0.00    +0.000 N 
ATOM      2  H   UNL     1      43.429   5.473   9.493  0.00  0.00    +0.000 HD
ENDROOT
BRANCH   1   3
ATOM      3  C   UNL     1      44.624   3.886   9.275  0.00  0.00    +0.000 A 
ATOM      4  C   UNL     1      44.761   2.498   9.315  0.00  0.00    +0.000 A 
ATOM      5  C   UNL     1      45.717   1.831   8.552  0.00  0.00    +0.000 A 
ATOM      6  C   UNL     1      46.523   2.576   7.714  0.00  0.00    +0.000 A 
ATOM      7  N   UNL     1      46.426   3.925   7.584  0.00  0.00    +0.000 NA
ATOM      8  C   UNL     1      45.470   4.525   8.352  0.00  0.00    +0.000 A 
BRANCH   6   9
ATOM      9  C   UNL     1      47.544   1.858   6.888  0.00  0.00    +0.000 C 
ATOM     10  N   UNL     1      48.592   2.606   6.440  0.00  0.00    +0.000 N 
ATOM     11  O   UNL     1      47.451   0.665   6.617  0.00  0.00    +0.000 OA
ATOM     12  H   UNL     1      48.634   3.594   6.661  0.00  0.00    +0.000 HD
ATOM     13  H   UNL     1      49.293   2.173   5.857  0.00  0.00    +0.000 HD
ENDBRANCH   6   9
ENDBRANCH   1   3
BRANCH   1  15
ATOM     14  C   UNL     1      42.418   5.668  11.825  0.00  0.00    +0.000 C 
ATOM     15  C   UNL     1      43.638   4.798  11.445  0.00  0.00    +0.000 C 
ATOM     16  C   UNL     1      43.395   3.409  12.098  0.00  0.00    +0.000 C 
BRANCH  15  17
ATOM     17  C   UNL     1      44.989   5.312  11.973  0.00  0.00    +0.000 A 
ATOM     18  C   UNL     1      45.724   4.622  12.959  0.00  0.00    +0.000 A 
ATOM     19  C   UNL     1      46.936   5.122  13.445  0.00  0.00    +0.000 A 
ATOM     20  C   UNL     1      47.448   6.311  12.938  0.00  0.00    +0.000 A 
ATOM     21 CL   UNL     1      48.950   6.911  13.522  0.00  0.00    +0.000 Cl
ATOM     22  C   UNL     1      46.747   7.018  11.967  0.00  0.00    +0.000 A 
ATOM     23  C   UNL     1      45.524   6.528  11.498  0.00  0.00    +0.000 A 
ENDBRANCH  15  17
ENDBRANCH   1  15
TORSDOF 4
ENDMDL
MODEL 2
REMARK VINA RESULT:    -7.202      1.431      1.908
REMARK INTER + INTRA:          -9.432
REMARK INTER:                  -8.810
REMARK INTRA:                  -0.623
REMARK UNBOUND:                -0.546
REMARK  Name = 
REMARK  6 active torsions:
REMARK  status: ('A' for Active; 'I' for Inactive)
REMARK    1  A    between atoms: C_1  and  C_2
REMARK    2  A    between atoms: C_2  and  C_3
REMARK    3  A    between atoms: C_2  and  N_4
REMARK    4  A    between atoms: C_2  and  C_14
REMARK    5  A    between atoms: N_4  and  C_5
REMARK    6  A    between atoms: C_8  and  C_9
REMARK                            x       y       z     vdW  Elec       q    Type
REMARK                         _______ _______ _______ _____ _____    ______ ____
ROOT
ATOM      1  N   UNL     1      43.982   4.030  10.545  0.00  0.00    +0.000 N 
ATOM      2  H   UNL     1      43.238   4.677  10.294  0.00  0.00    +0.000 HD
ENDROOT
BRANCH   1   3
ATOM      3  C   UNL     1      44.792   3.758   9.439  0.00  0.00    +0.000 A 
ATOM      4  C   UNL     1      45.541   4.720   8.760  0.00  0.00    +0.000 A 
ATOM      5  C   UNL     1      46.384   4.385   7.704  0.00  0.00    +0.000 A 
ATOM      6  C   UNL     1      46.496   3.055   7.350  0.00  0.00    +0.000 A 
ATOM      7  N   UNL     1      45.836   2.053   7.986  0.00  0.00    +0.000 NA
ATOM      8  C   UNL     1      45.026   2.438   9.016  0.00  0.00    +0.000 A 
BRANCH   6   9
ATOM      9  C   UNL     1      47.409   2.694   6.221  0.00  0.00    +0.000 C 
ATOM     10  N   UNL     1      48.684   2.355   6.561  0.00  0.00    +0.000 N 
ATOM     11  O   UNL     1      47.044   2.707   5.049  0.00  0.00    +0.000 OA
ATOM     12  H   UNL     1      48.966   2.373   7.534  0.00  0.00    +0.000 HD
ATOM     13  H   UNL     1      49.346   2.129   5.833  0.00  0.00    +0.000 HD
ENDBRANCH   6   9
ENDBRANCH   1   3
BRANCH   1  15
ATOM     14  C   UNL     1      43.358   4.176  12.928  0.00  0.00    +0.000 C 
ATOM     15  C   UNL     1      44.505   4.346  11.906  0.00  0.00    +0.000 C 
ATOM     16  C   UNL     1      45.559   3.260  12.257  0.00  0.00    +0.000 C 
BRANCH  15  17
ATOM     17  C   UNL     1      45.226   5.704  11.960  0.00  0.00    +0.000 A 
ATOM     18  C   UNL     1      46.578   5.825  12.340  0.00  0.00    +0.000 A 
ATOM     19  C   UNL     1      47.205   7.073  12.411  0.00  0.00    +0.000 A 
ATOM     20  C   UNL     1      46.497   8.224  12.081  0.00  0.00    +0.000 A 
ATOM     21 CL   UNL     1      47.278   9.754  12.146  0.00  0.00    +0.000 Cl
ATOM     22  C   UNL     1      45.161   8.139  11.705  0.00  0.00    +0.000 A 
ATOM     23  C   UNL     1      44.528   6.893  11.656  0.00  0.00    +0.000 A 
ENDBRANCH  15  17
ENDBRANCH   1  15
TORSDOF 4
ENDMDL
MODEL 3
REMARK VINA RESULT:    -6.719      4.253      6.633
REMARK INTER + INTRA:          -8.835
REMARK INTER:                  -8.321
REMARK INTRA:                  -0.515
REMARK UNBOUND:                -0.546
REMARK  Name = 
REMARK  6 active torsions:
REMARK  status: ('A' for Active; 'I' for Inactive)
REMARK    1  A    between atoms: C_1  and  C_2
REMARK    2  A    between atoms: C_2  and  C_3
REMARK    3  A    between atoms: C_2  and  N_4
REMARK    4  A    between atoms: C_2  and  C_14
REMARK    5  A    between atoms: N_4  and  C_5
REMARK    6  A    between atoms: C_8  and  C_9
REMARK                            x       y       z     vdW  Elec       q    Type
REMARK                         _______ _______ _______ _____ _____    ______ ____
ROOT
ATOM      1  N   UNL     1      44.935   6.182  10.755  0.00  0.00    +0.000 N 
ATOM      2  H   UNL     1      44.071   6.696  10.594  0.00  0.00    +0.000 HD
ENDROOT
BRANCH   1   3
ATOM      3  C   UNL     1      45.758   6.871  11.650  0.00  0.00    +0.000 A 
ATOM      4  C   UNL     1      47.145   6.729  11.707  0.00  0.00    +0.000 A 
ATOM      5  C   UNL     1      47.928   7.489  12.573  0.00  0.00    +0.000 A 
ATOM      6  C   UNL     1      47.302   8.428  13.369  0.00  0.00    +0.000 A 
ATOM      7  N   UNL     1      45.963   8.660  13.343  0.00  0.00    +0.000 NA
ATOM      8  C   UNL     1      45.247   7.889  12.473  0.00  0.00    +0.000 A 
BRANCH   6   9
ATOM      9  C   UNL     1      48.143   9.252  14.292  0.00  0.00    +0.000 C 
ATOM     10  N   UNL     1      47.771   9.258  15.603  0.00  0.00    +0.000 N 
ATOM     11  O   UNL     1      49.113   9.895  13.902  0.00  0.00    +0.000 OA
ATOM     12  H   UNL     1      46.954   8.735  15.896  0.00  0.00    +0.000 HD
ATOM     13  H   UNL     1      48.292   9.820  16.261  0.00  0.00    +0.000 HD
ENDBRANCH   6   9
ENDBRANCH   1   3
BRANCH   1  15
ATOM     14  C   UNL     1      45.090   4.204  12.220  0.00  0.00    +0.000 C 
ATOM     15  C   UNL     1      44.659   4.719  10.829  0.00  0.00    +0.000 C 
ATOM     16  C   UNL     1      43.117   4.537  10.762  0.00  0.00    +0.000 C 
BRANCH  15  17
ATOM     17  C   UNL     1      45.253   3.945   9.638  0.00  0.00    +0.000 A 
ATOM     18  C   UNL     1      45.230   2.537   9.567  0.00  0.00    +0.000 A 
ATOM     19  C   UNL     1      45.802   1.854   8.490  0.00  0.00    +0.000 A 
ATOM     20  C   UNL     1      46.390   2.567   7.451  0.00  0.00    +0.000 A 
ATOM     21 CL   UNL     1      47.072   1.724   6.116  0.00  0.00    +0.000 Cl
ATOM     22  C   UNL     1      46.432   3.957   7.492  0.00  0.00    +0.000 A 
ATOM     23  C   UNL     1      45.879   4.638   8.580  0.00  0.00    +0.000 A 
ENDBRANCH  15  17
ENDBRANCH   1  15
TORSDOF 4
ENDMDL
MODEL 4
REMARK VINA RESULT:    -6.610      3.922      6.363
REMARK INTER + INTRA:          -8.701
REMARK INTER:                  -8.368
REMARK INTRA:                  -0.334
REMARK UNBOUND:                -0.546
REMARK  Name = 
REMARK  6 active torsions:
REMARK  status: ('A' for Active; 'I' for Inactive)
REMARK    1  A    between atoms: C_1  and  C_2
REMARK    2  A    between atoms: C_2  and  C_3
REMARK    3  A    between atoms: C_2  and  N_4
REMARK    4  A    between atoms: C_2  and  C_14
REMARK    5  A    between atoms: N_4  and  C_5
REMARK    6  A    between atoms: C_8  and  C_9
REMARK                            x       y       z     vdW  Elec       q    Type
REMARK                         _______ _______ _______ _____ _____    ______ ____
ROOT
ATOM      1  N   UNL     1      45.227   4.456  12.112  0.00  0.00    +0.000 N 
ATOM      2  H   UNL     1      45.972   3.777  12.257  0.00  0.00    +0.000 HD
ENDROOT
BRANCH   1   3
ATOM      3  C   UNL     1      45.724   5.759  12.203  0.00  0.00    +0.000 A 
ATOM      4  C   UNL     1      46.901   6.193  11.592  0.00  0.00    +0.000 A 
ATOM      5  C   UNL     1      47.318   7.521  11.659  0.00  0.00    +0.000 A 
ATOM      6  C   UNL     1      46.517   8.427  12.326  0.00  0.00    +0.000 A 
ATOM      7  N   UNL     1      45.336   8.095  12.910  0.00  0.00    +0.000 NA
ATOM      8  C   UNL     1      44.976   6.782  12.811  0.00  0.00    +0.000 A 
BRANCH   6   9
ATOM      9  C   UNL     1      46.961   9.855  12.390  0.00  0.00    +0.000 C 
ATOM     10  N   UNL     1      45.986  10.796  12.245  0.00  0.00    +0.000 N 
ATOM     11  O   UNL     1      48.134  10.173  12.556  0.00  0.00    +0.000 OA
ATOM     12  H   UNL     1      45.027  10.507  12.089  0.00  0.00    +0.000 HD
ATOM     13  H   UNL     1      46.239  11.773  12.255  0.00  0.00    +0.000 HD
ENDBRANCH   6   9
ENDBRANCH   1   3
BRANCH   1  15
ATOM     14  C   UNL     1      43.371   2.904  11.628  0.00  0.00    +0.000 C 
ATOM     15  C   UNL     1      44.303   3.987  11.040  0.00  0.00    +0.000 C 
ATOM     16  C   UNL     1      43.387   5.185  10.665  0.00  0.00    +0.000 C 
BRANCH  15  17
ATOM     17  C   UNL     1      45.047   3.574   9.758  0.00  0.00    +0.000 A 
ATOM     18  C   UNL     1      45.515   4.519   8.821  0.00  0.00    +0.000 A 
ATOM     19  C   UNL     1      46.164   4.120   7.648  0.00  0.00    +0.000 A 
ATOM     20  C   UNL     1      46.377   2.769   7.400  0.00  0.00    +0.000 A 
ATOM     21 CL   UNL     1      47.195   2.284   5.967  0.00  0.00    +0.000 Cl
ATOM     22  C   UNL     1      45.926   1.811   8.302  0.00  0.00    +0.000 A 
ATOM     23  C   UNL     1      45.257   2.210   9.464  0.00  0.00    +0.000 A 
ENDBRANCH  15  17
ENDBRANCH   1  15
TORSDOF 4
ENDMDL
MODEL 5
REMARK VINA RESULT:    -6.357      4.132      6.330
REMARK INTER + INTRA:          -8.390
REMARK INTER:                  -8.231
REMARK INTRA:                  -0.159
REMARK UNBOUND:                -0.546
REMARK  Name = 
REMARK  6 active torsions:
REMARK  status: ('A' for Active; 'I' for Inactive)
REMARK    1  A    between atoms: C_1  and  C_2
REMARK    2  A    between atoms: C_2  and  C_3
REMARK    3  A    between atoms: C_2  and  N_4
REMARK    4  A    between atoms: C_2  and  C_14
REMARK    5  A    between atoms: N_4  and  C_5
REMARK    6  A    between atoms: C_8  and  C_9
REMARK                            x       y       z     vdW  Elec       q    Type
REMARK                         _______ _______ _______ _____ _____    ______ ____
ROOT
ATOM      1  N   UNL     1      45.523   5.551  12.486  0.00  0.00    +0.000 N 
ATOM      2  H   UNL     1      45.212   6.460  12.825  0.00  0.00    +0.000 HD
ENDROOT
BRANCH   1   3
ATOM      3  C   UNL     1      46.300   4.906  13.453  0.00  0.00    +0.000 A 
ATOM      4  C   UNL     1      46.607   5.448  14.701  0.00  0.00    +0.000 A 
ATOM      5  C   UNL     1      47.330   4.735  15.655  0.00  0.00    +0.000 A 
ATOM      6  C   UNL     1      47.720   3.445  15.353  0.00  0.00    +0.000 A 
ATOM      7  N   UNL     1      47.424   2.828  14.180  0.00  0.00    +0.000 NA
ATOM      8  C   UNL     1      46.711   3.572  13.284  0.00  0.00    +0.000 A 
BRANCH   6   9
ATOM      9  C   UNL     1      48.488   2.676  16.382  0.00  0.00    +0.000 C 
ATOM     10  N   UNL     1      48.253   3.007  17.683  0.00  0.00    +0.000 N 
ATOM     11  O   UNL     1      49.293   1.799  16.082  0.00  0.00    +0.000 OA
ATOM     12  H   UNL     1      47.599   3.749  17.902  0.00  0.00    +0.000 HD
ATOM     13  H   UNL     1      48.766   2.534  18.412  0.00  0.00    +0.000 HD
ENDBRANCH   6   9
ENDBRANCH   1   3
BRANCH   1  15
ATOM     14  C   UNL     1      43.743   3.848  12.615  0.00  0.00    +0.000 C 
ATOM     15  C   UNL     1      44.436   4.890  11.709  0.00  0.00    +0.000 C 
ATOM     16  C   UNL     1      43.366   5.974  11.402  0.00  0.00    +0.000 C 
BRANCH  15  17
ATOM     17  C   UNL     1      44.926   4.348  10.354  0.00  0.00    +0.000 A 
ATOM     18  C   UNL     1      45.642   5.146   9.437  0.00  0.00    +0.000 A 
ATOM     19  C   UNL     1      46.051   4.640   8.199  0.00  0.00    +0.000 A 
ATOM     20  C   UNL     1      45.773   3.320   7.863  0.00  0.00    +0.000 A 
ATOM     21 CL   UNL     1      46.299   2.696   6.350  0.00  0.00    +0.000 Cl
ATOM     22  C   UNL     1      45.067   2.507   8.744  0.00  0.00    +0.000 A 
ATOM     23  C   UNL     1      44.638   3.020   9.972  0.00  0.00    +0.000 A 
ENDBRANCH  15  17
ENDBRANCH   1  15
TORSDOF 4
ENDMDL
MODEL 6
REMARK VINA RESULT:    -5.665      3.370      5.379
REMARK INTER + INTRA:          -7.535
REMARK INTER:                  -7.026
REMARK INTRA:                  -0.510
REMARK UNBOUND:                -0.546
REMARK  Name = 
REMARK  6 active torsions:
REMARK  status: ('A' for Active; 'I' for Inactive)
REMARK    1  A    between atoms: C_1  and  C_2
REMARK    2  A    between atoms: C_2  and  C_3
REMARK    3  A    between atoms: C_2  and  N_4
REMARK    4  A    between atoms: C_2  and  C_14
REMARK    5  A    between atoms: N_4  and  C_5
REMARK    6  A    between atoms: C_8  and  C_9
REMARK                            x       y       z     vdW  Elec       q    Type
REMARK                         _______ _______ _______ _____ _____    ______ ____
ROOT
ATOM      1  N   UNL     1      46.881   7.124  13.849  0.00  0.00    +0.000 N 
ATOM      2  H   UNL     1      46.381   8.011  13.888  0.00  0.00    +0.000 HD
ENDROOT
BRANCH   1   3
ATOM      3  C   UNL     1      46.278   6.260  12.931  0.00  0.00    +0.000 A 
ATOM      4  C   UNL     1      45.943   4.934  13.207  0.00  0.00    +0.000 A 
ATOM      5  C   UNL     1      45.282   4.134  12.278  0.00  0.00    +0.000 A 
ATOM      6  C   UNL     1      44.927   4.692  11.066  0.00  0.00    +0.000 A 
ATOM      7  N   UNL     1      45.177   5.986  10.735  0.00  0.00    +0.000 NA
ATOM      8  C   UNL     1      45.824   6.725  11.685  0.00  0.00    +0.000 A 
BRANCH   6   9
ATOM      9  C   UNL     1      44.209   3.835  10.071  0.00  0.00    +0.000 C 
ATOM     10  N   UNL     1      44.072   4.352   8.817  0.00  0.00    +0.000 N 
ATOM     11  O   UNL     1      43.758   2.731  10.358  0.00  0.00    +0.000 OA
ATOM     12  H   UNL     1      44.436   5.275   8.611  0.00  0.00    +0.000 HD
ATOM     13  H   UNL     1      43.572   3.822   8.118  0.00  0.00    +0.000 HD
ENDBRANCH   6   9
ENDBRANCH   1   3
BRANCH   1  15
ATOM     14  C   UNL     1      48.995   6.980  12.587  0.00  0.00    +0.000 C 
ATOM     15  C   UNL     1      48.351   7.355  13.940  0.00  0.00    +0.000 C 
ATOM     16  C   UNL     1      48.567   8.885  14.110  0.00  0.00    +0.000 C 
BRANCH  15  17
ATOM     17  C   UNL     1      48.980   6.675  15.169  0.00  0.00    +0.000 A 
ATOM     18  C   UNL     1      48.288   5.715  15.936  0.00  0.00    +0.000 A 
ATOM     19  C   UNL     1      48.869   5.131  17.066  0.00  0.00    +0.000 A 
ATOM     20  C   UNL     1      50.162   5.480  17.438  0.00  0.00    +0.000 A 
ATOM     21 CL   UNL     1      50.882   4.743  18.815  0.00  0.00    +0.000 Cl
ATOM     22  C   UNL     1      50.871   6.426  16.705  0.00  0.00    +0.000 A 
ATOM     23  C   UNL     1      50.281   7.026  15.588  0.00  0.00    +0.000 A 
ENDBRANCH  15  17
ENDBRANCH   1  15
TORSDOF 4
ENDMDL
MODEL 7
REMARK VINA RESULT:    -5.635      3.311      5.318
REMARK INTER + INTRA:          -7.499
REMARK INTER:                  -6.853
REMARK INTRA:                  -0.646
REMARK UNBOUND:                -0.546
REMARK  Name = 
REMARK  6 active torsions:
REMARK  status: ('A' for Active; 'I' for Inactive)
REMARK    1  A    between atoms: C_1  and  C_2
REMARK    2  A    between atoms: C_2  and  C_3
REMARK    3  A    between atoms: C_2  and  N_4
REMARK    4  A    between atoms: C_2  and  C_14
REMARK    5  A    between atoms: N_4  and  C_5
REMARK    6  A    between atoms: C_8  and  C_9
REMARK                            x       y       z     vdW  Elec       q    Type
REMARK                         _______ _______ _______ _____ _____    ______ ____
ROOT
ATOM      1  N   UNL     1      46.153   7.678  13.223  0.00  0.00    +0.000 N 
ATOM      2  H   UNL     1      45.557   8.446  12.919  0.00  0.00    +0.000 HD
ENDROOT
BRANCH   1   3
ATOM      3  C   UNL     1      45.693   6.463  12.706  0.00  0.00    +0.000 A 
ATOM      4  C   UNL     1      45.852   5.231  13.341  0.00  0.00    +0.000 A 
ATOM      5  C   UNL     1      45.315   4.058  12.816  0.00  0.00    +0.000 A 
ATOM      6  C   UNL     1      44.581   4.138  11.649  0.00  0.00    +0.000 A 
ATOM      7  N   UNL     1      44.342   5.303  10.992  0.00  0.00    +0.000 NA
ATOM      8  C   UNL     1      44.889   6.421  11.554  0.00  0.00    +0.000 A 
BRANCH   6   9
ATOM      9  C   UNL     1      43.997   2.879  11.090  0.00  0.00    +0.000 C 
ATOM     10  N   UNL     1      44.665   2.316  10.044  0.00  0.00    +0.000 N 
ATOM     11  O   UNL     1      42.970   2.375  11.534  0.00  0.00    +0.000 OA
ATOM     12  H   UNL     1      45.500   2.763   9.682  0.00  0.00    +0.000 HD
ATOM     13  H   UNL     1      44.296   1.480   9.616  0.00  0.00    +0.000 HD
ENDBRANCH   6   9
ENDBRANCH   1   3
BRANCH   1  15
ATOM     14  C   UNL     1      48.311   7.371  12.068  0.00  0.00    +0.000 C 
ATOM     15  C   UNL     1      47.582   8.101  13.218  0.00  0.00    +0.000 C 
ATOM     16  C   UNL     1      47.614   9.612  12.857  0.00  0.00    +0.000 C 
BRANCH  15  17
ATOM     17  C   UNL     1      48.245   7.956  14.600  0.00  0.00    +0.000 A 
ATOM     18  C   UNL     1      48.300   9.020  15.524  0.00  0.00    +0.000 A 
ATOM     19  C   UNL     1      48.933   8.875  16.763  0.00  0.00    +0.000 A 
ATOM     20  C   UNL     1      49.504   7.656  17.111  0.00  0.00    +0.000 A 
ATOM     21 CL   UNL     1      50.260   7.474  18.644  0.00  0.00    +0.000 Cl
ATOM     22  C   UNL     1      49.469   6.587  16.221  0.00  0.00    +0.000 A 
ATOM     23  C   UNL     1      48.855   6.740  14.973  0.00  0.00    +0.000 A 
ENDBRANCH  15  17
ENDBRANCH   1  15
TORSDOF 4
ENDMDL
MODEL 8
REMARK VINA RESULT:    -5.578      3.532      5.423
REMARK INTER + INTRA:          -7.428
REMARK INTER:                  -7.022
REMARK INTRA:                  -0.406
REMARK UNBOUND:                -0.546
REMARK  Name = 
REMARK  6 active torsions:
REMARK  status: ('A' for Active; 'I' for Inactive)
REMARK    1  A    between atoms: C_1  and  C_2
REMARK    2  A    between atoms: C_2  and  C_3
REMARK    3  A    between atoms: C_2  and  N_4
REMARK    4  A    between atoms: C_2  and  C_14
REMARK    5  A    between atoms: N_4  and  C_5
REMARK    6  A    between atoms: C_8  and  C_9
REMARK                            x       y       z     vdW  Elec       q    Type
REMARK                         _______ _______ _______ _____ _____    ______ ____
ROOT
ATOM      1  N   UNL     1      47.452   6.746  13.805  0.00  0.00    +0.000 N 
ATOM      2  H   UNL     1      47.429   6.516  14.796  0.00  0.00    +0.000 HD
ENDROOT
BRANCH   1   3
ATOM      3  C   UNL     1      46.569   5.933  13.089  0.00  0.00    +0.000 A 
ATOM      4  C   UNL     1      46.353   6.030  11.714  0.00  0.00    +0.000 A 
ATOM      5  C   UNL     1      45.511   5.150  11.038  0.00  0.00    +0.000 A 
ATOM      6  C   UNL     1      44.904   4.139  11.757  0.00  0.00    +0.000 A 
ATOM      7  N   UNL     1      45.095   3.949  13.088  0.00  0.00    +0.000 NA
ATOM      8  C   UNL     1      45.932   4.837  13.699  0.00  0.00    +0.000 A 
BRANCH   6   9
ATOM      9  C   UNL     1      44.007   3.189  11.028  0.00  0.00    +0.000 C 
ATOM     10  N   UNL     1      43.389   2.241  11.787  0.00  0.00    +0.000 N 
ATOM     11  O   UNL     1      43.835   3.246   9.814  0.00  0.00    +0.000 OA
ATOM     12  H   UNL     1      43.565   2.202  12.784  0.00  0.00    +0.000 HD
ATOM     13  H   UNL     1      42.794   1.560  11.338  0.00  0.00    +0.000 HD
ENDBRANCH   6   9
ENDBRANCH   1   3
BRANCH   1  15
ATOM     14  C   UNL     1      46.182   8.779  13.222  0.00  0.00    +0.000 C 
ATOM     15  C   UNL     1      47.567   8.221  13.620  0.00  0.00    +0.000 C 
ATOM     16  C   UNL     1      47.894   8.835  15.010  0.00  0.00    +0.000 C 
BRANCH  15  17
ATOM     17  C   UNL     1      48.718   8.610  12.676  0.00  0.00    +0.000 A 
ATOM     18  C   UNL     1      49.765   7.720  12.357  0.00  0.00    +0.000 A 
ATOM     19  C   UNL     1      50.816   8.105  11.520  0.00  0.00    +0.000 A 
ATOM     20  C   UNL     1      50.831   9.380  10.967  0.00  0.00    +0.000 A 
ATOM     21 CL   UNL     1      52.114   9.841   9.919  0.00  0.00    +0.000 Cl
ATOM     22  C   UNL     1      49.815  10.283  11.263  0.00  0.00    +0.000 A 
ATOM     23  C   UNL     1      48.775   9.905  12.118  0.00  0.00    +0.000 A 
ENDBRANCH  15  17
ENDBRANCH   1  15
TORSDOF 4
ENDMDL
