MODEL 1
REMARK VINA RESULT:    -8.248      0.000      0.000
REMARK INTER + INTRA:         -11.298
REMARK INTER:                 -10.659
REMARK INTRA:                  -0.639
REMARK UNBOUND:                -0.639
REMARK  Name = 
REMARK  5 active torsions:
REMARK  status: ('A' for Active; 'I' for Inactive)
REMARK    1  A    between atoms: C_2  and  C_4
REMARK    2  A    between atoms: C_7  and  N_8
REMARK    3  A    between atoms: N_8  and  C_9
REMARK    4  A    between atoms: C_9  and  C_10
REMARK    5  A    between atoms: C_12  and  N_13
REMARK                            x       y       z     vdW  Elec       q    Type
REMARK                         _______ _______ _______ _____ _____    ______ ____
ROOT
ATOM      1  N   UNL     1      43.824   4.766   9.827  0.00  0.00    +0.000 N 
ATOM      2  H   UNL     1      42.970   4.831   9.282  0.00  0.00    +0.000 HD
ENDROOT
BRANCH   1   6
ATOM      3  C   UNL     1      46.512   2.512   7.692  0.00  0.00    +0.000 A 
ATOM      4  C   UNL     1      46.509   3.893   7.593  0.00  0.00    +0.000 A 
ATOM      5  N   UNL     1      45.662   4.676   8.312  0.00  0.00    +0.000 NA
ATOM      6  C   UNL     1      44.813   4.046   9.150  0.00  0.00    +0.000 A 
ATOM      7  C   UNL     1      44.846   2.647   9.250  0.00  0.00    +0.000 A 
ATOM      8  N   UNL     1      45.681   1.843   8.538  0.00  0.00    +0.000 NA
BRANCH   3  10
ATOM      9  N   UNL     1      48.488   2.375   6.301  0.00  0.00    +0.000 N 
ATOM     10  C   UNL     1      47.410   1.711   6.819  0.00  0.00    +0.000 C 
ATOM     11  O   UNL     1      47.212   0.523   6.591  0.00  0.00    +0.000 OA
ATOM     12  H   UNL     1      49.157   1.871   5.737  0.00  0.00    +0.000 HD
ATOM     13  H   UNL     1      48.648   3.347   6.537  0.00  0.00    +0.000 HD
ENDBRANCH   3  10
ENDBRANCH   1   6
BRANCH   1  14
ATOM     14  C   UNL     1      43.550   4.347  11.205  0.00  0.00    +0.000 C 
BRANCH  14  15
ATOM     15  C   UNL     1      44.748   4.648  12.087  0.00  0.00    +0.000 A 
ATOM     16  C   UNL     1      45.206   5.954  12.189  0.00  0.00    +0.000 A 
ATOM     17  C   UNL     1      46.310   6.212  12.983  0.00  0.00    +0.000 A 
ATOM     18  N   UNL     1      46.911   5.201  13.633  0.00  0.00    +0.000 NA
ATOM     19  C   UNL     1      46.407   3.966  13.472  0.00  0.00    +0.000 A 
ATOM     20  N   UNL     1      45.346   3.628  12.730  0.00  0.00    +0.000 NA
BRANCH  17  21
ATOM     21  N   UNL     1      46.787   7.494  13.157  0.00  0.00    +0.000 N 
ATOM     22  C   UNL     1      45.925   8.682  13.150  0.00  0.00    +0.000 C 
ATOM     23  C   UNL     1      46.310   9.618  11.989  0.00  0.00    +0.000 C 
ATOM     24  O   UNL     1      47.708   9.942  12.006  0.00  0.00    +0.000 OA
ATOM     25  C   UNL     1      48.492   8.744  11.876  0.00  0.00    +0.000 C 
ATOM     26  C   UNL     1      48.225   7.772  13.033  0.00  0.00    +0.000 C 
ENDBRANCH  17  21
ENDBRANCH  14  15
ENDBRANCH   1  14
TORSDOF 5
ENDMDL
MODEL 2
REMARK VINA RESULT:    -8.181      1.854      2.792
REMARK INTER + INTRA:         -11.212
REMARK INTER:                 -10.515
REMARK INTRA:                  -0.697
REMARK UNBOUND:                -0.639
REMARK  Name = 
REMARK  5 active torsions:
REMARK  status: ('A' for Active; 'I' for Inactive)
REMARK    1  A    between atoms: C_2  and  C_4
REMARK    2  A    between atoms: C_7  and  N_8
REMARK    3  A    between atoms: N_8  and  C_9
REMARK    4  A    between atoms: C_9  and  C_10
REMARK    5  A    between atoms: C_12  and  N_13
REMARK                            x       y       z     vdW  Elec       q    Type
REMARK                         _______ _______ _______ _____ _____    ______ ____
ROOT
ATOM      1  N   UNL     1      43.599   4.799   9.488  0.00  0.00    +0.000 N 
ATOM      2  H   UNL     1      42.725   4.645   8.995  0.00  0.00    +0.000 HD
ENDROOT
BRANCH   1   6
ATOM      3  C   UNL     1      46.410   2.302   7.837  0.00  0.00    +0.000 A 
ATOM      4  C   UNL     1      46.427   3.660   7.572  0.00  0.00    +0.000 A 
ATOM      5  N   UNL     1      45.538   4.525   8.130  0.00  0.00    +0.000 NA
ATOM      6  C   UNL     1      44.626   4.001   8.975  0.00  0.00    +0.000 A 
ATOM      7  C   UNL     1      44.639   2.625   9.245  0.00  0.00    +0.000 A 
ATOM      8  N   UNL     1      45.515   1.741   8.696  0.00  0.00    +0.000 NA
BRANCH   3  10
ATOM      9  N   UNL     1      48.327   2.017   6.386  0.00  0.00    +0.000 N 
ATOM     10  C   UNL     1      47.360   1.400   7.132  0.00  0.00    +0.000 C 
ATOM     11  O   UNL     1      47.296   0.180   7.228  0.00  0.00    +0.000 OA
ATOM     12  H   UNL     1      49.027   1.457   5.921  0.00  0.00    +0.000 HD
ATOM     13  H   UNL     1      48.378   3.028   6.356  0.00  0.00    +0.000 HD
ENDBRANCH   3  10
ENDBRANCH   1   6
BRANCH   1  14
ATOM     14  C   UNL     1      43.409   4.752  10.941  0.00  0.00    +0.000 C 
BRANCH  14  15
ATOM     15  C   UNL     1      44.410   5.666  11.625  0.00  0.00    +0.000 A 
ATOM     16  C   UNL     1      45.406   5.111  12.417  0.00  0.00    +0.000 A 
ATOM     17  C   UNL     1      46.301   5.957  13.048  0.00  0.00    +0.000 A 
ATOM     18  N   UNL     1      46.190   7.286  12.882  0.00  0.00    +0.000 NA
ATOM     19  C   UNL     1      45.191   7.738  12.105  0.00  0.00    +0.000 A 
ATOM     20  N   UNL     1      44.286   6.995  11.457  0.00  0.00    +0.000 NA
BRANCH  17  21
ATOM     21  N   UNL     1      47.337   5.465  13.814  0.00  0.00    +0.000 N 
ATOM     22  C   UNL     1      47.255   4.208  14.569  0.00  0.00    +0.000 C 
ATOM     23  C   UNL     1      47.405   4.476  16.078  0.00  0.00    +0.000 C 
ATOM     24  O   UNL     1      48.593   5.226  16.371  0.00  0.00    +0.000 OA
ATOM     25  C   UNL     1      48.546   6.501  15.706  0.00  0.00    +0.000 C 
ATOM     26  C   UNL     1      48.462   6.335  14.183  0.00  0.00    +0.000 C 
ENDBRANCH  17  21
ENDBRANCH  14  15
ENDBRANCH   1  14
TORSDOF 5
ENDMDL
MODEL 3
REMARK VINA RESULT:    -8.132      0.989      1.440
REMARK INTER + INTRA:         -11.148
REMARK INTER:                 -10.408
REMARK INTRA:                  -0.741
REMARK UNBOUND:                -0.639
REMARK  Name = 
REMARK  5 active torsions:
REMARK  status: ('A' for Active; 'I' for Inactive)
REMARK    1  A    between atoms: C_2  and  C_4
REMARK    2  A    between atoms: C_7  and  N_8
REMARK    3  A    between atoms: N_8  and  C_9
REMARK    4  A    between atoms: C_9  and  C_10
REMARK    5  A    between atoms: C_12  and  N_13
REMARK                            x       y       z     vdW  Elec       q    Type
REMARK                         _______ _______ _______ _____ _____    ______ ____
ROOT
ATOM      1  N   UNL     1      43.990   4.763  10.165  0.00  0.00    +0.000 N 
ATOM      2  H   UNL     1      43.100   5.034   9.756  0.00  0.00    +0.000 HD
ENDROOT
BRANCH   1   6
ATOM      3  C   UNL     1      46.464   2.619   7.685  0.00  0.00    +0.000 A 
ATOM      4  C   UNL     1      45.594   1.975   8.548  0.00  0.00    +0.000 A 
ATOM      5  N   UNL     1      44.733   2.648   9.355  0.00  0.00    +0.000 NA
ATOM      6  C   UNL     1      44.750   3.995   9.278  0.00  0.00    +0.000 A 
ATOM      7  C   UNL     1      45.624   4.627   8.382  0.00  0.00    +0.000 A 
ATOM      8  N   UNL     1      46.497   3.976   7.568  0.00  0.00    +0.000 NA
BRANCH   3  10
ATOM      9  N   UNL     1      48.527   2.509   6.424  0.00  0.00    +0.000 N 
ATOM     10  C   UNL     1      47.435   1.826   6.886  0.00  0.00    +0.000 C 
ATOM     11  O   UNL     1      47.281   0.630   6.670  0.00  0.00    +0.000 OA
ATOM     12  H   UNL     1      49.243   2.012   5.914  0.00  0.00    +0.000 HD
ATOM     13  H   UNL     1      48.648   3.489   6.651  0.00  0.00    +0.000 HD
ENDBRANCH   3  10
ENDBRANCH   1   6
BRANCH   1  14
ATOM     14  C   UNL     1      43.814   4.209  11.510  0.00  0.00    +0.000 C 
BRANCH  14  15
ATOM     15  C   UNL     1      45.088   4.388  12.315  0.00  0.00    +0.000 A 
ATOM     16  C   UNL     1      45.638   5.657  12.444  0.00  0.00    +0.000 A 
ATOM     17  C   UNL     1      46.809   5.803  13.166  0.00  0.00    +0.000 A 
ATOM     18  N   UNL     1      47.386   4.724  13.724  0.00  0.00    +0.000 NA
ATOM     19  C   UNL     1      46.791   3.533  13.543  0.00  0.00    +0.000 A 
ATOM     20  N   UNL     1      45.660   3.301  12.865  0.00  0.00    +0.000 NA
BRANCH  17  21
ATOM     21  N   UNL     1      47.381   7.042  13.365  0.00  0.00    +0.000 N 
ATOM     22  C   UNL     1      47.202   8.170  12.442  0.00  0.00    +0.000 C 
ATOM     23  C   UNL     1      48.555   8.594  11.842  0.00  0.00    +0.000 C 
ATOM     24  O   UNL     1      49.532   8.856  12.861  0.00  0.00    +0.000 OA
ATOM     25  C   UNL     1      49.756   7.670  13.643  0.00  0.00    +0.000 C 
ATOM     26  C   UNL     1      48.469   7.207  14.339  0.00  0.00    +0.000 C 
ENDBRANCH  17  21
ENDBRANCH  14  15
ENDBRANCH   1  14
TORSDOF 5
ENDMDL
MODEL 4
REMARK VINA RESULT:    -7.302      3.217      7.687
REMARK INTER + INTRA:         -10.076
REMARK INTER:                  -9.506
REMARK INTRA:                  -0.570
REMARK UNBOUND:                -0.639
REMARK  Name = 
REMARK  5 active torsions:
REMARK  status: ('A' for Active; 'I' for Inactive)
REMARK    1  A    between atoms: C_2  and  C_4
REMARK    2  A    between atoms: C_7  and  N_8
REMARK    3  A    between atoms: N_8  and  C_9
REMARK    4  A    between atoms: C_9  and  C_10
REMARK    5  A    between atoms: C_12  and  N_13
REMARK                            x       y       z     vdW  Elec       q    Type
REMARK                         _______ _______ _______ _____ _____    ______ ____
ROOT
ATOM      1  N   UNL     1      47.142   5.211  13.350  0.00  0.00    +0.000 N 
ATOM      2  H   UNL     1      47.365   4.389  12.798  0.00  0.00    +0.000 HD
ENDROOT
BRANCH   1   6
ATOM      3  C   UNL     1      48.273   4.439  17.222  0.00  0.00    +0.000 A 
ATOM      4  C   UNL     1      48.718   5.574  16.568  0.00  0.00    +0.000 A 
ATOM      5  N   UNL     1      48.335   5.885  15.301  0.00  0.00    +0.000 NA
ATOM      6  C   UNL     1      47.481   5.033  14.695  0.00  0.00    +0.000 A 
ATOM      7  C   UNL     1      47.027   3.899  15.384  0.00  0.00    +0.000 A 
ATOM      8  N   UNL     1      47.399   3.566  16.649  0.00  0.00    +0.000 NA
BRANCH   3  10
ATOM      9  N   UNL     1      48.184   3.071  19.217  0.00  0.00    +0.000 N 
ATOM     10  C   UNL     1      48.791   4.117  18.578  0.00  0.00    +0.000 C 
ATOM     11  O   UNL     1      49.719   4.735  19.087  0.00  0.00    +0.000 OA
ATOM     12  H   UNL     1      48.524   2.778  20.122  0.00  0.00    +0.000 HD
ATOM     13  H   UNL     1      47.445   2.553  18.756  0.00  0.00    +0.000 HD
ENDBRANCH   3  10
ENDBRANCH   1   6
BRANCH   1  14
ATOM     14  C   UNL     1      45.779   5.681  13.085  0.00  0.00    +0.000 C 
BRANCH  14  15
ATOM     15  C   UNL     1      44.972   4.580  12.421  0.00  0.00    +0.000 A 
ATOM     16  C   UNL     1      45.197   4.285  11.083  0.00  0.00    +0.000 A 
ATOM     17  C   UNL     1      44.443   3.291  10.485  0.00  0.00    +0.000 A 
ATOM     18  N   UNL     1      43.514   2.638  11.205  0.00  0.00    +0.000 NA
ATOM     19  C   UNL     1      43.355   2.993  12.491  0.00  0.00    +0.000 A 
ATOM     20  N   UNL     1      44.041   3.936  13.149  0.00  0.00    +0.000 NA
BRANCH  17  21
ATOM     21  N   UNL     1      44.649   2.923   9.173  0.00  0.00    +0.000 N 
ATOM     22  C   UNL     1      44.974   1.552   8.761  0.00  0.00    +0.000 C 
ATOM     23  C   UNL     1      46.360   1.505   8.093  0.00  0.00    +0.000 C 
ATOM     24  O   UNL     1      46.467   2.450   7.018  0.00  0.00    +0.000 OA
ATOM     25  C   UNL     1      46.269   3.785   7.516  0.00  0.00    +0.000 C 
ATOM     26  C   UNL     1      44.878   3.948   8.144  0.00  0.00    +0.000 C 
ENDBRANCH  17  21
ENDBRANCH  14  15
ENDBRANCH   1  14
TORSDOF 5
ENDMDL
MODEL 5
REMARK VINA RESULT:    -6.579      5.131      8.125
REMARK INTER + INTRA:          -9.141
REMARK INTER:                  -8.607
REMARK INTRA:                  -0.534
REMARK UNBOUND:                -0.639
REMARK  Name = 
REMARK  5 active torsions:
REMARK  status: ('A' for Active; 'I' for Inactive)
REMARK    1  A    between atoms: C_2  and  C_4
REMARK    2  A    between atoms: C_7  and  N_8
REMARK    3  A    between atoms: N_8  and  C_9
REMARK    4  A    between atoms: C_9  and  C_10
REMARK    5  A    between atoms: C_12  and  N_13
REMARK                            x       y       z     vdW  Elec       q    Type
REMARK                         _______ _______ _______ _____ _____    ______ ____
ROOT
ATOM      1  N   UNL     1      48.367   4.623  17.104  0.00  0.00    +0.000 N 
ATOM      2  H   UNL     1      48.607   5.568  16.821  0.00  0.00    +0.000 HD
ENDROOT
BRANCH   1   6
ATOM      3  C   UNL     1      51.682   2.266  17.676  0.00  0.00    +0.000 A 
ATOM      4  C   UNL     1      50.553   1.762  17.052  0.00  0.00    +0.000 A 
ATOM      5  N   UNL     1      49.452   2.521  16.810  0.00  0.00    +0.000 NA
ATOM      6  C   UNL     1      49.502   3.812  17.199  0.00  0.00    +0.000 A 
ATOM      7  C   UNL     1      50.663   4.307  17.811  0.00  0.00    +0.000 A 
ATOM      8  N   UNL     1      51.774   3.567  18.068  0.00  0.00    +0.000 NA
BRANCH   3  10
ATOM      9  N   UNL     1      53.014   0.326  17.110  0.00  0.00    +0.000 N 
ATOM     10  C   UNL     1      52.822   1.362  17.983  0.00  0.00    +0.000 C 
ATOM     11  O   UNL     1      53.559   1.542  18.945  0.00  0.00    +0.000 OA
ATOM     12  H   UNL     1      53.800  -0.295  17.243  0.00  0.00    +0.000 HD
ATOM     13  H   UNL     1      52.412   0.224  16.301  0.00  0.00    +0.000 HD
ENDBRANCH   3  10
ENDBRANCH   1   6
BRANCH   1  14
ATOM     14  C   UNL     1      47.259   4.090  16.306  0.00  0.00    +0.000 C 
BRANCH  14  15
ATOM     15  C   UNL     1      47.205   4.791  14.960  0.00  0.00    +0.000 A 
ATOM     16  C   UNL     1      46.293   4.360  14.006  0.00  0.00    +0.000 A 
ATOM     17  C   UNL     1      46.266   4.996  12.778  0.00  0.00    +0.000 A 
ATOM     18  N   UNL     1      47.116   6.009  12.535  0.00  0.00    +0.000 NA
ATOM     19  C   UNL     1      47.972   6.356  13.511  0.00  0.00    +0.000 A 
ATOM     20  N   UNL     1      48.064   5.800  14.725  0.00  0.00    +0.000 NA
BRANCH  17  21
ATOM     21  N   UNL     1      45.356   4.642  11.804  0.00  0.00    +0.000 N 
ATOM     22  C   UNL     1      44.478   5.608  11.133  0.00  0.00    +0.000 C 
ATOM     23  C   UNL     1      43.000   5.283  11.421  0.00  0.00    +0.000 C 
ATOM     24  O   UNL     1      42.681   3.921  11.099  0.00  0.00    +0.000 OA
ATOM     25  C   UNL     1      43.485   3.028  11.889  0.00  0.00    +0.000 C 
ATOM     26  C   UNL     1      44.981   3.233  11.618  0.00  0.00    +0.000 C 
ENDBRANCH  17  21
ENDBRANCH  14  15
ENDBRANCH   1  14
TORSDOF 5
ENDMDL
MODEL 6
REMARK VINA RESULT:    -6.238      3.921      5.982
REMARK INTER + INTRA:          -8.701
REMARK INTER:                  -8.094
REMARK INTRA:                  -0.607
REMARK UNBOUND:                -0.639
REMARK  Name = 
REMARK  5 active torsions:
REMARK  status: ('A' for Active; 'I' for Inactive)
REMARK    1  A    between atoms: C_2  and  C_4
REMARK    2  A    between atoms: C_7  and  N_8
REMARK    3  A    between atoms: N_8  and  C_9
REMARK    4  A    between atoms: C_9  and  C_10
REMARK    5  A    between atoms: C_12  and  N_13
REMARK                            x       y       z     vdW  Elec       q    Type
REMARK                         _______ _______ _______ _____ _____    ______ ____
ROOT
ATOM      1  N   UNL     1      46.715   7.075  13.583  0.00  0.00    +0.000 N 
ATOM      2  H   UNL     1      46.692   6.931  14.588  0.00  0.00    +0.000 HD
ENDROOT
BRANCH   1   6
ATOM      3  C   UNL     1      44.800   3.936  11.753  0.00  0.00    +0.000 A 
ATOM      4  C   UNL     1      45.089   5.094  11.053  0.00  0.00    +0.000 A 
ATOM      5  N   UNL     1      45.756   6.139  11.611  0.00  0.00    +0.000 NA
ATOM      6  C   UNL     1      46.141   6.000  12.897  0.00  0.00    +0.000 A 
ATOM      7  C   UNL     1      45.856   4.809  13.582  0.00  0.00    +0.000 A 
ATOM      8  N   UNL     1      45.187   3.753  13.046  0.00  0.00    +0.000 NA
BRANCH   3  10
ATOM      9  N   UNL     1      44.565   2.273  10.010  0.00  0.00    +0.000 N 
ATOM     10  C   UNL     1      43.999   2.863  11.107  0.00  0.00    +0.000 C 
ATOM     11  O   UNL     1      42.907   2.511  11.539  0.00  0.00    +0.000 OA
ATOM     12  H   UNL     1      44.087   1.508   9.556  0.00  0.00    +0.000 HD
ATOM     13  H   UNL     1      45.486   2.558   9.697  0.00  0.00    +0.000 HD
ENDBRANCH   3  10
ENDBRANCH   1   6
BRANCH   1  14
ATOM     14  C   UNL     1      48.047   7.490  13.132  0.00  0.00    +0.000 C 
BRANCH  14  15
ATOM     15  C   UNL     1      49.061   7.267  14.239  0.00  0.00    +0.000 A 
ATOM     16  C   UNL     1      48.736   6.435  15.302  0.00  0.00    +0.000 A 
ATOM     17  C   UNL     1      49.664   6.254  16.312  0.00  0.00    +0.000 A 
ATOM     18  N   UNL     1      50.850   6.882  16.246  0.00  0.00    +0.000 NA
ATOM     19  C   UNL     1      51.079   7.676  15.186  0.00  0.00    +0.000 A 
ATOM     20  N   UNL     1      50.244   7.905  14.166  0.00  0.00    +0.000 NA
BRANCH  17  21
ATOM     21  N   UNL     1      49.416   5.408  17.372  0.00  0.00    +0.000 N 
ATOM     22  C   UNL     1      50.265   4.254  17.698  0.00  0.00    +0.000 C 
ATOM     23  C   UNL     1      49.462   2.946  17.579  0.00  0.00    +0.000 C 
ATOM     24  O   UNL     1      48.255   2.988  18.355  0.00  0.00    +0.000 OA
ATOM     25  C   UNL     1      47.412   4.058  17.895  0.00  0.00    +0.000 C 
ATOM     26  C   UNL     1      48.106   5.419  18.038  0.00  0.00    +0.000 C 
ENDBRANCH  17  21
ENDBRANCH  14  15
ENDBRANCH   1  14
TORSDOF 5
ENDMDL
MODEL 7
REMARK VINA RESULT:    -6.236      3.681      8.033
REMARK INTER + INTRA:          -8.698
REMARK INTER:                  -8.075
REMARK INTRA:                  -0.623
REMARK UNBOUND:                -0.639
REMARK  Name = 
REMARK  5 active torsions:
REMARK  status: ('A' for Active; 'I' for Inactive)
REMARK    1  A    between atoms: C_2  and  C_4
REMARK    2  A    between atoms: C_7  and  N_8
REMARK    3  A    between atoms: N_8  and  C_9
REMARK    4  A    between atoms: C_9  and  C_10
REMARK    5  A    between atoms: C_12  and  N_13
REMARK                            x       y       z     vdW  Elec       q    Type
REMARK                         _______ _______ _______ _____ _____    ______ ____
ROOT
ATOM      1  N   UNL     1      48.528   7.376  14.274  0.00  0.00    +0.000 N 
ATOM      2  H   UNL     1      49.283   8.049  14.183  0.00  0.00    +0.000 HD
ENDROOT
BRANCH   1   6
ATOM      3  C   UNL     1      48.710   5.311  17.819  0.00  0.00    +0.000 A 
ATOM      4  C   UNL     1      48.292   4.686  16.656  0.00  0.00    +0.000 A 
ATOM      5  N   UNL     1      48.255   5.324  15.457  0.00  0.00    +0.000 NA
ATOM      6  C   UNL     1      48.658   6.612  15.438  0.00  0.00    +0.000 A 
ATOM      7  C   UNL     1      49.096   7.220  16.624  0.00  0.00    +0.000 A 
ATOM      8  N   UNL     1      49.138   6.603  17.835  0.00  0.00    +0.000 NA
BRANCH   3  10
ATOM      9  N   UNL     1      48.302   3.259  19.037  0.00  0.00    +0.000 N 
ATOM     10  C   UNL     1      48.652   4.579  19.112  0.00  0.00    +0.000 C 
ATOM     11  O   UNL     1      48.919   5.117  20.180  0.00  0.00    +0.000 OA
ATOM     12  H   UNL     1      48.289   2.700  19.878  0.00  0.00    +0.000 HD
ATOM     13  H   UNL     1      48.124   2.831  18.135  0.00  0.00    +0.000 HD
ENDBRANCH   3  10
ENDBRANCH   1   6
BRANCH   1  14
ATOM     14  C   UNL     1      48.327   6.627  13.030  0.00  0.00    +0.000 C 
BRANCH  14  15
ATOM     15  C   UNL     1      46.945   6.912  12.471  0.00  0.00    +0.000 A 
ATOM     16  C   UNL     1      46.211   5.876  11.908  0.00  0.00    +0.000 A 
ATOM     17  C   UNL     1      44.960   6.153  11.387  0.00  0.00    +0.000 A 
ATOM     18  N   UNL     1      44.484   7.409  11.435  0.00  0.00    +0.000 NA
ATOM     19  C   UNL     1      45.263   8.353  11.989  0.00  0.00    +0.000 A 
ATOM     20  N   UNL     1      46.479   8.174  12.519  0.00  0.00    +0.000 NA
BRANCH  17  21
ATOM     21  N   UNL     1      44.167   5.159  10.853  0.00  0.00    +0.000 N 
ATOM     22  C   UNL     1      43.049   4.544  11.578  0.00  0.00    +0.000 C 
ATOM     23  C   UNL     1      43.305   3.040  11.787  0.00  0.00    +0.000 C 
ATOM     24  O   UNL     1      43.603   2.374  10.551  0.00  0.00    +0.000 OA
ATOM     25  C   UNL     1      44.787   2.939   9.960  0.00  0.00    +0.000 C 
ATOM     26  C   UNL     1      44.601   4.431   9.653  0.00  0.00    +0.000 C 
ENDBRANCH  17  21
ENDBRANCH  14  15
ENDBRANCH   1  14
TORSDOF 5
ENDMDL
MODEL 8
REMARK VINA RESULT:    -5.577      5.012      8.926
REMARK INTER + INTRA:          -7.847
REMARK INTER:                  -7.330
REMARK INTRA:                  -0.517
REMARK UNBOUND:                -0.639
REMARK  Name = 
REMARK  5 active torsions:
REMARK  status: ('A' for Active; 'I' for Inactive)
REMARK    1  A    between atoms: C_2  and  C_4
REMARK    2  A    between atoms: C_7  and  N_8
REMARK    3  A    between atoms: N_8  and  C_9
REMARK    4  A    between atoms: C_9  and  C_10
REMARK    5  A    between atoms: C_12  and  N_13
REMARK                            x       y       z     vdW  Elec       q    Type
REMARK                         _______ _______ _______ _____ _____    ______ ____
ROOT
ATOM      1  N   UNL     1      47.684   5.291  16.861  0.00  0.00    +0.000 N 
ATOM      2  H   UNL     1      47.726   6.231  16.480  0.00  0.00    +0.000 HD
ENDROOT
BRANCH   1   6
ATOM      3  C   UNL     1      50.945   4.809  19.310  0.00  0.00    +0.000 A 
ATOM      4  C   UNL     1      49.661   4.770  19.825  0.00  0.00    +0.000 A 
ATOM      5  N   UNL     1      48.555   4.886  19.042  0.00  0.00    +0.000 NA
ATOM      6  C   UNL     1      48.759   5.035  17.717  0.00  0.00    +0.000 A 
ATOM      7  C   UNL     1      50.068   5.053  17.214  0.00  0.00    +0.000 A 
ATOM      8  N   UNL     1      51.189   4.942  17.977  0.00  0.00    +0.000 NA
BRANCH   3  10
ATOM      9  N   UNL     1      53.007   3.746  20.003  0.00  0.00    +0.000 N 
ATOM     10  C   UNL     1      52.112   4.755  20.231  0.00  0.00    +0.000 C 
ATOM     11  O   UNL     1      52.276   5.575  21.127  0.00  0.00    +0.000 OA
ATOM     12  H   UNL     1      53.841   3.686  20.568  0.00  0.00    +0.000 HD
ATOM     13  H   UNL     1      52.865   3.106  19.230  0.00  0.00    +0.000 HD
ENDBRANCH   3  10
ENDBRANCH   1   6
BRANCH   1  14
ATOM     14  C   UNL     1      47.445   4.297  15.810  0.00  0.00    +0.000 C 
BRANCH  14  15
ATOM     15  C   UNL     1      47.174   4.994  14.489  0.00  0.00    +0.000 A 
ATOM     16  C   UNL     1      46.133   4.547  13.686  0.00  0.00    +0.000 A 
ATOM     17  C   UNL     1      45.908   5.181  12.477  0.00  0.00    +0.000 A 
ATOM     18  N   UNL     1      46.694   6.206  12.107  0.00  0.00    +0.000 NA
ATOM     19  C   UNL     1      47.683   6.569  12.941  0.00  0.00    +0.000 A 
ATOM     20  N   UNL     1      47.970   6.016  14.126  0.00  0.00    +0.000 NA
BRANCH  17  21
ATOM     21  N   UNL     1      44.864   4.810  11.655  0.00  0.00    +0.000 N 
ATOM     22  C   UNL     1      43.567   4.343  12.160  0.00  0.00    +0.000 C 
ATOM     23  C   UNL     1      43.305   2.895  11.709  0.00  0.00    +0.000 C 
ATOM     24  O   UNL     1      43.437   2.746  10.288  0.00  0.00    +0.000 OA
ATOM     25  C   UNL     1      44.772   3.093   9.879  0.00  0.00    +0.000 C 
ATOM     26  C   UNL     1      45.103   4.550  10.228  0.00  0.00    +0.000 C 
ENDBRANCH  17  21
ENDBRANCH  14  15
ENDBRANCH   1  14
TORSDOF 5
ENDMDL
MODEL 9
REMARK VINA RESULT:    -5.367      4.460      6.404
REMARK INTER + INTRA:          -7.575
REMARK INTER:                  -6.951
REMARK INTRA:                  -0.624
REMARK UNBOUND:                -0.639
REMARK  Name = 
REMARK  5 active torsions:
REMARK  status: ('A' for Active; 'I' for Inactive)
REMARK    1  A    between atoms: C_2  and  C_4
REMARK    2  A    between atoms: C_7  and  N_8
REMARK    3  A    between atoms: N_8  and  C_9
REMARK    4  A    between atoms: C_9  and  C_10
REMARK    5  A    between atoms: C_12  and  N_13
REMARK                            x       y       z     vdW  Elec       q    Type
REMARK                         _______ _______ _______ _____ _____    ______ ____
ROOT
ATOM      1  N   UNL     1      47.602   3.219  14.992  0.00  0.00    +0.000 N 
ATOM      2  H   UNL     1      48.584   3.382  14.788  0.00  0.00    +0.000 HD
ENDROOT
BRANCH   1   6
ATOM      3  C   UNL     1      45.405   5.398  12.292  0.00  0.00    +0.000 A 
ATOM      4  C   UNL     1      45.273   4.022  12.366  0.00  0.00    +0.000 A 
ATOM      5  N   UNL     1      45.953   3.270  13.272  0.00  0.00    +0.000 NA
ATOM      6  C   UNL     1      46.772   3.928  14.119  0.00  0.00    +0.000 A 
ATOM      7  C   UNL     1      46.875   5.325  14.040  0.00  0.00    +0.000 A 
ATOM      8  N   UNL     1      46.209   6.097  13.140  0.00  0.00    +0.000 NA
BRANCH   3  10
ATOM      9  N   UNL     1      43.945   5.402  10.361  0.00  0.00    +0.000 N 
ATOM     10  C   UNL     1      44.693   6.152  11.226  0.00  0.00    +0.000 C 
ATOM     11  O   UNL     1      44.754   7.373  11.137  0.00  0.00    +0.000 OA
ATOM     12  H   UNL     1      43.404   5.863   9.644  0.00  0.00    +0.000 HD
ATOM     13  H   UNL     1      43.883   4.397  10.482  0.00  0.00    +0.000 HD
ENDBRANCH   3  10
ENDBRANCH   1   6
BRANCH   1  14
ATOM     14  C   UNL     1      47.319   3.375  16.422  0.00  0.00    +0.000 C 
BRANCH  14  15
ATOM     15  C   UNL     1      48.452   4.129  17.095  0.00  0.00    +0.000 A 
ATOM     16  C   UNL     1      48.168   5.283  17.813  0.00  0.00    +0.000 A 
ATOM     17  C   UNL     1      49.212   5.970  18.408  0.00  0.00    +0.000 A 
ATOM     18  N   UNL     1      50.468   5.510  18.279  0.00  0.00    +0.000 NA
ATOM     19  C   UNL     1      50.655   4.391  17.560  0.00  0.00    +0.000 A 
ATOM     20  N   UNL     1      49.707   3.664  16.955  0.00  0.00    +0.000 NA
BRANCH  17  21
ATOM     21  N   UNL     1      48.989   7.098  19.169  0.00  0.00    +0.000 N 
ATOM     22  C   UNL     1      47.648   7.588  19.511  0.00  0.00    +0.000 C 
ATOM     23  C   UNL     1      47.419   8.989  18.917  0.00  0.00    +0.000 C 
ATOM     24  O   UNL     1      48.460   9.904  19.292  0.00  0.00    +0.000 OA
ATOM     25  C   UNL     1      49.729   9.430  18.809  0.00  0.00    +0.000 C 
ATOM     26  C   UNL     1      50.077   8.058  19.404  0.00  0.00    +0.000 C 
ENDBRANCH  17  21
ENDBRANCH  14  15
ENDBRANCH   1  14
TORSDOF 5
ENDMDL
