MODEL 1
REMARK VINA RESULT:    -8.416      0.000      0.000
REMARK INTER + INTRA:         -11.855
REMARK INTER:                 -10.876
REMARK INTRA:                  -0.978
REMARK UNBOUND:                -0.978
REMARK  Name = 
REMARK  5 active torsions:
REMARK  status: ('A' for Active; 'I' for Inactive)
REMARK    1  A    between atoms: C_2  and  C_3
REMARK    2  A    between atoms: C_6  and  N_7
REMARK    3  A    between atoms: N_7  and  C_8
REMARK    4  A    between atoms: C_8  and  C_9
REMARK    5  A    between atoms: C_13  and  C_14
REMARK                            x       y       z     vdW  Elec       q    Type
REMARK                         _______ _______ _______ _____ _____    ______ ____
ROOT
ATOM      1  C   UNL     1      43.874   4.978  11.155  0.00  0.00    +0.000 C 
ATOM      2  C   UNL     1      42.599   5.066  11.983  0.00  0.00    +0.000 C 
ATOM      3  C   UNL     1      42.974   6.188  11.074  0.00  0.00    +0.000 C 
ENDROOT
BRANCH   1   4
ATOM      4  C   UNL     1      45.226   5.106  11.836  0.00  0.00    +0.000 A 
ATOM      5  C   UNL     1      45.628   4.252  12.874  0.00  0.00    +0.000 A 
ATOM      6  C   UNL     1      46.769   4.525  13.627  0.00  0.00    +0.000 A 
ATOM      7  C   UNL     1      47.519   5.672  13.366  0.00  0.00    +0.000 A 
ATOM      8  C   UNL     1      47.164   6.555  12.332  0.00  0.00    +0.000 A 
ATOM      9  C   UNL     1      46.042   6.218  11.557  0.00  0.00    +0.000 A 
BRANCH   8  10
ATOM     10  C   UNL     1      47.859   7.846  12.134  0.00  0.00    +0.000 A 
ATOM     11  C   UNL     1      49.175   7.879  11.633  0.00  0.00    +0.000 A 
ATOM     12  C   UNL     1      49.877   9.078  11.486  0.00  0.00    +0.000 A 
ATOM     13  C   UNL     1      49.282  10.280  11.859  0.00  0.00    +0.000 A 
ATOM     14  C   UNL     1      47.988  10.281  12.371  0.00  0.00    +0.000 A 
ATOM     15  C   UNL     1      47.290   9.079  12.499  0.00  0.00    +0.000 A 
ATOM     16  F   UNL     1      46.047   9.136  13.001  0.00  0.00    +0.000 F 
ENDBRANCH   8  10
ENDBRANCH   1   4
BRANCH   1  17
ATOM     17  N   UNL     1      43.837   3.842  10.214  0.00  0.00    +0.000 N 
ATOM     18  H   UNL     1      43.411   3.012  10.622  0.00  0.00    +0.000 HD
BRANCH  17  22
ATOM     19  C   UNL     1      46.635   2.583   7.470  0.00  0.00    +0.000 A 
ATOM     20  N   UNL     1      46.359   3.896   7.467  0.00  0.00    +0.000 NA
ATOM     21  C   UNL     1      45.467   4.312   8.395  0.00  0.00    +0.000 A 
ATOM     22  C   UNL     1      44.861   3.492   9.327  0.00  0.00    +0.000 A 
ATOM     23  C   UNL     1      45.238   2.158   9.214  0.00  0.00    +0.000 A 
ATOM     24  N   UNL     1      46.120   1.672   8.318  0.00  0.00    +0.000 NA
BRANCH  19  26
ATOM     25  N   UNL     1      48.279   1.696   5.656  0.00  0.00    +0.000 NA
ATOM     26  C   UNL     1      47.531   2.090   6.453  0.00  0.00    +0.000 C 
ENDBRANCH  19  26
ENDBRANCH  17  22
ENDBRANCH   1  17
TORSDOF 5
ENDMDL
MODEL 2
REMARK VINA RESULT:    -8.031      3.427      6.954
REMARK INTER + INTRA:         -11.357
REMARK INTER:                 -10.412
REMARK INTRA:                  -0.946
REMARK UNBOUND:                -0.978
REMARK  Name = 
REMARK  5 active torsions:
REMARK  status: ('A' for Active; 'I' for Inactive)
REMARK    1  A    between atoms: C_2  and  C_3
REMARK    2  A    between atoms: C_6  and  N_7
REMARK    3  A    between atoms: N_7  and  C_8
REMARK    4  A    between atoms: C_8  and  C_9
REMARK    5  A    between atoms: C_13  and  C_14
REMARK                            x       y       z     vdW  Elec       q    Type
REMARK                         _______ _______ _______ _____ _____    ______ ____
ROOT
ATOM      1  C   UNL     1      46.160   7.328  12.142  0.00  0.00    +0.000 C 
ATOM      2  C   UNL     1      46.461   8.761  11.723  0.00  0.00    +0.000 C 
ATOM      3  C   UNL     1      45.583   8.499  12.901  0.00  0.00    +0.000 C 
ENDROOT
BRANCH   1   4
ATOM      4  C   UNL     1      45.238   6.471  11.291  0.00  0.00    +0.000 A 
ATOM      5  C   UNL     1      43.882   6.292  11.599  0.00  0.00    +0.000 A 
ATOM      6  C   UNL     1      43.116   5.332  10.939  0.00  0.00    +0.000 A 
ATOM      7  C   UNL     1      43.702   4.519   9.968  0.00  0.00    +0.000 A 
ATOM      8  C   UNL     1      45.054   4.664   9.616  0.00  0.00    +0.000 A 
ATOM      9  C   UNL     1      45.780   5.679  10.261  0.00  0.00    +0.000 A 
BRANCH   8  10
ATOM     10  C   UNL     1      45.728   3.719   8.699  0.00  0.00    +0.000 A 
ATOM     11  C   UNL     1      46.458   4.197   7.592  0.00  0.00    +0.000 A 
ATOM     12  C   UNL     1      47.060   3.329   6.678  0.00  0.00    +0.000 A 
ATOM     13  C   UNL     1      46.927   1.952   6.837  0.00  0.00    +0.000 A 
ATOM     14  C   UNL     1      46.201   1.448   7.912  0.00  0.00    +0.000 A 
ATOM     15  C   UNL     1      45.616   2.324   8.828  0.00  0.00    +0.000 A 
ATOM     16  F   UNL     1      44.924   1.785   9.844  0.00  0.00    +0.000 F 
ENDBRANCH   8  10
ENDBRANCH   1   4
BRANCH   1  17
ATOM     17  N   UNL     1      47.386   6.602  12.526  0.00  0.00    +0.000 N 
ATOM     18  H   UNL     1      47.917   6.280  11.719  0.00  0.00    +0.000 HD
BRANCH  17  22
ATOM     19  C   UNL     1      47.567   4.178  15.848  0.00  0.00    +0.000 A 
ATOM     20  N   UNL     1      46.888   3.688  14.799  0.00  0.00    +0.000 NA
ATOM     21  C   UNL     1      46.862   4.471  13.697  0.00  0.00    +0.000 A 
ATOM     22  C   UNL     1      47.492   5.695  13.587  0.00  0.00    +0.000 A 
ATOM     23  C   UNL     1      48.156   6.079  14.747  0.00  0.00    +0.000 A 
ATOM     24  N   UNL     1      48.226   5.352  15.881  0.00  0.00    +0.000 NA
BRANCH  19  26
ATOM     25  N   UNL     1      47.576   2.802  18.058  0.00  0.00    +0.000 NA
ATOM     26  C   UNL     1      47.561   3.402  17.064  0.00  0.00    +0.000 C 
ENDBRANCH  19  26
ENDBRANCH  17  22
ENDBRANCH   1  17
TORSDOF 5
ENDMDL
MODEL 3
REMARK VINA RESULT:    -7.257      2.277      3.974
REMARK INTER + INTRA:         -10.356
REMARK INTER:                  -9.838
REMARK INTRA:                  -0.518
REMARK UNBOUND:                -0.978
REMARK  Name = 
REMARK  5 active torsions:
REMARK  status: ('A' for Active; 'I' for Inactive)
REMARK    1  A    between atoms: C_2  and  C_3
REMARK    2  A    between atoms: C_6  and  N_7
REMARK    3  A    between atoms: N_7  and  C_8
REMARK    4  A    between atoms: C_8  and  C_9
REMARK    5  A    between atoms: C_13  and  C_14
REMARK                            x       y       z     vdW  Elec       q    Type
REMARK                         _______ _______ _______ _____ _____    ______ ____
ROOT
ATOM      1  C   UNL     1      44.155   5.121  11.761  0.00  0.00    +0.000 C 
ATOM      2  C   UNL     1      42.837   5.193  12.519  0.00  0.00    +0.000 C 
ATOM      3  C   UNL     1      43.043   6.037  11.307  0.00  0.00    +0.000 C 
ENDROOT
BRANCH   1   4
ATOM      4  C   UNL     1      45.409   5.725  12.369  0.00  0.00    +0.000 A 
ATOM      5  C   UNL     1      46.230   6.620  11.666  0.00  0.00    +0.000 A 
ATOM      6  C   UNL     1      47.482   6.984  12.158  0.00  0.00    +0.000 A 
ATOM      7  C   UNL     1      47.945   6.442  13.357  0.00  0.00    +0.000 A 
ATOM      8  C   UNL     1      47.159   5.548  14.104  0.00  0.00    +0.000 A 
ATOM      9  C   UNL     1      45.880   5.249  13.607  0.00  0.00    +0.000 A 
BRANCH   8  10
ATOM     10  C   UNL     1      47.688   4.853  15.298  0.00  0.00    +0.000 A 
ATOM     11  C   UNL     1      48.237   5.588  16.367  0.00  0.00    +0.000 A 
ATOM     12  C   UNL     1      48.793   4.958  17.484  0.00  0.00    +0.000 A 
ATOM     13  C   UNL     1      48.833   3.568  17.549  0.00  0.00    +0.000 A 
ATOM     14  C   UNL     1      48.311   2.813  16.503  0.00  0.00    +0.000 A 
ATOM     15  C   UNL     1      47.744   3.452  15.399  0.00  0.00    +0.000 A 
ATOM     16  F   UNL     1      47.259   2.676  14.417  0.00  0.00    +0.000 F 
ENDBRANCH   8  10
ENDBRANCH   1   4
BRANCH   1  17
ATOM     17  N   UNL     1      44.402   3.771  11.220  0.00  0.00    +0.000 N 
ATOM     18  H   UNL     1      44.832   3.150  11.903  0.00  0.00    +0.000 HD
BRANCH  17  22
ATOM     19  C   UNL     1      46.034   3.122   7.497  0.00  0.00    +0.000 A 
ATOM     20  N   UNL     1      45.707   2.023   8.195  0.00  0.00    +0.000 NA
ATOM     21  C   UNL     1      45.136   2.240   9.402  0.00  0.00    +0.000 A 
ATOM     22  C   UNL     1      44.862   3.487   9.929  0.00  0.00    +0.000 A 
ATOM     23  C   UNL     1      45.255   4.533   9.100  0.00  0.00    +0.000 A 
ATOM     24  N   UNL     1      45.826   4.394   7.887  0.00  0.00    +0.000 NA
BRANCH  19  26
ATOM     25  N   UNL     1      47.259   2.747   5.230  0.00  0.00    +0.000 NA
ATOM     26  C   UNL     1      46.705   2.931   6.235  0.00  0.00    +0.000 C 
ENDBRANCH  19  26
ENDBRANCH  17  22
ENDBRANCH   1  17
TORSDOF 5
ENDMDL
MODEL 4
REMARK VINA RESULT:    -6.503      5.813      8.325
REMARK INTER + INTRA:          -9.382
REMARK INTER:                  -8.802
REMARK INTRA:                  -0.580
REMARK UNBOUND:                -0.978
REMARK  Name = 
REMARK  5 active torsions:
REMARK  status: ('A' for Active; 'I' for Inactive)
REMARK    1  A    between atoms: C_2  and  C_3
REMARK    2  A    between atoms: C_6  and  N_7
REMARK    3  A    between atoms: N_7  and  C_8
REMARK    4  A    between atoms: C_8  and  C_9
REMARK    5  A    between atoms: C_13  and  C_14
REMARK                            x       y       z     vdW  Elec       q    Type
REMARK                         _______ _______ _______ _____ _____    ______ ____
ROOT
ATOM      1  C   UNL     1      48.154   4.486  17.022  0.00  0.00    +0.000 C 
ATOM      2  C   UNL     1      47.164   4.794  18.137  0.00  0.00    +0.000 C 
ATOM      3  C   UNL     1      47.145   3.457  17.475  0.00  0.00    +0.000 C 
ENDROOT
BRANCH   1   4
ATOM      4  C   UNL     1      47.984   5.139  15.661  0.00  0.00    +0.000 A 
ATOM      5  C   UNL     1      48.674   6.304  15.295  0.00  0.00    +0.000 A 
ATOM      6  C   UNL     1      48.339   7.004  14.138  0.00  0.00    +0.000 A 
ATOM      7  C   UNL     1      47.290   6.559  13.332  0.00  0.00    +0.000 A 
ATOM      8  C   UNL     1      46.573   5.392  13.649  0.00  0.00    +0.000 A 
ATOM      9  C   UNL     1      46.976   4.682  14.792  0.00  0.00    +0.000 A 
BRANCH   8  10
ATOM     10  C   UNL     1      45.369   4.986  12.892  0.00  0.00    +0.000 A 
ATOM     11  C   UNL     1      44.356   5.923  12.605  0.00  0.00    +0.000 A 
ATOM     12  C   UNL     1      43.183   5.558  11.940  0.00  0.00    +0.000 A 
ATOM     13  C   UNL     1      42.984   4.233  11.561  0.00  0.00    +0.000 A 
ATOM     14  C   UNL     1      43.959   3.280  11.841  0.00  0.00    +0.000 A 
ATOM     15  C   UNL     1      45.134   3.658  12.493  0.00  0.00    +0.000 A 
ATOM     16  F   UNL     1      46.040   2.699  12.742  0.00  0.00    +0.000 F 
ENDBRANCH   8  10
ENDBRANCH   1   4
BRANCH   1  17
ATOM     17  N   UNL     1      49.550   4.556  17.495  0.00  0.00    +0.000 N 
ATOM     18  H   UNL     1      49.997   5.441  17.260  0.00  0.00    +0.000 HD
BRANCH  17  22
ATOM     19  C   UNL     1      52.304   1.504  17.711  0.00  0.00    +0.000 A 
ATOM     20  N   UNL     1      51.119   1.189  17.163  0.00  0.00    +0.000 NA
ATOM     21  C   UNL     1      50.230   2.203  17.060  0.00  0.00    +0.000 A 
ATOM     22  C   UNL     1      50.473   3.505  17.454  0.00  0.00    +0.000 A 
ATOM     23  C   UNL     1      51.738   3.687  18.004  0.00  0.00    +0.000 A 
ATOM     24  N   UNL     1      52.674   2.726  18.137  0.00  0.00    +0.000 NA
BRANCH  19  26
ATOM     25  N   UNL     1      54.011  -0.426  18.084  0.00  0.00    +0.000 NA
ATOM     26  C   UNL     1      53.253   0.434  17.899  0.00  0.00    +0.000 C 
ENDBRANCH  19  26
ENDBRANCH  17  22
ENDBRANCH   1  17
TORSDOF 5
ENDMDL
MODEL 5
REMARK VINA RESULT:    -6.425      3.414      6.994
REMARK INTER + INTRA:          -9.282
REMARK INTER:                  -8.584
REMARK INTRA:                  -0.697
REMARK UNBOUND:                -0.978
REMARK  Name = 
REMARK  5 active torsions:
REMARK  status: ('A' for Active; 'I' for Inactive)
REMARK    1  A    between atoms: C_2  and  C_3
REMARK    2  A    between atoms: C_6  and  N_7
REMARK    3  A    between atoms: N_7  and  C_8
REMARK    4  A    between atoms: C_8  and  C_9
REMARK    5  A    between atoms: C_13  and  C_14
REMARK                            x       y       z     vdW  Elec       q    Type
REMARK                         _______ _______ _______ _____ _____    ______ ____
ROOT
ATOM      1  C   UNL     1      48.624   8.340  12.585  0.00  0.00    +0.000 C 
ATOM      2  C   UNL     1      49.635   9.074  11.715  0.00  0.00    +0.000 C 
ATOM      3  C   UNL     1      49.065   9.746  12.918  0.00  0.00    +0.000 C 
ENDROOT
BRANCH   1   4
ATOM      4  C   UNL     1      47.213   8.109  12.070  0.00  0.00    +0.000 A 
ATOM      5  C   UNL     1      46.126   8.895  12.479  0.00  0.00    +0.000 A 
ATOM      6  C   UNL     1      44.817   8.528  12.170  0.00  0.00    +0.000 A 
ATOM      7  C   UNL     1      44.572   7.352  11.459  0.00  0.00    +0.000 A 
ATOM      8  C   UNL     1      45.627   6.535  11.018  0.00  0.00    +0.000 A 
ATOM      9  C   UNL     1      46.934   6.966  11.299  0.00  0.00    +0.000 A 
BRANCH   8  10
ATOM     10  C   UNL     1      45.383   5.217  10.393  0.00  0.00    +0.000 A 
ATOM     11  C   UNL     1      45.630   5.021   9.020  0.00  0.00    +0.000 A 
ATOM     12  C   UNL     1      45.360   3.804   8.389  0.00  0.00    +0.000 A 
ATOM     13  C   UNL     1      44.811   2.752   9.118  0.00  0.00    +0.000 A 
ATOM     14  C   UNL     1      44.543   2.917  10.473  0.00  0.00    +0.000 A 
ATOM     15  C   UNL     1      44.831   4.131  11.097  0.00  0.00    +0.000 A 
ATOM     16  F   UNL     1      44.549   4.238  12.405  0.00  0.00    +0.000 F 
ENDBRANCH   8  10
ENDBRANCH   1   4
BRANCH   1  17
ATOM     17  N   UNL     1      49.199   7.119  13.180  0.00  0.00    +0.000 N 
ATOM     18  H   UNL     1      49.645   6.520  12.487  0.00  0.00    +0.000 HD
BRANCH  17  22
ATOM     19  C   UNL     1      47.591   4.593  16.005  0.00  0.00    +0.000 A 
ATOM     20  N   UNL     1      48.344   5.599  16.477  0.00  0.00    +0.000 NA
ATOM     21  C   UNL     1      48.840   6.449  15.549  0.00  0.00    +0.000 A 
ATOM     22  C   UNL     1      48.605   6.354  14.191  0.00  0.00    +0.000 A 
ATOM     23  C   UNL     1      47.812   5.265  13.844  0.00  0.00    +0.000 A 
ATOM     24  N   UNL     1      47.282   4.380  14.712  0.00  0.00    +0.000 NA
BRANCH  19  26
ATOM     25  N   UNL     1      46.678   2.844  17.704  0.00  0.00    +0.000 NA
ATOM     26  C   UNL     1      47.100   3.628  16.958  0.00  0.00    +0.000 C 
ENDBRANCH  19  26
ENDBRANCH  17  22
ENDBRANCH   1  17
TORSDOF 5
ENDMDL
MODEL 6
REMARK VINA RESULT:    -6.315      3.305      6.062
REMARK INTER + INTRA:          -9.139
REMARK INTER:                  -8.197
REMARK INTRA:                  -0.942
REMARK UNBOUND:                -0.978
REMARK  Name = 
REMARK  5 active torsions:
REMARK  status: ('A' for Active; 'I' for Inactive)
REMARK    1  A    between atoms: C_2  and  C_3
REMARK    2  A    between atoms: C_6  and  N_7
REMARK    3  A    between atoms: N_7  and  C_8
REMARK    4  A    between atoms: C_8  and  C_9
REMARK    5  A    between atoms: C_13  and  C_14
REMARK                            x       y       z     vdW  Elec       q    Type
REMARK                         _______ _______ _______ _____ _____    ______ ____
ROOT
ATOM      1  C   UNL     1      48.115   7.942  12.527  0.00  0.00    +0.000 C 
ATOM      2  C   UNL     1      49.054   8.871  11.769  0.00  0.00    +0.000 C 
ATOM      3  C   UNL     1      49.285   7.397  11.743  0.00  0.00    +0.000 C 
ENDROOT
BRANCH   1   4
ATOM      4  C   UNL     1      48.159   7.900  14.045  0.00  0.00    +0.000 A 
ATOM      5  C   UNL     1      48.212   9.063  14.828  0.00  0.00    +0.000 A 
ATOM      6  C   UNL     1      48.474   8.997  16.196  0.00  0.00    +0.000 A 
ATOM      7  C   UNL     1      48.707   7.762  16.802  0.00  0.00    +0.000 A 
ATOM      8  C   UNL     1      48.656   6.568  16.065  0.00  0.00    +0.000 A 
ATOM      9  C   UNL     1      48.333   6.668  14.702  0.00  0.00    +0.000 A 
BRANCH   8  10
ATOM     10  C   UNL     1      49.042   5.268  16.657  0.00  0.00    +0.000 A 
ATOM     11  C   UNL     1      50.344   5.072  17.161  0.00  0.00    +0.000 A 
ATOM     12  C   UNL     1      50.755   3.840  17.677  0.00  0.00    +0.000 A 
ATOM     13  C   UNL     1      49.875   2.761  17.681  0.00  0.00    +0.000 A 
ATOM     14  C   UNL     1      48.588   2.918  17.178  0.00  0.00    +0.000 A 
ATOM     15  C   UNL     1      48.181   4.157  16.679  0.00  0.00    +0.000 A 
ATOM     16  F   UNL     1      46.930   4.252  16.203  0.00  0.00    +0.000 F 
ENDBRANCH   8  10
ENDBRANCH   1   4
BRANCH   1  17
ATOM     17  N   UNL     1      46.733   8.028  12.019  0.00  0.00    +0.000 N 
ATOM     18  H   UNL     1      46.254   8.871  12.333  0.00  0.00    +0.000 HD
BRANCH  17  22
ATOM     19  C   UNL     1      44.376   4.669  11.689  0.00  0.00    +0.000 A 
ATOM     20  N   UNL     1      44.174   5.423  12.781  0.00  0.00    +0.000 NA
ATOM     21  C   UNL     1      44.924   6.546  12.868  0.00  0.00    +0.000 A 
ATOM     22  C   UNL     1      45.839   6.956  11.917  0.00  0.00    +0.000 A 
ATOM     23  C   UNL     1      45.946   6.079  10.842  0.00  0.00    +0.000 A 
ATOM     24  N   UNL     1      45.232   4.946  10.687  0.00  0.00    +0.000 NA
BRANCH  19  26
ATOM     25  N   UNL     1      43.073   2.420  11.542  0.00  0.00    +0.000 NA
ATOM     26  C   UNL     1      43.643   3.430  11.594  0.00  0.00    +0.000 C 
ENDBRANCH  19  26
ENDBRANCH  17  22
ENDBRANCH   1  17
TORSDOF 5
ENDMDL
MODEL 7
REMARK VINA RESULT:    -6.100      4.448      8.091
REMARK INTER + INTRA:          -8.861
REMARK INTER:                  -7.753
REMARK INTRA:                  -1.108
REMARK UNBOUND:                -0.978
REMARK  Name = 
REMARK  5 active torsions:
REMARK  status: ('A' for Active; 'I' for Inactive)
REMARK    1  A    between atoms: C_2  and  C_3
REMARK    2  A    between atoms: C_6  and  N_7
REMARK    3  A    between atoms: N_7  and  C_8
REMARK    4  A    between atoms: C_8  and  C_9
REMARK    5  A    between atoms: C_13  and  C_14
REMARK                            x       y       z     vdW  Elec       q    Type
REMARK                         _______ _______ _______ _____ _____    ______ ____
ROOT
ATOM      1  C   UNL     1      49.240   7.877  12.470  0.00  0.00    +0.000 C 
ATOM      2  C   UNL     1      50.293   7.667  11.391  0.00  0.00    +0.000 C 
ATOM      3  C   UNL     1      50.192   8.984  12.085  0.00  0.00    +0.000 C 
ENDROOT
BRANCH   1   4
ATOM      4  C   UNL     1      47.775   7.992  12.082  0.00  0.00    +0.000 A 
ATOM      5  C   UNL     1      47.064   9.196  12.183  0.00  0.00    +0.000 A 
ATOM      6  C   UNL     1      45.678   9.227  12.036  0.00  0.00    +0.000 A 
ATOM      7  C   UNL     1      44.976   8.044  11.801  0.00  0.00    +0.000 A 
ATOM      8  C   UNL     1      45.642   6.813  11.682  0.00  0.00    +0.000 A 
ATOM      9  C   UNL     1      47.043   6.829  11.780  0.00  0.00    +0.000 A 
BRANCH   8  10
ATOM     10  C   UNL     1      44.906   5.534  11.579  0.00  0.00    +0.000 A 
ATOM     11  C   UNL     1      44.225   5.010  12.697  0.00  0.00    +0.000 A 
ATOM     12  C   UNL     1      43.567   3.779  12.647  0.00  0.00    +0.000 A 
ATOM     13  C   UNL     1      43.592   3.026  11.476  0.00  0.00    +0.000 A 
ATOM     14  C   UNL     1      44.267   3.508  10.359  0.00  0.00    +0.000 A 
ATOM     15  C   UNL     1      44.908   4.746  10.414  0.00  0.00    +0.000 A 
ATOM     16  F   UNL     1      45.547   5.162   9.310  0.00  0.00    +0.000 F 
ENDBRANCH   8  10
ENDBRANCH   1   4
BRANCH   1  17
ATOM     17  N   UNL     1      49.435   6.962  13.611  0.00  0.00    +0.000 N 
ATOM     18  H   UNL     1      49.249   5.990  13.367  0.00  0.00    +0.000 HD
BRANCH  17  22
ATOM     19  C   UNL     1      48.589   7.528  17.599  0.00  0.00    +0.000 A 
ATOM     20  N   UNL     1      48.815   8.640  16.883  0.00  0.00    +0.000 NA
ATOM     21  C   UNL     1      49.056   8.453  15.565  0.00  0.00    +0.000 A 
ATOM     22  C   UNL     1      49.062   7.225  14.933  0.00  0.00    +0.000 A 
ATOM     23  C   UNL     1      48.814   6.161  15.796  0.00  0.00    +0.000 A 
ATOM     24  N   UNL     1      48.565   6.271  17.116  0.00  0.00    +0.000 NA
BRANCH  19  26
ATOM     25  N   UNL     1      48.209   7.786  20.162  0.00  0.00    +0.000 NA
ATOM     26  C   UNL     1      48.395   7.682  19.020  0.00  0.00    +0.000 C 
ENDBRANCH  19  26
ENDBRANCH  17  22
ENDBRANCH   1  17
TORSDOF 5
ENDMDL
MODEL 8
REMARK VINA RESULT:    -5.730      4.212      6.460
REMARK INTER + INTRA:          -8.383
REMARK INTER:                  -7.438
REMARK INTRA:                  -0.946
REMARK UNBOUND:                -0.978
REMARK  Name = 
REMARK  5 active torsions:
REMARK  status: ('A' for Active; 'I' for Inactive)
REMARK    1  A    between atoms: C_2  and  C_3
REMARK    2  A    between atoms: C_6  and  N_7
REMARK    3  A    between atoms: N_7  and  C_8
REMARK    4  A    between atoms: C_8  and  C_9
REMARK    5  A    between atoms: C_13  and  C_14
REMARK                            x       y       z     vdW  Elec       q    Type
REMARK                         _______ _______ _______ _____ _____    ______ ____
ROOT
ATOM      1  C   UNL     1      48.191   7.788  13.192  0.00  0.00    +0.000 C 
ATOM      2  C   UNL     1      48.277   8.924  12.183  0.00  0.00    +0.000 C 
ATOM      3  C   UNL     1      48.792   7.571  11.823  0.00  0.00    +0.000 C 
ENDROOT
BRANCH   1   4
ATOM      4  C   UNL     1      49.101   7.787  14.408  0.00  0.00    +0.000 A 
ATOM      5  C   UNL     1      50.499   7.739  14.301  0.00  0.00    +0.000 A 
ATOM      6  C   UNL     1      51.298   7.515  15.421  0.00  0.00    +0.000 A 
ATOM      7  C   UNL     1      50.708   7.318  16.670  0.00  0.00    +0.000 A 
ATOM      8  C   UNL     1      49.314   7.366  16.833  0.00  0.00    +0.000 A 
ATOM      9  C   UNL     1      48.544   7.650  15.693  0.00  0.00    +0.000 A 
BRANCH   8  10
ATOM     10  C   UNL     1      48.665   7.016  18.115  0.00  0.00    +0.000 A 
ATOM     11  C   UNL     1      48.199   8.028  18.979  0.00  0.00    +0.000 A 
ATOM     12  C   UNL     1      47.631   7.731  20.221  0.00  0.00    +0.000 A 
ATOM     13  C   UNL     1      47.533   6.407  20.641  0.00  0.00    +0.000 A 
ATOM     14  C   UNL     1      47.997   5.386  19.817  0.00  0.00    +0.000 A 
ATOM     15  C   UNL     1      48.548   5.692  18.572  0.00  0.00    +0.000 A 
ATOM     16  F   UNL     1      48.983   4.669  17.820  0.00  0.00    +0.000 F 
ENDBRANCH   8  10
ENDBRANCH   1   4
BRANCH   1  17
ATOM     17  N   UNL     1      46.793   7.480  13.552  0.00  0.00    +0.000 N 
ATOM     18  H   UNL     1      46.612   7.602  14.547  0.00  0.00    +0.000 HD
BRANCH  17  22
ATOM     19  C   UNL     1      44.523   4.266  12.343  0.00  0.00    +0.000 A 
ATOM     20  N   UNL     1      44.097   5.472  11.937  0.00  0.00    +0.000 NA
ATOM     21  C   UNL     1      44.866   6.523  12.305  0.00  0.00    +0.000 A 
ATOM     22  C   UNL     1      46.036   6.425  13.032  0.00  0.00    +0.000 A 
ATOM     23  C   UNL     1      46.356   5.118  13.386  0.00  0.00    +0.000 A 
ATOM     24  N   UNL     1      45.641   4.024  13.055  0.00  0.00    +0.000 NA
BRANCH  19  26
ATOM     25  N   UNL     1      43.035   2.217  11.740  0.00  0.00    +0.000 NA
ATOM     26  C   UNL     1      43.695   3.129  12.028  0.00  0.00    +0.000 C 
ENDBRANCH  19  26
ENDBRANCH  17  22
ENDBRANCH   1  17
TORSDOF 5
ENDMDL
MODEL 9
REMARK VINA RESULT:    -5.528      4.111      6.957
REMARK INTER + INTRA:          -8.122
REMARK INTER:                  -7.154
REMARK INTRA:                  -0.968
REMARK UNBOUND:                -0.978
REMARK  Name = 
REMARK  5 active torsions:
REMARK  status: ('A' for Active; 'I' for Inactive)
REMARK    1  A    between atoms: C_2  and  C_3
REMARK    2  A    between atoms: C_6  and  N_7
REMARK    3  A    between atoms: N_7  and  C_8
REMARK    4  A    between atoms: C_8  and  C_9
REMARK    5  A    between atoms: C_13  and  C_14
REMARK                            x       y       z     vdW  Elec       q    Type
REMARK                         _______ _______ _______ _____ _____    ______ ____
ROOT
ATOM      1  C   UNL     1      48.938   9.247  14.564  0.00  0.00    +0.000 C 
ATOM      2  C   UNL     1      49.911  10.416  14.621  0.00  0.00    +0.000 C 
ATOM      3  C   UNL     1      50.341   9.120  14.019  0.00  0.00    +0.000 C 
ENDROOT
BRANCH   1   4
ATOM      4  C   UNL     1      48.570   8.509  15.839  0.00  0.00    +0.000 A 
ATOM      5  C   UNL     1      48.212   9.178  17.019  0.00  0.00    +0.000 A 
ATOM      6  C   UNL     1      48.097   8.493  18.227  0.00  0.00    +0.000 A 
ATOM      7  C   UNL     1      48.356   7.123  18.279  0.00  0.00    +0.000 A 
ATOM      8  C   UNL     1      48.709   6.404  17.125  0.00  0.00    +0.000 A 
ATOM      9  C   UNL     1      48.760   7.117  15.916  0.00  0.00    +0.000 A 
BRANCH   8  10
ATOM     10  C   UNL     1      49.129   4.987  17.186  0.00  0.00    +0.000 A 
ATOM     11  C   UNL     1      50.451   4.649  17.537  0.00  0.00    +0.000 A 
ATOM     12  C   UNL     1      50.892   3.323  17.551  0.00  0.00    +0.000 A 
ATOM     13  C   UNL     1      50.022   2.298  17.190  0.00  0.00    +0.000 A 
ATOM     14  C   UNL     1      48.713   2.600  16.825  0.00  0.00    +0.000 A 
ATOM     15  C   UNL     1      48.278   3.926  16.830  0.00  0.00    +0.000 A 
ATOM     16  F   UNL     1      47.008   4.161  16.465  0.00  0.00    +0.000 F 
ENDBRANCH   8  10
ENDBRANCH   1   4
BRANCH   1  17
ATOM     17  N   UNL     1      47.749   9.565  13.750  0.00  0.00    +0.000 N 
ATOM     18  H   UNL     1      47.119  10.215  14.217  0.00  0.00    +0.000 HD
BRANCH  17  22
ATOM     19  C   UNL     1      45.807   6.623  11.623  0.00  0.00    +0.000 A 
ATOM     20  N   UNL     1      45.021   7.495  12.272  0.00  0.00    +0.000 NA
ATOM     21  C   UNL     1      45.661   8.482  12.939  0.00  0.00    +0.000 A 
ATOM     22  C   UNL     1      47.032   8.649  12.971  0.00  0.00    +0.000 A 
ATOM     23  C   UNL     1      47.721   7.674  12.258  0.00  0.00    +0.000 A 
ATOM     24  N   UNL     1      47.152   6.664  11.570  0.00  0.00    +0.000 NA
BRANCH  19  26
ATOM     25  N   UNL     1      44.672   4.607  10.428  0.00  0.00    +0.000 NA
ATOM     26  C   UNL     1      45.164   5.518  10.956  0.00  0.00    +0.000 C 
ENDBRANCH  19  26
ENDBRANCH  17  22
ENDBRANCH   1  17
TORSDOF 5
ENDMDL
