MODEL 1
REMARK VINA RESULT:    -7.861      0.000      0.000
REMARK INTER + INTRA:         -11.775
REMARK INTER:                 -10.619
REMARK INTRA:                  -1.156
REMARK UNBOUND:                -1.156
REMARK  Name = 
REMARK  7 active torsions:
REMARK  status: ('A' for Active; 'I' for Inactive)
REMARK    1  A    between atoms: C_1  and  C_2
REMARK    2  A    between atoms: C_2  and  N_3
REMARK    3  A    between atoms: C_2  and  C_16
REMARK    4  A    between atoms: C_4  and  C_6
REMARK    5  A    between atoms: C_19  and  C_20
REMARK    6  A    between atoms: C_20  and  N_21
REMARK    7  A    between atoms: C_22  and  C_24
REMARK                            x       y       z     vdW  Elec       q    Type
REMARK                         _______ _______ _______ _____ _____    ______ ____
ROOT
ATOM      1  C   UNL     1      47.112   9.354  13.561  0.00  0.00    +0.000 C 
ATOM      2  C   UNL     1      47.602   7.914  13.364  0.00  0.00    +0.000 C 
ENDROOT
BRANCH   2   3
ATOM      3  C   UNL     1      46.577   7.116  12.565  0.00  0.00    +0.000 A 
ATOM      4  C   UNL     1      45.304   6.850  13.089  0.00  0.00    +0.000 A 
ATOM      5  C   UNL     1      44.355   6.151  12.331  0.00  0.00    +0.000 A 
ATOM      6  C   UNL     1      44.659   5.698  11.040  0.00  0.00    +0.000 A 
ATOM      7  C   UNL     1      45.929   5.965  10.515  0.00  0.00    +0.000 A 
ATOM      8  C   UNL     1      46.876   6.661  11.271  0.00  0.00    +0.000 A 
BRANCH   6   9
ATOM      9  C   UNL     1      43.640   4.961  10.215  0.00  0.00    +0.000 C 
BRANCH   9  10
ATOM     10  N   UNL     1      44.227   4.351   9.049  0.00  0.00    +0.000 N 
ATOM     11  C   UNL     1      44.702   3.061   9.075  0.00  0.00    +0.000 C 
ATOM     12  O   UNL     1      44.733   2.374  10.093  0.00  0.00    +0.000 OA
ATOM     13  H   UNL     1      44.164   4.794   8.137  0.00  0.00    +0.000 HD
BRANCH  11  14
ATOM     14  C   UNL     1      45.266   2.561   7.740  0.00  0.00    +0.000 C 
ATOM     15  C   UNL     1      46.433   1.612   7.930  0.00  0.00    +0.000 C 
ATOM     16  C   UNL     1      47.118   1.645   6.577  0.00  0.00    +0.000 C 
ATOM     17  C   UNL     1      46.818   3.032   6.024  0.00  0.00    +0.000 C 
ATOM     18  N   UNL     1      45.881   3.664   6.957  0.00  0.00    +0.000 NA
ATOM     19  H   UNL     1      45.150   4.162   6.446  0.00  0.00    +0.000 HD
ENDBRANCH  11  14
ENDBRANCH   9  10
ENDBRANCH   6   9
ENDBRANCH   2   3
BRANCH   2  20
ATOM     20  N   UNL     1      47.853   7.223  14.619  0.00  0.00    +0.000 N 
ATOM     21  C   UNL     1      49.107   6.989  15.124  0.00  0.00    +0.000 C 
ATOM     22  O   UNL     1      50.130   7.391  14.576  0.00  0.00    +0.000 OA
ATOM     23  H   UNL     1      47.101   6.618  14.941  0.00  0.00    +0.000 HD
BRANCH  21  24
ATOM     24  C   UNL     1      49.165   6.286  16.411  0.00  0.00    +0.000 A 
ATOM     25  C   UNL     1      49.938   6.805  17.442  0.00  0.00    +0.000 A 
ATOM     26  S   UNL     1      49.881   5.880  18.873  0.00  0.00    +0.000 S 
ATOM     27  C   UNL     1      48.857   4.729  18.152  0.00  0.00    +0.000 A 
ATOM     28  N   UNL     1      48.447   3.630  18.840  0.00  0.00    +0.000 NA
ATOM     29  C   UNL     1      47.699   2.825  18.162  0.00  0.00    +0.000 A 
ATOM     30  N   UNL     1      47.311   3.027  16.862  0.00  0.00    +0.000 N 
ATOM     31  C   UNL     1      47.669   4.142  16.140  0.00  0.00    +0.000 A 
ATOM     32  O   UNL     1      47.256   4.326  15.002  0.00  0.00    +0.000 OA
ATOM     33  C   UNL     1      48.536   5.063  16.848  0.00  0.00    +0.000 A 
ATOM     34  H   UNL     1      46.706   2.369  16.395  0.00  0.00    +0.000 HD
ENDBRANCH  21  24
ENDBRANCH   2  20
TORSDOF 6
ENDMDL
MODEL 2
REMARK VINA RESULT:    -7.771      2.193      2.682
REMARK INTER + INTRA:         -11.652
REMARK INTER:                 -10.604
REMARK INTRA:                  -1.048
REMARK UNBOUND:                -1.156
REMARK  Name = 
REMARK  7 active torsions:
REMARK  status: ('A' for Active; 'I' for Inactive)
REMARK    1  A    between atoms: C_1  and  C_2
REMARK    2  A    between atoms: C_2  and  N_3
REMARK    3  A    between atoms: C_2  and  C_16
REMARK    4  A    between atoms: C_4  and  C_6
REMARK    5  A    between atoms: C_19  and  C_20
REMARK    6  A    between atoms: C_20  and  N_21
REMARK    7  A    between atoms: C_22  and  C_24
REMARK                            x       y       z     vdW  Elec       q    Type
REMARK                         _______ _______ _______ _____ _____    ______ ____
ROOT
ATOM      1  C   UNL     1      47.534   8.361  13.700  0.00  0.00    +0.000 C 
ATOM      2  C   UNL     1      47.919   6.897  13.953  0.00  0.00    +0.000 C 
ENDROOT
BRANCH   2   3
ATOM      3  C   UNL     1      46.967   5.969  13.208  0.00  0.00    +0.000 A 
ATOM      4  C   UNL     1      46.280   6.405  12.066  0.00  0.00    +0.000 A 
ATOM      5  C   UNL     1      45.439   5.531  11.364  0.00  0.00    +0.000 A 
ATOM      6  C   UNL     1      45.263   4.208  11.791  0.00  0.00    +0.000 A 
ATOM      7  C   UNL     1      45.950   3.770  12.928  0.00  0.00    +0.000 A 
ATOM      8  C   UNL     1      46.787   4.641  13.630  0.00  0.00    +0.000 A 
BRANCH   6   9
ATOM      9  C   UNL     1      44.374   3.260  11.033  0.00  0.00    +0.000 C 
BRANCH   9  10
ATOM     10  N   UNL     1      45.037   2.699   9.884  0.00  0.00    +0.000 N 
ATOM     11  C   UNL     1      45.003   3.322   8.659  0.00  0.00    +0.000 C 
ATOM     12  O   UNL     1      44.351   4.341   8.438  0.00  0.00    +0.000 OA
ATOM     13  H   UNL     1      45.679   1.916   9.978  0.00  0.00    +0.000 HD
BRANCH  11  14
ATOM     14  C   UNL     1      45.785   2.604   7.554  0.00  0.00    +0.000 C 
ATOM     15  C   UNL     1      46.449   1.335   8.052  0.00  0.00    +0.000 C 
ATOM     16  C   UNL     1      47.517   1.080   7.005  0.00  0.00    +0.000 C 
ATOM     17  C   UNL     1      47.884   2.462   6.480  0.00  0.00    +0.000 C 
ATOM     18  N   UNL     1      46.948   3.408   7.094  0.00  0.00    +0.000 NA
ATOM     19  H   UNL     1      46.632   4.093   6.407  0.00  0.00    +0.000 HD
ENDBRANCH  11  14
ENDBRANCH   9  10
ENDBRANCH   6   9
ENDBRANCH   2   3
BRANCH   2  20
ATOM     20  N   UNL     1      47.903   6.543  15.364  0.00  0.00    +0.000 N 
ATOM     21  C   UNL     1      49.035   6.328  16.109  0.00  0.00    +0.000 C 
ATOM     22  O   UNL     1      50.167   6.465  15.654  0.00  0.00    +0.000 OA
ATOM     23  H   UNL     1      47.039   6.124  15.698  0.00  0.00    +0.000 HD
BRANCH  21  24
ATOM     24  C   UNL     1      48.824   5.989  17.522  0.00  0.00    +0.000 A 
ATOM     25  C   UNL     1      49.100   4.704  17.968  0.00  0.00    +0.000 A 
ATOM     26  S   UNL     1      48.821   4.483  19.635  0.00  0.00    +0.000 S 
ATOM     27  C   UNL     1      48.279   6.086  19.812  0.00  0.00    +0.000 A 
ATOM     28  N   UNL     1      47.844   6.548  21.014  0.00  0.00    +0.000 NA
ATOM     29  C   UNL     1      47.433   7.772  20.998  0.00  0.00    +0.000 A 
ATOM     30  N   UNL     1      47.431   8.580  19.891  0.00  0.00    +0.000 N 
ATOM     31  C   UNL     1      47.896   8.168  18.663  0.00  0.00    +0.000 A 
ATOM     32  O   UNL     1      47.941   8.932  17.707  0.00  0.00    +0.000 OA
ATOM     33  C   UNL     1      48.341   6.789  18.622  0.00  0.00    +0.000 A 
ATOM     34  H   UNL     1      47.116   9.537  19.949  0.00  0.00    +0.000 HD
ENDBRANCH  21  24
ENDBRANCH   2  20
TORSDOF 6
ENDMDL
MODEL 3
REMARK VINA RESULT:    -7.701      2.496      4.233
REMARK INTER + INTRA:         -11.558
REMARK INTER:                 -10.375
REMARK INTRA:                  -1.183
REMARK UNBOUND:                -1.156
REMARK  Name = 
REMARK  7 active torsions:
REMARK  status: ('A' for Active; 'I' for Inactive)
REMARK    1  A    between atoms: C_1  and  C_2
REMARK    2  A    between atoms: C_2  and  N_3
REMARK    3  A    between atoms: C_2  and  C_16
REMARK    4  A    between atoms: C_4  and  C_6
REMARK    5  A    between atoms: C_19  and  C_20
REMARK    6  A    between atoms: C_20  and  N_21
REMARK    7  A    between atoms: C_22  and  C_24
REMARK                            x       y       z     vdW  Elec       q    Type
REMARK                         _______ _______ _______ _____ _____    ______ ____
ROOT
ATOM      1  C   UNL     1      47.444   3.800  15.557  0.00  0.00    +0.000 C 
ATOM      2  C   UNL     1      47.134   5.157  14.911  0.00  0.00    +0.000 C 
ENDROOT
BRANCH   2   3
ATOM      3  C   UNL     1      46.287   4.961  13.660  0.00  0.00    +0.000 A 
ATOM      4  C   UNL     1      46.030   3.678  13.156  0.00  0.00    +0.000 A 
ATOM      5  C   UNL     1      45.216   3.505  12.029  0.00  0.00    +0.000 A 
ATOM      6  C   UNL     1      44.649   4.609  11.377  0.00  0.00    +0.000 A 
ATOM      7  C   UNL     1      44.902   5.890  11.880  0.00  0.00    +0.000 A 
ATOM      8  C   UNL     1      45.715   6.063  13.003  0.00  0.00    +0.000 A 
BRANCH   6   9
ATOM      9  C   UNL     1      43.762   4.430  10.176  0.00  0.00    +0.000 C 
BRANCH   9  10
ATOM     10  N   UNL     1      44.379   3.608   9.166  0.00  0.00    +0.000 N 
ATOM     11  C   UNL     1      45.442   4.060   8.421  0.00  0.00    +0.000 C 
ATOM     12  O   UNL     1      45.884   5.204   8.502  0.00  0.00    +0.000 OA
ATOM     13  H   UNL     1      44.155   2.620   9.085  0.00  0.00    +0.000 HD
BRANCH  11  14
ATOM     14  C   UNL     1      45.995   3.046   7.413  0.00  0.00    +0.000 C 
ATOM     15  C   UNL     1      46.260   1.694   8.046  0.00  0.00    +0.000 C 
ATOM     16  C   UNL     1      47.219   1.045   7.067  0.00  0.00    +0.000 C 
ATOM     17  C   UNL     1      47.973   2.207   6.434  0.00  0.00    +0.000 C 
ATOM     18  N   UNL     1      47.344   3.436   6.926  0.00  0.00    +0.000 NA
ATOM     19  H   UNL     1      47.244   4.114   6.169  0.00  0.00    +0.000 HD
ENDBRANCH  11  14
ENDBRANCH   9  10
ENDBRANCH   6   9
ENDBRANCH   2   3
BRANCH   2  20
ATOM     20  N   UNL     1      48.332   5.900  14.550  0.00  0.00    +0.000 N 
ATOM     21  C   UNL     1      48.963   6.783  15.389  0.00  0.00    +0.000 C 
ATOM     22  O   UNL     1      48.595   6.984  16.543  0.00  0.00    +0.000 OA
ATOM     23  H   UNL     1      48.490   6.011  13.552  0.00  0.00    +0.000 HD
BRANCH  21  24
ATOM     24  C   UNL     1      50.167   7.433  14.855  0.00  0.00    +0.000 A 
ATOM     25  C   UNL     1      51.344   7.405  15.590  0.00  0.00    +0.000 A 
ATOM     26  S   UNL     1      52.650   8.188  14.822  0.00  0.00    +0.000 S 
ATOM     27  C   UNL     1      51.676   8.630  13.500  0.00  0.00    +0.000 A 
ATOM     28  N   UNL     1      52.181   9.369  12.475  0.00  0.00    +0.000 NA
ATOM     29  C   UNL     1      51.325   9.659  11.554  0.00  0.00    +0.000 A 
ATOM     30  N   UNL     1      50.011   9.266  11.557  0.00  0.00    +0.000 N 
ATOM     31  C   UNL     1      49.466   8.487  12.552  0.00  0.00    +0.000 A 
ATOM     32  O   UNL     1      48.306   8.099  12.496  0.00  0.00    +0.000 OA
ATOM     33  C   UNL     1      50.381   8.160  13.627  0.00  0.00    +0.000 A 
ATOM     34  H   UNL     1      49.397   9.508  10.794  0.00  0.00    +0.000 HD
ENDBRANCH  21  24
ENDBRANCH   2  20
TORSDOF 6
ENDMDL
MODEL 4
REMARK VINA RESULT:    -7.515      3.454      4.672
REMARK INTER + INTRA:         -11.306
REMARK INTER:                 -10.114
REMARK INTRA:                  -1.192
REMARK UNBOUND:                -1.156
REMARK  Name = 
REMARK  7 active torsions:
REMARK  status: ('A' for Active; 'I' for Inactive)
REMARK    1  A    between atoms: C_1  and  C_2
REMARK    2  A    between atoms: C_2  and  N_3
REMARK    3  A    between atoms: C_2  and  C_16
REMARK    4  A    between atoms: C_4  and  C_6
REMARK    5  A    between atoms: C_19  and  C_20
REMARK    6  A    between atoms: C_20  and  N_21
REMARK    7  A    between atoms: C_22  and  C_24
REMARK                            x       y       z     vdW  Elec       q    Type
REMARK                         _______ _______ _______ _____ _____    ______ ____
ROOT
ATOM      1  C   UNL     1      47.389   2.918  17.491  0.00  0.00    +0.000 C 
ATOM      2  C   UNL     1      48.243   4.173  17.266  0.00  0.00    +0.000 C 
ENDROOT
BRANCH   2   3
ATOM      3  C   UNL     1      47.890   4.814  15.928  0.00  0.00    +0.000 A 
ATOM      4  C   UNL     1      47.019   4.179  15.032  0.00  0.00    +0.000 A 
ATOM      5  C   UNL     1      46.669   4.795  13.823  0.00  0.00    +0.000 A 
ATOM      6  C   UNL     1      47.185   6.052  13.482  0.00  0.00    +0.000 A 
ATOM      7  C   UNL     1      48.053   6.689  14.377  0.00  0.00    +0.000 A 
ATOM      8  C   UNL     1      48.404   6.074  15.582  0.00  0.00    +0.000 A 
BRANCH   6   9
ATOM      9  C   UNL     1      46.802   6.726  12.193  0.00  0.00    +0.000 C 
BRANCH   9  10
ATOM     10  N   UNL     1      46.243   5.798  11.243  0.00  0.00    +0.000 N 
ATOM     11  C   UNL     1      44.891   5.746  10.999  0.00  0.00    +0.000 C 
ATOM     12  O   UNL     1      44.068   6.416  11.619  0.00  0.00    +0.000 OA
ATOM     13  H   UNL     1      46.839   5.270  10.612  0.00  0.00    +0.000 HD
BRANCH  11  14
ATOM     14  C   UNL     1      44.472   4.723   9.938  0.00  0.00    +0.000 C 
ATOM     15  C   UNL     1      44.761   3.298  10.368  0.00  0.00    +0.000 C 
ATOM     16  C   UNL     1      44.749   2.540   9.055  0.00  0.00    +0.000 C 
ATOM     17  C   UNL     1      45.192   3.559   8.014  0.00  0.00    +0.000 C 
ATOM     18  N   UNL     1      45.286   4.850   8.701  0.00  0.00    +0.000 NA
ATOM     19  H   UNL     1      44.898   5.593   8.119  0.00  0.00    +0.000 HD
ENDBRANCH  11  14
ENDBRANCH   9  10
ENDBRANCH   6   9
ENDBRANCH   2   3
BRANCH   2  20
ATOM     20  N   UNL     1      49.671   3.899  17.287  0.00  0.00    +0.000 N 
ATOM     21  C   UNL     1      50.490   4.203  18.344  0.00  0.00    +0.000 C 
ATOM     22  O   UNL     1      50.073   4.692  19.390  0.00  0.00    +0.000 OA
ATOM     23  H   UNL     1      50.108   3.793  16.374  0.00  0.00    +0.000 HD
BRANCH  21  24
ATOM     24  C   UNL     1      51.905   3.842  18.191  0.00  0.00    +0.000 A 
ATOM     25  C   UNL     1      52.885   4.804  18.397  0.00  0.00    +0.000 A 
ATOM     26  S   UNL     1      54.473   4.217  18.198  0.00  0.00    +0.000 S 
ATOM     27  C   UNL     1      53.906   2.667  17.786  0.00  0.00    +0.000 A 
ATOM     28  N   UNL     1      54.772   1.672  17.455  0.00  0.00    +0.000 NA
ATOM     29  C   UNL     1      54.205   0.557  17.134  0.00  0.00    +0.000 A 
ATOM     30  N   UNL     1      52.851   0.344  17.127  0.00  0.00    +0.000 N 
ATOM     31  C   UNL     1      51.940   1.309  17.490  0.00  0.00    +0.000 A 
ATOM     32  O   UNL     1      50.740   1.070  17.535  0.00  0.00    +0.000 OA
ATOM     33  C   UNL     1      52.526   2.590  17.831  0.00  0.00    +0.000 A 
ATOM     34  H   UNL     1      52.471  -0.559  16.886  0.00  0.00    +0.000 HD
ENDBRANCH  21  24
ENDBRANCH   2  20
TORSDOF 6
ENDMDL
MODEL 5
REMARK VINA RESULT:    -7.428      2.656      3.844
REMARK INTER + INTRA:         -11.190
REMARK INTER:                 -10.345
REMARK INTRA:                  -0.845
REMARK UNBOUND:                -1.156
REMARK  Name = 
REMARK  7 active torsions:
REMARK  status: ('A' for Active; 'I' for Inactive)
REMARK    1  A    between atoms: C_1  and  C_2
REMARK    2  A    between atoms: C_2  and  N_3
REMARK    3  A    between atoms: C_2  and  C_16
REMARK    4  A    between atoms: C_4  and  C_6
REMARK    5  A    between atoms: C_19  and  C_20
REMARK    6  A    between atoms: C_20  and  N_21
REMARK    7  A    between atoms: C_22  and  C_24
REMARK                            x       y       z     vdW  Elec       q    Type
REMARK                         _______ _______ _______ _____ _____    ______ ____
ROOT
ATOM      1  C   UNL     1      47.520   3.387  15.305  0.00  0.00    +0.000 C 
ATOM      2  C   UNL     1      46.969   4.777  14.959  0.00  0.00    +0.000 C 
ENDROOT
BRANCH   2   3
ATOM      3  C   UNL     1      46.104   4.700  13.706  0.00  0.00    +0.000 A 
ATOM      4  C   UNL     1      45.471   5.842  13.195  0.00  0.00    +0.000 A 
ATOM      5  C   UNL     1      44.711   5.770  12.020  0.00  0.00    +0.000 A 
ATOM      6  C   UNL     1      44.563   4.556  11.335  0.00  0.00    +0.000 A 
ATOM      7  C   UNL     1      45.196   3.415  11.842  0.00  0.00    +0.000 A 
ATOM      8  C   UNL     1      45.952   3.487  13.015  0.00  0.00    +0.000 A 
BRANCH   6   9
ATOM      9  C   UNL     1      43.762   4.473  10.065  0.00  0.00    +0.000 C 
BRANCH   9  10
ATOM     10  N   UNL     1      44.389   3.624   9.084  0.00  0.00    +0.000 N 
ATOM     11  C   UNL     1      45.472   4.050   8.352  0.00  0.00    +0.000 C 
ATOM     12  O   UNL     1      45.925   5.191   8.420  0.00  0.00    +0.000 OA
ATOM     13  H   UNL     1      44.155   2.637   9.017  0.00  0.00    +0.000 HD
BRANCH  11  14
ATOM     14  C   UNL     1      46.033   3.011   7.376  0.00  0.00    +0.000 C 
ATOM     15  C   UNL     1      46.261   1.666   8.037  0.00  0.00    +0.000 C 
ATOM     16  C   UNL     1      47.233   0.985   7.093  0.00  0.00    +0.000 C 
ATOM     17  C   UNL     1      48.021   2.124   6.460  0.00  0.00    +0.000 C 
ATOM     18  N   UNL     1      47.400   3.371   6.916  0.00  0.00    +0.000 NA
ATOM     19  H   UNL     1      47.330   4.038   6.146  0.00  0.00    +0.000 HD
ENDBRANCH  11  14
ENDBRANCH   9  10
ENDBRANCH   6   9
ENDBRANCH   2   3
BRANCH   2  20
ATOM     20  N   UNL     1      48.015   5.764  14.741  0.00  0.00    +0.000 N 
ATOM     21  C   UNL     1      48.686   6.400  15.755  0.00  0.00    +0.000 C 
ATOM     22  O   UNL     1      48.491   6.150  16.941  0.00  0.00    +0.000 OA
ATOM     23  H   UNL     1      47.999   6.223  13.834  0.00  0.00    +0.000 HD
BRANCH  21  24
ATOM     24  C   UNL     1      49.719   7.359  15.345  0.00  0.00    +0.000 A 
ATOM     25  C   UNL     1      49.359   8.481  14.610  0.00  0.00    +0.000 A 
ATOM     26  S   UNL     1      50.672   9.501  14.232  0.00  0.00    +0.000 S 
ATOM     27  C   UNL     1      51.774   8.456  14.999  0.00  0.00    +0.000 A 
ATOM     28  N   UNL     1      53.106   8.730  15.007  0.00  0.00    +0.000 NA
ATOM     29  C   UNL     1      53.830   7.838  15.597  0.00  0.00    +0.000 A 
ATOM     30  N   UNL     1      53.340   6.703  16.191  0.00  0.00    +0.000 N 
ATOM     31  C   UNL     1      51.998   6.404  16.239  0.00  0.00    +0.000 A 
ATOM     32  O   UNL     1      51.585   5.415  16.831  0.00  0.00    +0.000 OA
ATOM     33  C   UNL     1      51.145   7.362  15.563  0.00  0.00    +0.000 A 
ATOM     34  H   UNL     1      53.958   6.054  16.655  0.00  0.00    +0.000 HD
ENDBRANCH  21  24
ENDBRANCH   2  20
TORSDOF 6
ENDMDL
MODEL 6
REMARK VINA RESULT:    -7.207      2.336      3.518
REMARK INTER + INTRA:         -10.891
REMARK INTER:                  -9.695
REMARK INTRA:                  -1.196
REMARK UNBOUND:                -1.156
REMARK  Name = 
REMARK  7 active torsions:
REMARK  status: ('A' for Active; 'I' for Inactive)
REMARK    1  A    between atoms: C_1  and  C_2
REMARK    2  A    between atoms: C_2  and  N_3
REMARK    3  A    between atoms: C_2  and  C_16
REMARK    4  A    between atoms: C_4  and  C_6
REMARK    5  A    between atoms: C_19  and  C_20
REMARK    6  A    between atoms: C_20  and  N_21
REMARK    7  A    between atoms: C_22  and  C_24
REMARK                            x       y       z     vdW  Elec       q    Type
REMARK                         _______ _______ _______ _____ _____    ______ ____
ROOT
ATOM      1  C   UNL     1      47.898   2.940  15.556  0.00  0.00    +0.000 C 
ATOM      2  C   UNL     1      47.163   4.277  15.722  0.00  0.00    +0.000 C 
ENDROOT
BRANCH   2   3
ATOM      3  C   UNL     1      46.734   4.811  14.361  0.00  0.00    +0.000 A 
ATOM      4  C   UNL     1      47.455   5.833  13.727  0.00  0.00    +0.000 A 
ATOM      5  C   UNL     1      47.076   6.290  12.458  0.00  0.00    +0.000 A 
ATOM      6  C   UNL     1      45.968   5.741  11.799  0.00  0.00    +0.000 A 
ATOM      7  C   UNL     1      45.249   4.719  12.428  0.00  0.00    +0.000 A 
ATOM      8  C   UNL     1      45.625   4.264  13.695  0.00  0.00    +0.000 A 
BRANCH   6   9
ATOM      9  C   UNL     1      45.565   6.216  10.429  0.00  0.00    +0.000 C 
BRANCH   9  10
ATOM     10  N   UNL     1      45.934   5.276   9.401  0.00  0.00    +0.000 N 
ATOM     11  C   UNL     1      45.018   4.403   8.864  0.00  0.00    +0.000 C 
ATOM     12  O   UNL     1      43.861   4.305   9.268  0.00  0.00    +0.000 OA
ATOM     13  H   UNL     1      46.833   5.338   8.932  0.00  0.00    +0.000 HD
BRANCH  11  14
ATOM     14  C   UNL     1      45.572   3.494   7.760  0.00  0.00    +0.000 C 
ATOM     15  C   UNL     1      46.065   2.167   8.303  0.00  0.00    +0.000 C 
ATOM     16  C   UNL     1      46.980   1.670   7.200  0.00  0.00    +0.000 C 
ATOM     17  C   UNL     1      47.515   2.934   6.541  0.00  0.00    +0.000 C 
ATOM     18  N   UNL     1      46.803   4.062   7.149  0.00  0.00    +0.000 NA
ATOM     19  H   UNL     1      46.540   4.744   6.437  0.00  0.00    +0.000 HD
ENDBRANCH  11  14
ENDBRANCH   9  10
ENDBRANCH   6   9
ENDBRANCH   2   3
BRANCH   2  20
ATOM     20  N   UNL     1      47.971   5.289  16.385  0.00  0.00    +0.000 N 
ATOM     21  C   UNL     1      47.859   5.602  17.716  0.00  0.00    +0.000 C 
ATOM     22  O   UNL     1      47.094   5.014  18.476  0.00  0.00    +0.000 OA
ATOM     23  H   UNL     1      48.374   5.994  15.773  0.00  0.00    +0.000 HD
BRANCH  21  24
ATOM     24  C   UNL     1      48.766   6.644  18.213  0.00  0.00    +0.000 A 
ATOM     25  C   UNL     1      48.245   7.743  18.885  0.00  0.00    +0.000 A 
ATOM     26  S   UNL     1      49.432   8.847  19.413  0.00  0.00    +0.000 S 
ATOM     27  C   UNL     1      50.679   7.919  18.723  0.00  0.00    +0.000 A 
ATOM     28  N   UNL     1      51.974   8.332  18.786  0.00  0.00    +0.000 NA
ATOM     29  C   UNL     1      52.813   7.547  18.196  0.00  0.00    +0.000 A 
ATOM     30  N   UNL     1      52.475   6.380  17.560  0.00  0.00    +0.000 N 
ATOM     31  C   UNL     1      51.186   5.904  17.504  0.00  0.00    +0.000 A 
ATOM     32  O   UNL     1      50.924   4.827  16.984  0.00  0.00    +0.000 OA
ATOM     33  C   UNL     1      50.200   6.766  18.128  0.00  0.00    +0.000 A 
ATOM     34  H   UNL     1      53.183   5.799  17.135  0.00  0.00    +0.000 HD
ENDBRANCH  21  24
ENDBRANCH   2  20
TORSDOF 6
ENDMDL
MODEL 7
REMARK VINA RESULT:    -7.120      4.642      9.442
REMARK INTER + INTRA:         -10.773
REMARK INTER:                  -9.860
REMARK INTRA:                  -0.913
REMARK UNBOUND:                -1.156
REMARK  Name = 
REMARK  7 active torsions:
REMARK  status: ('A' for Active; 'I' for Inactive)
REMARK    1  A    between atoms: C_1  and  C_2
REMARK    2  A    between atoms: C_2  and  N_3
REMARK    3  A    between atoms: C_2  and  C_16
REMARK    4  A    between atoms: C_4  and  C_6
REMARK    5  A    between atoms: C_19  and  C_20
REMARK    6  A    between atoms: C_20  and  N_21
REMARK    7  A    between atoms: C_22  and  C_24
REMARK                            x       y       z     vdW  Elec       q    Type
REMARK                         _______ _______ _______ _____ _____    ______ ____
ROOT
ATOM      1  C   UNL     1      47.149   4.787  18.558  0.00  0.00    +0.000 C 
ATOM      2  C   UNL     1      47.559   4.074  17.262  0.00  0.00    +0.000 C 
ENDROOT
BRANCH   2   3
ATOM      3  C   UNL     1      49.030   3.679  17.325  0.00  0.00    +0.000 A 
ATOM      4  C   UNL     1      50.027   4.642  17.539  0.00  0.00    +0.000 A 
ATOM      5  C   UNL     1      51.373   4.264  17.635  0.00  0.00    +0.000 A 
ATOM      6  C   UNL     1      51.751   2.920  17.513  0.00  0.00    +0.000 A 
ATOM      7  C   UNL     1      50.758   1.958  17.301  0.00  0.00    +0.000 A 
ATOM      8  C   UNL     1      49.416   2.334  17.203  0.00  0.00    +0.000 A 
BRANCH   6   9
ATOM      9  C   UNL     1      53.192   2.505  17.630  0.00  0.00    +0.000 C 
BRANCH   9  10
ATOM     10  N   UNL     1      53.342   1.274  18.363  0.00  0.00    +0.000 N 
ATOM     11  C   UNL     1      54.002   0.194  17.825  0.00  0.00    +0.000 C 
ATOM     12  O   UNL     1      54.433   0.171  16.675  0.00  0.00    +0.000 OA
ATOM     13  H   UNL     1      53.109   1.219  19.351  0.00  0.00    +0.000 HD
BRANCH  11  14
ATOM     14  C   UNL     1      54.095  -1.024  18.752  0.00  0.00    +0.000 C 
ATOM     15  C   UNL     1      54.714  -2.224  18.062  0.00  0.00    +0.000 C 
ATOM     16  C   UNL     1      54.266  -3.382  18.933  0.00  0.00    +0.000 C 
ATOM     17  C   UNL     1      52.937  -2.932  19.525  0.00  0.00    +0.000 C 
ATOM     18  N   UNL     1      52.750  -1.534  19.124  0.00  0.00    +0.000 NA
ATOM     19  H   UNL     1      52.387  -0.985  19.905  0.00  0.00    +0.000 HD
ENDBRANCH  11  14
ENDBRANCH   9  10
ENDBRANCH   6   9
ENDBRANCH   2   3
BRANCH   2  20
ATOM     20  N   UNL     1      47.346   4.887  16.075  0.00  0.00    +0.000 N 
ATOM     21  C   UNL     1      47.255   4.375  14.806  0.00  0.00    +0.000 C 
ATOM     22  O   UNL     1      47.298   3.171  14.570  0.00  0.00    +0.000 OA
ATOM     23  H   UNL     1      47.609   5.865  16.165  0.00  0.00    +0.000 HD
BRANCH  21  24
ATOM     24  C   UNL     1      47.027   5.348  13.731  0.00  0.00    +0.000 A 
ATOM     25  C   UNL     1      48.076   6.149  13.297  0.00  0.00    +0.000 A 
ATOM     26  S   UNL     1      47.649   7.209  12.032  0.00  0.00    +0.000 S 
ATOM     27  C   UNL     1      46.037   6.666  12.049  0.00  0.00    +0.000 A 
ATOM     28  N   UNL     1      45.109   7.206  11.213  0.00  0.00    +0.000 NA
ATOM     29  C   UNL     1      43.921   6.723  11.353  0.00  0.00    +0.000 A 
ATOM     30  N   UNL     1      43.578   5.738  12.245  0.00  0.00    +0.000 N 
ATOM     31  C   UNL     1      44.489   5.138  13.083  0.00  0.00    +0.000 A 
ATOM     32  O   UNL     1      44.166   4.218  13.823  0.00  0.00    +0.000 OA
ATOM     33  C   UNL     1      45.835   5.667  12.984  0.00  0.00    +0.000 A 
ATOM     34  H   UNL     1      42.632   5.389  12.291  0.00  0.00    +0.000 HD
ENDBRANCH  21  24
ENDBRANCH   2  20
TORSDOF 6
ENDMDL
MODEL 8
REMARK VINA RESULT:    -6.961      4.612      9.470
REMARK INTER + INTRA:         -10.559
REMARK INTER:                  -9.436
REMARK INTRA:                  -1.123
REMARK UNBOUND:                -1.156
REMARK  Name = 
REMARK  7 active torsions:
REMARK  status: ('A' for Active; 'I' for Inactive)
REMARK    1  A    between atoms: C_1  and  C_2
REMARK    2  A    between atoms: C_2  and  N_3
REMARK    3  A    between atoms: C_2  and  C_16
REMARK    4  A    between atoms: C_4  and  C_6
REMARK    5  A    between atoms: C_19  and  C_20
REMARK    6  A    between atoms: C_20  and  N_21
REMARK    7  A    between atoms: C_22  and  C_24
REMARK                            x       y       z     vdW  Elec       q    Type
REMARK                         _______ _______ _______ _____ _____    ______ ____
ROOT
ATOM      1  C   UNL     1      47.149   4.936  18.499  0.00  0.00    +0.000 C 
ATOM      2  C   UNL     1      47.562   4.144  17.252  0.00  0.00    +0.000 C 
ENDROOT
BRANCH   2   3
ATOM      3  C   UNL     1      49.030   3.743  17.348  0.00  0.00    +0.000 A 
ATOM      4  C   UNL     1      50.025   4.701  17.585  0.00  0.00    +0.000 A 
ATOM      5  C   UNL     1      51.367   4.318  17.712  0.00  0.00    +0.000 A 
ATOM      6  C   UNL     1      51.742   2.972  17.598  0.00  0.00    +0.000 A 
ATOM      7  C   UNL     1      50.750   2.014  17.364  0.00  0.00    +0.000 A 
ATOM      8  C   UNL     1      49.412   2.396  17.236  0.00  0.00    +0.000 A 
BRANCH   6   9
ATOM      9  C   UNL     1      53.178   2.551  17.749  0.00  0.00    +0.000 C 
BRANCH   9  10
ATOM     10  N   UNL     1      53.308   1.332  18.507  0.00  0.00    +0.000 N 
ATOM     11  C   UNL     1      53.798   0.181  17.937  0.00  0.00    +0.000 C 
ATOM     12  O   UNL     1      54.080   0.085  16.745  0.00  0.00    +0.000 OA
ATOM     13  H   UNL     1      53.194   1.327  19.517  0.00  0.00    +0.000 HD
BRANCH  11  14
ATOM     14  C   UNL     1      53.896  -1.014  18.893  0.00  0.00    +0.000 C 
ATOM     15  C   UNL     1      54.762  -2.126  18.334  0.00  0.00    +0.000 C 
ATOM     16  C   UNL     1      54.331  -3.330  19.150  0.00  0.00    +0.000 C 
ATOM     17  C   UNL     1      52.880  -3.052  19.518  0.00  0.00    +0.000 C 
ATOM     18  N   UNL     1      52.583  -1.690  19.062  0.00  0.00    +0.000 NA
ATOM     19  H   UNL     1      52.036  -1.190  19.764  0.00  0.00    +0.000 HD
ENDBRANCH  11  14
ENDBRANCH   9  10
ENDBRANCH   6   9
ENDBRANCH   2   3
BRANCH   2  20
ATOM     20  N   UNL     1      47.363   4.886  16.017  0.00  0.00    +0.000 N 
ATOM     21  C   UNL     1      47.295   4.301  14.778  0.00  0.00    +0.000 C 
ATOM     22  O   UNL     1      47.347   3.086  14.612  0.00  0.00    +0.000 OA
ATOM     23  H   UNL     1      47.619   5.870  16.054  0.00  0.00    +0.000 HD
BRANCH  21  24
ATOM     24  C   UNL     1      47.078   5.210  13.645  0.00  0.00    +0.000 A 
ATOM     25  C   UNL     1      46.020   4.981  12.775  0.00  0.00    +0.000 A 
ATOM     26  S   UNL     1      45.898   6.137  11.527  0.00  0.00    +0.000 S 
ATOM     27  C   UNL     1      47.281   6.958  12.080  0.00  0.00    +0.000 A 
ATOM     28  N   UNL     1      47.756   8.049  11.420  0.00  0.00    +0.000 NA
ATOM     29  C   UNL     1      48.829   8.555  11.931  0.00  0.00    +0.000 A 
ATOM     30  N   UNL     1      49.462   8.077  13.050  0.00  0.00    +0.000 N 
ATOM     31  C   UNL     1      48.997   7.001  13.770  0.00  0.00    +0.000 A 
ATOM     32  O   UNL     1      49.548   6.636  14.801  0.00  0.00    +0.000 OA
ATOM     33  C   UNL     1      47.810   6.378  13.219  0.00  0.00    +0.000 A 
ATOM     34  H   UNL     1      50.287   8.532  13.411  0.00  0.00    +0.000 HD
ENDBRANCH  21  24
ENDBRANCH   2  20
TORSDOF 6
ENDMDL
MODEL 9
REMARK VINA RESULT:    -6.887      3.861      5.876
REMARK INTER + INTRA:         -10.459
REMARK INTER:                  -9.479
REMARK INTRA:                  -0.980
REMARK UNBOUND:                -1.156
REMARK  Name = 
REMARK  7 active torsions:
REMARK  status: ('A' for Active; 'I' for Inactive)
REMARK    1  A    between atoms: C_1  and  C_2
REMARK    2  A    between atoms: C_2  and  N_3
REMARK    3  A    between atoms: C_2  and  C_16
REMARK    4  A    between atoms: C_4  and  C_6
REMARK    5  A    between atoms: C_19  and  C_20
REMARK    6  A    between atoms: C_20  and  N_21
REMARK    7  A    between atoms: C_22  and  C_24
REMARK                            x       y       z     vdW  Elec       q    Type
REMARK                         _______ _______ _______ _____ _____    ______ ____
ROOT
ATOM      1  C   UNL     1      46.470   3.497  13.193  0.00  0.00    +0.000 C 
ATOM      2  C   UNL     1      46.186   4.608  14.213  0.00  0.00    +0.000 C 
ENDROOT
BRANCH   2   3
ATOM      3  C   UNL     1      45.916   5.924  13.493  0.00  0.00    +0.000 A 
ATOM      4  C   UNL     1      46.838   6.979  13.550  0.00  0.00    +0.000 A 
ATOM      5  C   UNL     1      46.599   8.170  12.852  0.00  0.00    +0.000 A 
ATOM      6  C   UNL     1      45.435   8.335  12.089  0.00  0.00    +0.000 A 
ATOM      7  C   UNL     1      44.515   7.281  12.029  0.00  0.00    +0.000 A 
ATOM      8  C   UNL     1      44.751   6.094  12.727  0.00  0.00    +0.000 A 
BRANCH   6   9
ATOM      9  C   UNL     1      45.180   9.605  11.325  0.00  0.00    +0.000 C 
BRANCH   9  10
ATOM     10  N   UNL     1      43.824  10.066  11.479  0.00  0.00    +0.000 N 
ATOM     11  C   UNL     1      43.043  10.381  10.392  0.00  0.00    +0.000 C 
ATOM     12  O   UNL     1      43.461  10.370   9.236  0.00  0.00    +0.000 OA
ATOM     13  H   UNL     1      43.352  10.019  12.379  0.00  0.00    +0.000 HD
BRANCH  11  14
ATOM     14  C   UNL     1      41.617  10.826  10.736  0.00  0.00    +0.000 C 
ATOM     15  C   UNL     1      41.540  11.516  12.084  0.00  0.00    +0.000 C 
ATOM     16  C   UNL     1      40.067  11.416  12.431  0.00  0.00    +0.000 C 
ATOM     17  C   UNL     1      39.591  10.144  11.740  0.00  0.00    +0.000 C 
ATOM     18  N   UNL     1      40.710   9.663  10.925  0.00  0.00    +0.000 NA
ATOM     19  H   UNL     1      40.377   9.345  10.014  0.00  0.00    +0.000 HD
ENDBRANCH  11  14
ENDBRANCH   9  10
ENDBRANCH   6   9
ENDBRANCH   2   3
BRANCH   2  20
ATOM     20  N   UNL     1      47.278   4.807  15.153  0.00  0.00    +0.000 N 
ATOM     21  C   UNL     1      47.346   4.203  16.382  0.00  0.00    +0.000 C 
ATOM     22  O   UNL     1      46.507   3.398  16.775  0.00  0.00    +0.000 OA
ATOM     23  H   UNL     1      47.812   5.663  15.024  0.00  0.00    +0.000 HD
BRANCH  21  24
ATOM     24  C   UNL     1      48.531   4.516  17.192  0.00  0.00    +0.000 A 
ATOM     25  C   UNL     1      48.598   5.726  17.870  0.00  0.00    +0.000 A 
ATOM     26  S   UNL     1      50.028   5.924  18.776  0.00  0.00    +0.000 S 
ATOM     27  C   UNL     1      50.628   4.418  18.259  0.00  0.00    +0.000 A 
ATOM     28  N   UNL     1      51.856   3.984  18.651  0.00  0.00    +0.000 NA
ATOM     29  C   UNL     1      52.198   2.839  18.160  0.00  0.00    +0.000 A 
ATOM     30  N   UNL     1      51.416   2.083  17.324  0.00  0.00    +0.000 N 
ATOM     31  C   UNL     1      50.154   2.465  16.932  0.00  0.00    +0.000 A 
ATOM     32  O   UNL     1      49.455   1.741  16.235  0.00  0.00    +0.000 OA
ATOM     33  C   UNL     1      49.735   3.760  17.433  0.00  0.00    +0.000 A 
ATOM     34  H   UNL     1      51.734   1.185  16.991  0.00  0.00    +0.000 HD
ENDBRANCH  21  24
ENDBRANCH   2  20
TORSDOF 6
ENDMDL
