MODEL 1
REMARK VINA RESULT:    -7.248      0.000      0.000
REMARK INTER + INTRA:         -12.890
REMARK INTER:                 -11.273
REMARK INTRA:                  -1.617
REMARK UNBOUND:                -1.617
REMARK  Name = 
REMARK  11 active torsions:
REMARK  status: ('A' for Active; 'I' for Inactive)
REMARK    1  A    between atoms: C_1  and  C_2
REMARK    2  A    between atoms: C_2  and  C_3
REMARK    3  A    between atoms: C_3  and  N_4
REMARK    4  A    between atoms: N_4  and  C_5
REMARK    5  A    between atoms: C_5  and  C_6
REMARK    6  A    between atoms: C_5  and  C_18
REMARK    7  A    between atoms: C_6  and  C_8
REMARK    8  A    between atoms: C_21  and  C_22
REMARK    9  A    between atoms: C_22  and  N_23
REMARK   10  A    between atoms: N_23  and  C_24
REMARK   11  A    between atoms: C_27  and  O_28
REMARK                            x       y       z     vdW  Elec       q    Type
REMARK                         _______ _______ _______ _____ _____    ______ ____
ROOT
ATOM      1  C   UNL     1      47.249   5.433  14.861  0.00  0.00    +0.000 C 
ENDROOT
BRANCH   1   2
ATOM      2  C   UNL     1      46.463   5.129  13.583  0.00  0.00    +0.000 A 
ATOM      3  C   UNL     1      46.056   6.169  12.734  0.00  0.00    +0.000 A 
ATOM      4  C   UNL     1      45.423   5.890  11.515  0.00  0.00    +0.000 A 
ATOM      5  C   UNL     1      45.181   4.567  11.116  0.00  0.00    +0.000 A 
ATOM      6  C   UNL     1      45.535   3.533  11.989  0.00  0.00    +0.000 A 
ATOM      7  C   UNL     1      46.151   3.810  13.212  0.00  0.00    +0.000 A 
BRANCH   5   8
ATOM      8  C   UNL     1      44.498   4.253   9.803  0.00  0.00    +0.000 C 
BRANCH   8   9
ATOM      9  N   UNL     1      45.334   4.592   8.642  0.00  0.00    +0.000 NA
ATOM     10  H   UNL     1      46.309   4.594   8.952  0.00  0.00    +0.000 HD
BRANCH   9  11
ATOM     11  C   UNL     1      45.179   3.621   7.548  0.00  0.00    +0.000 C 
ATOM     12  C   UNL     1      46.417   3.585   6.620  0.00  0.00    +0.000 C 
ATOM     13  C   UNL     1      46.964   2.165   6.671  0.00  0.00    +0.000 C 
ATOM     14  C   UNL     1      46.483   1.639   8.013  0.00  0.00    +0.000 C 
ATOM     15  C   UNL     1      45.065   2.182   8.085  0.00  0.00    +0.000 C 
BRANCH  14  16
ATOM     16  O   UNL     1      46.522   0.225   8.070  0.00  0.00    +0.000 OA
ATOM     17  H   UNL     1      45.873  -0.128   7.441  0.00  0.00    +0.000 HD
ENDBRANCH  14  16
ENDBRANCH   9  11
ENDBRANCH   8   9
ENDBRANCH   5   8
ENDBRANCH   1   2
BRANCH   1  18
ATOM     18  N   UNL     1      47.722   4.171  15.481  0.00  0.00    +0.000 NA
ATOM     19  H   UNL     1      47.473   3.403  14.857  0.00  0.00    +0.000 HD
BRANCH  18  20
ATOM     20  C   UNL     1      47.169   3.898  16.814  0.00  0.00    +0.000 C 
BRANCH  20  22
ATOM     21  C   UNL     1      49.027   2.156  16.577  0.00  0.00    +0.000 C 
ATOM     22  C   UNL     1      48.091   2.895  17.523  0.00  0.00    +0.000 C 
ENDBRANCH  20  22
ENDBRANCH  18  20
ENDBRANCH   1  18
BRANCH   1  23
ATOM     23  C   UNL     1      48.391   6.449  14.545  0.00  0.00    +0.000 C 
ATOM     24  O   UNL     1      49.083   6.382  13.529  0.00  0.00    +0.000 OA
BRANCH  23  25
ATOM     25  C   UNL     1      48.641   7.534  15.514  0.00  0.00    +0.000 A 
ATOM     26  C   UNL     1      48.248   8.850  15.339  0.00  0.00    +0.000 A 
ATOM     27  S   UNL     1      48.474   9.804  16.743  0.00  0.00    +0.000 S 
ATOM     28  C   UNL     1      49.154   8.495  17.594  0.00  0.00    +0.000 A 
ATOM     29  N   UNL     1      49.503   8.601  18.902  0.00  0.00    +0.000 NA
ATOM     30  C   UNL     1      50.002   7.514  19.400  0.00  0.00    +0.000 A 
ATOM     31  N   UNL     1      50.234   6.360  18.702  0.00  0.00    +0.000 N 
ATOM     32  C   UNL     1      50.020   6.257  17.342  0.00  0.00    +0.000 A 
ATOM     33  O   UNL     1      50.508   5.346  16.686  0.00  0.00    +0.000 OA
ATOM     34  C   UNL     1      49.291   7.383  16.788  0.00  0.00    +0.000 A 
ATOM     35  H   UNL     1      50.741   5.594  19.119  0.00  0.00    +0.000 HD
ENDBRANCH  23  25
ENDBRANCH   1  23
TORSDOF 10
ENDMDL
MODEL 2
REMARK VINA RESULT:    -7.092      2.099      3.523
REMARK INTER + INTRA:         -12.647
REMARK INTER:                 -11.283
REMARK INTRA:                  -1.364
REMARK UNBOUND:                -1.617
REMARK  Name = 
REMARK  11 active torsions:
REMARK  status: ('A' for Active; 'I' for Inactive)
REMARK    1  A    between atoms: C_1  and  C_2
REMARK    2  A    between atoms: C_2  and  C_3
REMARK    3  A    between atoms: C_3  and  N_4
REMARK    4  A    between atoms: N_4  and  C_5
REMARK    5  A    between atoms: C_5  and  C_6
REMARK    6  A    between atoms: C_5  and  C_18
REMARK    7  A    between atoms: C_6  and  C_8
REMARK    8  A    between atoms: C_21  and  C_22
REMARK    9  A    between atoms: C_22  and  N_23
REMARK   10  A    between atoms: N_23  and  C_24
REMARK   11  A    between atoms: C_27  and  O_28
REMARK                            x       y       z     vdW  Elec       q    Type
REMARK                         _______ _______ _______ _____ _____    ______ ____
ROOT
ATOM      1  C   UNL     1      47.333   7.888  12.786  0.00  0.00    +0.000 C 
ENDROOT
BRANCH   1   2
ATOM      2  C   UNL     1      46.639   6.661  12.190  0.00  0.00    +0.000 A 
ATOM      3  C   UNL     1      46.189   5.624  13.022  0.00  0.00    +0.000 A 
ATOM      4  C   UNL     1      45.467   4.546  12.493  0.00  0.00    +0.000 A 
ATOM      5  C   UNL     1      45.178   4.477  11.122  0.00  0.00    +0.000 A 
ATOM      6  C   UNL     1      45.678   5.481  10.285  0.00  0.00    +0.000 A 
ATOM      7  C   UNL     1      46.411   6.548  10.809  0.00  0.00    +0.000 A 
BRANCH   5   8
ATOM      8  C   UNL     1      44.401   3.318  10.539  0.00  0.00    +0.000 C 
BRANCH   8   9
ATOM      9  N   UNL     1      45.280   2.260  10.016  0.00  0.00    +0.000 NA
ATOM     10  H   UNL     1      45.060   1.398  10.520  0.00  0.00    +0.000 HD
BRANCH   9  11
ATOM     11  C   UNL     1      45.083   2.040   8.575  0.00  0.00    +0.000 C 
ATOM     12  C   UNL     1      45.217   3.348   7.762  0.00  0.00    +0.000 C 
ATOM     13  C   UNL     1      46.360   3.140   6.777  0.00  0.00    +0.000 C 
ATOM     14  C   UNL     1      47.215   2.071   7.437  0.00  0.00    +0.000 C 
ATOM     15  C   UNL     1      46.170   1.117   7.993  0.00  0.00    +0.000 C 
BRANCH  14  16
ATOM     16  O   UNL     1      48.080   1.440   6.510  0.00  0.00    +0.000 OA
ATOM     17  H   UNL     1      48.996   1.572   6.802  0.00  0.00    +0.000 HD
ENDBRANCH  14  16
ENDBRANCH   9  11
ENDBRANCH   8   9
ENDBRANCH   5   8
ENDBRANCH   1   2
BRANCH   1  18
ATOM     18  N   UNL     1      46.382   8.652  13.630  0.00  0.00    +0.000 NA
ATOM     19  H   UNL     1      46.003   8.016  14.331  0.00  0.00    +0.000 HD
BRANCH  18  20
ATOM     20  C   UNL     1      45.267   9.266  12.895  0.00  0.00    +0.000 C 
BRANCH  20  22
ATOM     21  C   UNL     1      44.820  11.144  11.217  0.00  0.00    +0.000 C 
ATOM     22  C   UNL     1      45.850  10.204  11.829  0.00  0.00    +0.000 C 
ENDBRANCH  20  22
ENDBRANCH  18  20
ENDBRANCH   1  18
BRANCH   1  23
ATOM     23  C   UNL     1      48.629   7.445  13.537  0.00  0.00    +0.000 C 
ATOM     24  O   UNL     1      49.428   6.636  13.068  0.00  0.00    +0.000 OA
BRANCH  23  25
ATOM     25  C   UNL     1      48.896   8.032  14.864  0.00  0.00    +0.000 A 
ATOM     26  C   UNL     1      49.385   9.310  15.075  0.00  0.00    +0.000 A 
ATOM     27  S   UNL     1      49.356   9.770  16.724  0.00  0.00    +0.000 S 
ATOM     28  C   UNL     1      48.744   8.253  17.197  0.00  0.00    +0.000 A 
ATOM     29  N   UNL     1      48.410   7.992  18.487  0.00  0.00    +0.000 NA
ATOM     30  C   UNL     1      47.956   6.793  18.676  0.00  0.00    +0.000 A 
ATOM     31  N   UNL     1      47.861   5.824  17.716  0.00  0.00    +0.000 N 
ATOM     32  C   UNL     1      48.318   6.007  16.426  0.00  0.00    +0.000 A 
ATOM     33  O   UNL     1      48.508   5.059  15.675  0.00  0.00    +0.000 OA
ATOM     34  C   UNL     1      48.656   7.386  16.126  0.00  0.00    +0.000 A 
ATOM     35  H   UNL     1      47.619   4.875  17.958  0.00  0.00    +0.000 HD
ENDBRANCH  23  25
ENDBRANCH   1  23
TORSDOF 10
ENDMDL
MODEL 3
REMARK VINA RESULT:    -6.916      2.216      3.489
REMARK INTER + INTRA:         -12.374
REMARK INTER:                 -10.680
REMARK INTRA:                  -1.694
REMARK UNBOUND:                -1.617
REMARK  Name = 
REMARK  11 active torsions:
REMARK  status: ('A' for Active; 'I' for Inactive)
REMARK    1  A    between atoms: C_1  and  C_2
REMARK    2  A    between atoms: C_2  and  C_3
REMARK    3  A    between atoms: C_3  and  N_4
REMARK    4  A    between atoms: N_4  and  C_5
REMARK    5  A    between atoms: C_5  and  C_6
REMARK    6  A    between atoms: C_5  and  C_18
REMARK    7  A    between atoms: C_6  and  C_8
REMARK    8  A    between atoms: C_21  and  C_22
REMARK    9  A    between atoms: C_22  and  N_23
REMARK   10  A    between atoms: N_23  and  C_24
REMARK   11  A    between atoms: C_27  and  O_28
REMARK                            x       y       z     vdW  Elec       q    Type
REMARK                         _______ _______ _______ _____ _____    ______ ____
ROOT
ATOM      1  C   UNL     1      47.960   5.180  15.089  0.00  0.00    +0.000 C 
ENDROOT
BRANCH   1   2
ATOM      2  C   UNL     1      46.972   4.916  13.950  0.00  0.00    +0.000 A 
ATOM      3  C   UNL     1      46.359   5.985  13.278  0.00  0.00    +0.000 A 
ATOM      4  C   UNL     1      45.531   5.752  12.172  0.00  0.00    +0.000 A 
ATOM      5  C   UNL     1      45.293   4.448  11.712  0.00  0.00    +0.000 A 
ATOM      6  C   UNL     1      45.857   3.380  12.418  0.00  0.00    +0.000 A 
ATOM      7  C   UNL     1      46.671   3.610  13.531  0.00  0.00    +0.000 A 
BRANCH   5   8
ATOM      8  C   UNL     1      44.400   4.184  10.520  0.00  0.00    +0.000 C 
BRANCH   8   9
ATOM      9  N   UNL     1      44.912   4.803   9.288  0.00  0.00    +0.000 NA
ATOM     10  H   UNL     1      45.904   5.008   9.434  0.00  0.00    +0.000 HD
BRANCH   9  11
ATOM     11  C   UNL     1      44.771   3.914   8.124  0.00  0.00    +0.000 C 
ATOM     12  C   UNL     1      46.017   3.950   7.208  0.00  0.00    +0.000 C 
ATOM     13  C   UNL     1      46.568   2.531   7.160  0.00  0.00    +0.000 C 
ATOM     14  C   UNL     1      46.076   1.907   8.455  0.00  0.00    +0.000 C 
ATOM     15  C   UNL     1      44.656   2.439   8.553  0.00  0.00    +0.000 C 
BRANCH  14  16
ATOM     16  O   UNL     1      46.119   0.493   8.408  0.00  0.00    +0.000 OA
ATOM     17  H   UNL     1      46.081   0.212   7.479  0.00  0.00    +0.000 HD
ENDBRANCH  14  16
ENDBRANCH   9  11
ENDBRANCH   8   9
ENDBRANCH   5   8
ENDBRANCH   1   2
BRANCH   1  18
ATOM     18  N   UNL     1      47.900   6.605  15.496  0.00  0.00    +0.000 NA
ATOM     19  H   UNL     1      47.192   7.065  14.924  0.00  0.00    +0.000 HD
BRANCH  18  20
ATOM     20  C   UNL     1      49.168   7.336  15.357  0.00  0.00    +0.000 C 
BRANCH  20  22
ATOM     21  C   UNL     1      49.631   7.752  12.876  0.00  0.00    +0.000 C 
ATOM     22  C   UNL     1      49.042   8.300  14.169  0.00  0.00    +0.000 C 
ENDBRANCH  20  22
ENDBRANCH  18  20
ENDBRANCH   1  18
BRANCH   1  23
ATOM     23  C   UNL     1      47.693   4.178  16.257  0.00  0.00    +0.000 C 
ATOM     24  O   UNL     1      46.564   3.931  16.680  0.00  0.00    +0.000 OA
BRANCH  23  25
ATOM     25  C   UNL     1      48.854   3.503  16.869  0.00  0.00    +0.000 A 
ATOM     26  C   UNL     1      49.212   2.186  16.635  0.00  0.00    +0.000 A 
ATOM     27  S   UNL     1      50.734   1.781  17.305  0.00  0.00    +0.000 S 
ATOM     28  C   UNL     1      50.921   3.337  17.971  0.00  0.00    +0.000 A 
ATOM     29  N   UNL     1      52.057   3.702  18.619  0.00  0.00    +0.000 NA
ATOM     30  C   UNL     1      52.039   4.920  19.060  0.00  0.00    +0.000 A 
ATOM     31  N   UNL     1      50.978   5.779  18.964  0.00  0.00    +0.000 N 
ATOM     32  C   UNL     1      49.760   5.401  18.435  0.00  0.00    +0.000 A 
ATOM     33  O   UNL     1      48.747   6.060  18.628  0.00  0.00    +0.000 OA
ATOM     34  C   UNL     1      49.799   4.114  17.763  0.00  0.00    +0.000 A 
ATOM     35  H   UNL     1      50.985   6.668  19.440  0.00  0.00    +0.000 HD
ENDBRANCH  23  25
ENDBRANCH   1  23
TORSDOF 10
ENDMDL
MODEL 4
REMARK VINA RESULT:    -6.749      3.011      4.954
REMARK INTER + INTRA:         -12.114
REMARK INTER:                 -11.272
REMARK INTRA:                  -0.842
REMARK UNBOUND:                -1.617
REMARK  Name = 
REMARK  11 active torsions:
REMARK  status: ('A' for Active; 'I' for Inactive)
REMARK    1  A    between atoms: C_1  and  C_2
REMARK    2  A    between atoms: C_2  and  C_3
REMARK    3  A    between atoms: C_3  and  N_4
REMARK    4  A    between atoms: N_4  and  C_5
REMARK    5  A    between atoms: C_5  and  C_6
REMARK    6  A    between atoms: C_5  and  C_18
REMARK    7  A    between atoms: C_6  and  C_8
REMARK    8  A    between atoms: C_21  and  C_22
REMARK    9  A    between atoms: C_22  and  N_23
REMARK   10  A    between atoms: N_23  and  C_24
REMARK   11  A    between atoms: C_27  and  O_28
REMARK                            x       y       z     vdW  Elec       q    Type
REMARK                         _______ _______ _______ _____ _____    ______ ____
ROOT
ATOM      1  C   UNL     1      48.665   5.807  17.394  0.00  0.00    +0.000 C 
ENDROOT
BRANCH   1   2
ATOM      2  C   UNL     1      48.120   5.685  15.969  0.00  0.00    +0.000 A 
ATOM      3  C   UNL     1      47.266   4.627  15.623  0.00  0.00    +0.000 A 
ATOM      4  C   UNL     1      46.686   4.565  14.348  0.00  0.00    +0.000 A 
ATOM      5  C   UNL     1      46.947   5.556  13.390  0.00  0.00    +0.000 A 
ATOM      6  C   UNL     1      47.845   6.577  13.716  0.00  0.00    +0.000 A 
ATOM      7  C   UNL     1      48.436   6.632  14.981  0.00  0.00    +0.000 A 
BRANCH   5   8
ATOM      8  C   UNL     1      46.329   5.498  12.011  0.00  0.00    +0.000 C 
BRANCH   8   9
ATOM      9  N   UNL     1      44.936   5.971  12.001  0.00  0.00    +0.000 NA
ATOM     10  H   UNL     1      44.952   6.980  11.833  0.00  0.00    +0.000 HD
BRANCH   9  11
ATOM     11  C   UNL     1      44.139   5.320  10.950  0.00  0.00    +0.000 C 
ATOM     12  C   UNL     1      45.003   4.419  10.037  0.00  0.00    +0.000 C 
ATOM     13  C   UNL     1      44.445   3.006  10.156  0.00  0.00    +0.000 C 
ATOM     14  C   UNL     1      43.766   2.999  11.516  0.00  0.00    +0.000 C 
ATOM     15  C   UNL     1      43.092   4.361  11.550  0.00  0.00    +0.000 C 
BRANCH  14  16
ATOM     16  O   UNL     1      42.838   1.937  11.636  0.00  0.00    +0.000 OA
ATOM     17  H   UNL     1      43.002   1.477  12.476  0.00  0.00    +0.000 HD
ENDBRANCH  14  16
ENDBRANCH   9  11
ENDBRANCH   8   9
ENDBRANCH   5   8
ENDBRANCH   1   2
BRANCH   1  18
ATOM     18  N   UNL     1      47.659   6.453  18.272  0.00  0.00    +0.000 NA
ATOM     19  H   UNL     1      47.270   7.250  17.768  0.00  0.00    +0.000 HD
BRANCH  18  20
ATOM     20  C   UNL     1      48.181   6.918  19.564  0.00  0.00    +0.000 C 
BRANCH  20  22
ATOM     21  C   UNL     1      47.645   9.206  18.554  0.00  0.00    +0.000 C 
ATOM     22  C   UNL     1      47.665   8.344  19.808  0.00  0.00    +0.000 C 
ENDBRANCH  20  22
ENDBRANCH  18  20
ENDBRANCH   1  18
BRANCH   1  23
ATOM     23  C   UNL     1      49.137   4.406  17.898  0.00  0.00    +0.000 C 
ATOM     24  O   UNL     1      48.354   3.491  18.154  0.00  0.00    +0.000 OA
BRANCH  23  25
ATOM     25  C   UNL     1      50.585   4.181  18.067  0.00  0.00    +0.000 A 
ATOM     26  C   UNL     1      51.467   5.103  18.606  0.00  0.00    +0.000 A 
ATOM     27  S   UNL     1      53.024   4.449  18.885  0.00  0.00    +0.000 S 
ATOM     28  C   UNL     1      52.571   2.940  18.239  0.00  0.00    +0.000 A 
ATOM     29  N   UNL     1      53.420   1.880  18.245  0.00  0.00    +0.000 NA
ATOM     30  C   UNL     1      52.918   0.806  17.721  0.00  0.00    +0.000 A 
ATOM     31  N   UNL     1      51.680   0.712  17.147  0.00  0.00    +0.000 N 
ATOM     32  C   UNL     1      50.843   1.800  16.999  0.00  0.00    +0.000 A 
ATOM     33  O   UNL     1      49.892   1.775  16.229  0.00  0.00    +0.000 OA
ATOM     34  C   UNL     1      51.286   2.970  17.736  0.00  0.00    +0.000 A 
ATOM     35  H   UNL     1      51.402  -0.118  16.645  0.00  0.00    +0.000 HD
ENDBRANCH  23  25
ENDBRANCH   1  23
TORSDOF 10
ENDMDL
MODEL 5
REMARK VINA RESULT:    -6.564      3.000      4.626
REMARK INTER + INTRA:         -11.827
REMARK INTER:                  -9.549
REMARK INTRA:                  -2.278
REMARK UNBOUND:                -1.617
REMARK  Name = 
REMARK  11 active torsions:
REMARK  status: ('A' for Active; 'I' for Inactive)
REMARK    1  A    between atoms: C_1  and  C_2
REMARK    2  A    between atoms: C_2  and  C_3
REMARK    3  A    between atoms: C_3  and  N_4
REMARK    4  A    between atoms: N_4  and  C_5
REMARK    5  A    between atoms: C_5  and  C_6
REMARK    6  A    between atoms: C_5  and  C_18
REMARK    7  A    between atoms: C_6  and  C_8
REMARK    8  A    between atoms: C_21  and  C_22
REMARK    9  A    between atoms: C_22  and  N_23
REMARK   10  A    between atoms: N_23  and  C_24
REMARK   11  A    between atoms: C_27  and  O_28
REMARK                            x       y       z     vdW  Elec       q    Type
REMARK                         _______ _______ _______ _____ _____    ______ ____
ROOT
ATOM      1  C   UNL     1      49.416   7.129  15.090  0.00  0.00    +0.000 C 
ENDROOT
BRANCH   1   2
ATOM      2  C   UNL     1      48.210   7.105  14.147  0.00  0.00    +0.000 A 
ATOM      3  C   UNL     1      47.441   8.261  13.947  0.00  0.00    +0.000 A 
ATOM      4  C   UNL     1      46.398   8.272  13.011  0.00  0.00    +0.000 A 
ATOM      5  C   UNL     1      46.097   7.128  12.256  0.00  0.00    +0.000 A 
ATOM      6  C   UNL     1      46.826   5.959  12.498  0.00  0.00    +0.000 A 
ATOM      7  C   UNL     1      47.856   5.943  13.442  0.00  0.00    +0.000 A 
BRANCH   5   8
ATOM      8  C   UNL     1      44.972   7.127  11.244  0.00  0.00    +0.000 C 
BRANCH   8   9
ATOM      9  N   UNL     1      43.680   6.759  11.844  0.00  0.00    +0.000 NA
ATOM     10  H   UNL     1      43.049   7.557  11.733  0.00  0.00    +0.000 HD
BRANCH   9  11
ATOM     11  C   UNL     1      43.085   5.581  11.194  0.00  0.00    +0.000 C 
ATOM     12  C   UNL     1      44.043   4.937  10.165  0.00  0.00    +0.000 C 
ATOM     13  C   UNL     1      44.289   3.506  10.628  0.00  0.00    +0.000 C 
ATOM     14  C   UNL     1      44.032   3.561  12.125  0.00  0.00    +0.000 C 
ATOM     15  C   UNL     1      42.808   4.458  12.212  0.00  0.00    +0.000 C 
BRANCH  14  16
ATOM     16  O   UNL     1      43.796   2.274  12.666  0.00  0.00    +0.000 OA
ATOM     17  H   UNL     1      43.218   1.784  12.059  0.00  0.00    +0.000 HD
ENDBRANCH  14  16
ENDBRANCH   9  11
ENDBRANCH   8   9
ENDBRANCH   5   8
ENDBRANCH   1   2
BRANCH   1  18
ATOM     18  N   UNL     1      50.160   8.402  14.934  0.00  0.00    +0.000 NA
ATOM     19  H   UNL     1      49.498   9.117  14.634  0.00  0.00    +0.000 HD
BRANCH  18  20
ATOM     20  C   UNL     1      51.270   8.349  13.972  0.00  0.00    +0.000 C 
BRANCH  20  22
ATOM     21  C   UNL     1      50.593   8.064  11.521  0.00  0.00    +0.000 C 
ATOM     22  C   UNL     1      50.816   9.033  12.674  0.00  0.00    +0.000 C 
ENDBRANCH  20  22
ENDBRANCH  18  20
ENDBRANCH   1  18
BRANCH   1  23
ATOM     23  C   UNL     1      48.944   6.848  16.552  0.00  0.00    +0.000 C 
ATOM     24  O   UNL     1      48.750   7.743  17.375  0.00  0.00    +0.000 OA
BRANCH  23  25
ATOM     25  C   UNL     1      48.721   5.445  16.951  0.00  0.00    +0.000 A 
ATOM     26  C   UNL     1      47.478   4.841  17.040  0.00  0.00    +0.000 A 
ATOM     27  S   UNL     1      47.577   3.150  17.295  0.00  0.00    +0.000 S 
ATOM     28  C   UNL     1      49.279   3.199  17.348  0.00  0.00    +0.000 A 
ATOM     29  N   UNL     1      50.019   2.066  17.463  0.00  0.00    +0.000 NA
ATOM     30  C   UNL     1      51.297   2.278  17.484  0.00  0.00    +0.000 A 
ATOM     31  N   UNL     1      51.895   3.508  17.460  0.00  0.00    +0.000 N 
ATOM     32  C   UNL     1      51.174   4.686  17.482  0.00  0.00    +0.000 A 
ATOM     33  O   UNL     1      51.702   5.753  17.765  0.00  0.00    +0.000 OA
ATOM     34  C   UNL     1      49.751   4.493  17.269  0.00  0.00    +0.000 A 
ATOM     35  H   UNL     1      52.888   3.607  17.607  0.00  0.00    +0.000 HD
ENDBRANCH  23  25
ENDBRANCH   1  23
TORSDOF 10
ENDMDL
MODEL 6
REMARK VINA RESULT:    -6.537      2.227      3.751
REMARK INTER + INTRA:         -11.784
REMARK INTER:                 -10.536
REMARK INTRA:                  -1.247
REMARK UNBOUND:                -1.617
REMARK  Name = 
REMARK  11 active torsions:
REMARK  status: ('A' for Active; 'I' for Inactive)
REMARK    1  A    between atoms: C_1  and  C_2
REMARK    2  A    between atoms: C_2  and  C_3
REMARK    3  A    between atoms: C_3  and  N_4
REMARK    4  A    between atoms: N_4  and  C_5
REMARK    5  A    between atoms: C_5  and  C_6
REMARK    6  A    between atoms: C_5  and  C_18
REMARK    7  A    between atoms: C_6  and  C_8
REMARK    8  A    between atoms: C_21  and  C_22
REMARK    9  A    between atoms: C_22  and  N_23
REMARK   10  A    between atoms: N_23  and  C_24
REMARK   11  A    between atoms: C_27  and  O_28
REMARK                            x       y       z     vdW  Elec       q    Type
REMARK                         _______ _______ _______ _____ _____    ______ ____
ROOT
ATOM      1  C   UNL     1      47.131   7.310  12.561  0.00  0.00    +0.000 C 
ENDROOT
BRANCH   1   2
ATOM      2  C   UNL     1      46.295   6.261  11.824  0.00  0.00    +0.000 A 
ATOM      3  C   UNL     1      46.116   6.343  10.435  0.00  0.00    +0.000 A 
ATOM      4  C   UNL     1      45.435   5.332   9.742  0.00  0.00    +0.000 A 
ATOM      5  C   UNL     1      44.915   4.219  10.421  0.00  0.00    +0.000 A 
ATOM      6  C   UNL     1      45.043   4.169  11.812  0.00  0.00    +0.000 A 
ATOM      7  C   UNL     1      45.709   5.183  12.506  0.00  0.00    +0.000 A 
BRANCH   5   8
ATOM      8  C   UNL     1      44.177   3.124   9.684  0.00  0.00    +0.000 C 
BRANCH   8   9
ATOM      9  N   UNL     1      44.696   2.914   8.324  0.00  0.00    +0.000 NA
ATOM     10  H   UNL     1      44.547   3.780   7.799  0.00  0.00    +0.000 HD
BRANCH   9  11
ATOM     11  C   UNL     1      46.131   2.592   8.324  0.00  0.00    +0.000 C 
ATOM     12  C   UNL     1      46.395   1.110   7.967  0.00  0.00    +0.000 C 
ATOM     13  C   UNL     1      47.258   1.107   6.711  0.00  0.00    +0.000 C 
ATOM     14  C   UNL     1      46.942   2.438   6.051  0.00  0.00    +0.000 C 
ATOM     15  C   UNL     1      46.886   3.385   7.240  0.00  0.00    +0.000 C 
BRANCH  14  16
ATOM     16  O   UNL     1      47.934   2.811   5.113  0.00  0.00    +0.000 OA
ATOM     17  H   UNL     1      48.696   3.171   5.596  0.00  0.00    +0.000 HD
ENDBRANCH  14  16
ENDBRANCH   9  11
ENDBRANCH   8   9
ENDBRANCH   5   8
ENDBRANCH   1   2
BRANCH   1  18
ATOM     18  N   UNL     1      46.275   8.080  13.497  0.00  0.00    +0.000 NA
ATOM     19  H   UNL     1      45.794   7.414  14.101  0.00  0.00    +0.000 HD
BRANCH  18  20
ATOM     20  C   UNL     1      45.274   8.938  12.847  0.00  0.00    +0.000 C 
BRANCH  20  22
ATOM     21  C   UNL     1      45.219  11.233  11.719  0.00  0.00    +0.000 C 
ATOM     22  C   UNL     1      46.012   9.957  11.966  0.00  0.00    +0.000 C 
ENDBRANCH  20  22
ENDBRANCH  18  20
ENDBRANCH   1  18
BRANCH   1  23
ATOM     23  C   UNL     1      48.354   6.621  13.246  0.00  0.00    +0.000 C 
ATOM     24  O   UNL     1      49.388   6.340  12.640  0.00  0.00    +0.000 OA
BRANCH  23  25
ATOM     25  C   UNL     1      48.254   6.299  14.682  0.00  0.00    +0.000 A 
ATOM     26  C   UNL     1      47.736   5.120  15.190  0.00  0.00    +0.000 A 
ATOM     27  S   UNL     1      47.982   4.956  16.876  0.00  0.00    +0.000 S 
ATOM     28  C   UNL     1      48.734   6.481  16.974  0.00  0.00    +0.000 A 
ATOM     29  N   UNL     1      49.266   6.939  18.136  0.00  0.00    +0.000 NA
ATOM     30  C   UNL     1      49.804   8.114  18.037  0.00  0.00    +0.000 A 
ATOM     31  N   UNL     1      49.807   8.889  16.910  0.00  0.00    +0.000 N 
ATOM     32  C   UNL     1      49.158   8.517  15.749  0.00  0.00    +0.000 A 
ATOM     33  O   UNL     1      48.908   9.329  14.869  0.00  0.00    +0.000 OA
ATOM     34  C   UNL     1      48.708   7.136  15.759  0.00  0.00    +0.000 A 
ATOM     35  H   UNL     1      50.131   9.844  16.937  0.00  0.00    +0.000 HD
ENDBRANCH  23  25
ENDBRANCH   1  23
TORSDOF 10
ENDMDL
MODEL 7
REMARK VINA RESULT:    -6.473      3.078      3.687
REMARK INTER + INTRA:         -11.685
REMARK INTER:                 -10.122
REMARK INTRA:                  -1.562
REMARK UNBOUND:                -1.617
REMARK  Name = 
REMARK  11 active torsions:
REMARK  status: ('A' for Active; 'I' for Inactive)
REMARK    1  A    between atoms: C_1  and  C_2
REMARK    2  A    between atoms: C_2  and  C_3
REMARK    3  A    between atoms: C_3  and  N_4
REMARK    4  A    between atoms: N_4  and  C_5
REMARK    5  A    between atoms: C_5  and  C_6
REMARK    6  A    between atoms: C_5  and  C_18
REMARK    7  A    between atoms: C_6  and  C_8
REMARK    8  A    between atoms: C_21  and  C_22
REMARK    9  A    between atoms: C_22  and  N_23
REMARK   10  A    between atoms: N_23  and  C_24
REMARK   11  A    between atoms: C_27  and  O_28
REMARK                            x       y       z     vdW  Elec       q    Type
REMARK                         _______ _______ _______ _____ _____    ______ ____
ROOT
ATOM      1  C   UNL     1      47.862   7.044  14.137  0.00  0.00    +0.000 C 
ENDROOT
BRANCH   1   2
ATOM      2  C   UNL     1      47.029   6.138  13.228  0.00  0.00    +0.000 A 
ATOM      3  C   UNL     1      46.715   4.829  13.624  0.00  0.00    +0.000 A 
ATOM      4  C   UNL     1      45.871   4.029  12.841  0.00  0.00    +0.000 A 
ATOM      5  C   UNL     1      45.324   4.516  11.645  0.00  0.00    +0.000 A 
ATOM      6  C   UNL     1      45.685   5.800  11.222  0.00  0.00    +0.000 A 
ATOM      7  C   UNL     1      46.538   6.593  11.993  0.00  0.00    +0.000 A 
BRANCH   5   8
ATOM      8  C   UNL     1      44.413   3.662  10.791  0.00  0.00    +0.000 C 
BRANCH   8   9
ATOM      9  N   UNL     1      45.094   2.466  10.269  0.00  0.00    +0.000 NA
ATOM     10  H   UNL     1      44.721   1.655  10.770  0.00  0.00    +0.000 HD
BRANCH   9  11
ATOM     11  C   UNL     1      44.869   2.288   8.827  0.00  0.00    +0.000 C 
ATOM     12  C   UNL     1      45.181   3.573   8.025  0.00  0.00    +0.000 C 
ATOM     13  C   UNL     1      46.285   3.218   7.037  0.00  0.00    +0.000 C 
ATOM     14  C   UNL     1      46.986   2.037   7.687  0.00  0.00    +0.000 C 
ATOM     15  C   UNL     1      45.820   1.230   8.236  0.00  0.00    +0.000 C 
BRANCH  14  16
ATOM     16  O   UNL     1      47.756   1.302   6.754  0.00  0.00    +0.000 OA
ATOM     17  H   UNL     1      47.301   1.318   5.896  0.00  0.00    +0.000 HD
ENDBRANCH  14  16
ENDBRANCH   9  11
ENDBRANCH   8   9
ENDBRANCH   5   8
ENDBRANCH   1   2
BRANCH   1  18
ATOM     18  N   UNL     1      48.970   6.272  14.751  0.00  0.00    +0.000 NA
ATOM     19  H   UNL     1      48.770   5.280  14.621  0.00  0.00    +0.000 HD
BRANCH  18  20
ATOM     20  C   UNL     1      49.176   6.529  16.184  0.00  0.00    +0.000 C 
BRANCH  20  22
ATOM     21  C   UNL     1      48.561   4.142  16.866  0.00  0.00    +0.000 C 
ATOM     22  C   UNL     1      48.224   5.623  16.978  0.00  0.00    +0.000 C 
ENDBRANCH  20  22
ENDBRANCH  18  20
ENDBRANCH   1  18
BRANCH   1  23
ATOM     23  C   UNL     1      48.336   8.299  13.336  0.00  0.00    +0.000 C 
ATOM     24  O   UNL     1      47.650   9.314  13.218  0.00  0.00    +0.000 OA
BRANCH  23  25
ATOM     25  C   UNL     1      49.666   8.253  12.698  0.00  0.00    +0.000 A 
ATOM     26  C   UNL     1      49.964   7.540  11.550  0.00  0.00    +0.000 A 
ATOM     27  S   UNL     1      51.525   7.886  10.937  0.00  0.00    +0.000 S 
ATOM     28  C   UNL     1      51.857   8.952  12.224  0.00  0.00    +0.000 A 
ATOM     29  N   UNL     1      53.011   9.665  12.276  0.00  0.00    +0.000 NA
ATOM     30  C   UNL     1      53.104  10.431  13.317  0.00  0.00    +0.000 A 
ATOM     31  N   UNL     1      52.187  10.505  14.328  0.00  0.00    +0.000 N 
ATOM     32  C   UNL     1      51.068   9.696  14.379  0.00  0.00    +0.000 A 
ATOM     33  O   UNL     1      50.430   9.553  15.413  0.00  0.00    +0.000 OA
ATOM     34  C   UNL     1      50.832   8.965  13.148  0.00  0.00    +0.000 A 
ATOM     35  H   UNL     1      52.381  11.026  15.170  0.00  0.00    +0.000 HD
ENDBRANCH  23  25
ENDBRANCH   1  23
TORSDOF 10
ENDMDL
MODEL 8
REMARK VINA RESULT:    -6.437      2.690      3.815
REMARK INTER + INTRA:         -11.629
REMARK INTER:                 -10.155
REMARK INTRA:                  -1.473
REMARK UNBOUND:                -1.617
REMARK  Name = 
REMARK  11 active torsions:
REMARK  status: ('A' for Active; 'I' for Inactive)
REMARK    1  A    between atoms: C_1  and  C_2
REMARK    2  A    between atoms: C_2  and  C_3
REMARK    3  A    between atoms: C_3  and  N_4
REMARK    4  A    between atoms: N_4  and  C_5
REMARK    5  A    between atoms: C_5  and  C_6
REMARK    6  A    between atoms: C_5  and  C_18
REMARK    7  A    between atoms: C_6  and  C_8
REMARK    8  A    between atoms: C_21  and  C_22
REMARK    9  A    between atoms: C_22  and  N_23
REMARK   10  A    between atoms: N_23  and  C_24
REMARK   11  A    between atoms: C_27  and  O_28
REMARK                            x       y       z     vdW  Elec       q    Type
REMARK                         _______ _______ _______ _____ _____    ______ ____
ROOT
ATOM      1  C   UNL     1      48.987   7.373  13.420  0.00  0.00    +0.000 C 
ENDROOT
BRANCH   1   2
ATOM      2  C   UNL     1      47.856   6.524  12.835  0.00  0.00    +0.000 A 
ATOM      3  C   UNL     1      47.436   5.353  13.483  0.00  0.00    +0.000 A 
ATOM      4  C   UNL     1      46.337   4.627  13.005  0.00  0.00    +0.000 A 
ATOM      5  C   UNL     1      45.633   5.051  11.868  0.00  0.00    +0.000 A 
ATOM      6  C   UNL     1      46.088   6.186  11.189  0.00  0.00    +0.000 A 
ATOM      7  C   UNL     1      47.194   6.903  11.655  0.00  0.00    +0.000 A 
BRANCH   5   8
ATOM      8  C   UNL     1      44.447   4.274  11.342  0.00  0.00    +0.000 C 
BRANCH   8   9
ATOM      9  N   UNL     1      44.829   2.955  10.817  0.00  0.00    +0.000 NA
ATOM     10  H   UNL     1      44.364   2.246  11.390  0.00  0.00    +0.000 HD
BRANCH   9  11
ATOM     11  C   UNL     1      44.425   2.780   9.414  0.00  0.00    +0.000 C 
ATOM     12  C   UNL     1      44.891   3.955   8.522  0.00  0.00    +0.000 C 
ATOM     13  C   UNL     1      45.799   3.363   7.452  0.00  0.00    +0.000 C 
ATOM     14  C   UNL     1      46.324   2.087   8.088  0.00  0.00    +0.000 C 
ATOM     15  C   UNL     1      45.090   1.540   8.787  0.00  0.00    +0.000 C 
BRANCH  14  16
ATOM     16  O   UNL     1      46.839   1.189   7.122  0.00  0.00    +0.000 OA
ATOM     17  H   UNL     1      47.494   1.659   6.581  0.00  0.00    +0.000 HD
ENDBRANCH  14  16
ENDBRANCH   9  11
ENDBRANCH   8   9
ENDBRANCH   5   8
ENDBRANCH   1   2
BRANCH   1  18
ATOM     18  N   UNL     1      49.195   8.586  12.592  0.00  0.00    +0.000 NA
ATOM     19  H   UNL     1      48.547   8.545  11.806  0.00  0.00    +0.000 HD
BRANCH  18  20
ATOM     20  C   UNL     1      50.560   8.747  12.072  0.00  0.00    +0.000 C 
BRANCH  20  22
ATOM     21  C   UNL     1      52.237   7.565  10.543  0.00  0.00    +0.000 C 
ATOM     22  C   UNL     1      50.781   7.704  10.966  0.00  0.00    +0.000 C 
ENDBRANCH  20  22
ENDBRANCH  18  20
ENDBRANCH   1  18
BRANCH   1  23
ATOM     23  C   UNL     1      48.691   7.677  14.923  0.00  0.00    +0.000 C 
ATOM     24  O   UNL     1      47.965   8.602  15.287  0.00  0.00    +0.000 OA
BRANCH  23  25
ATOM     25  C   UNL     1      49.312   6.809  15.941  0.00  0.00    +0.000 A 
ATOM     26  C   UNL     1      48.617   5.935  16.760  0.00  0.00    +0.000 A 
ATOM     27  S   UNL     1      49.646   4.903  17.659  0.00  0.00    +0.000 S 
ATOM     28  C   UNL     1      51.042   5.640  17.018  0.00  0.00    +0.000 A 
ATOM     29  N   UNL     1      52.286   5.183  17.312  0.00  0.00    +0.000 NA
ATOM     30  C   UNL     1      53.236   5.852  16.739  0.00  0.00    +0.000 A 
ATOM     31  N   UNL     1      53.062   6.958  15.954  0.00  0.00    +0.000 N 
ATOM     32  C   UNL     1      51.824   7.534  15.744  0.00  0.00    +0.000 A 
ATOM     33  O   UNL     1      51.715   8.672  15.306  0.00  0.00    +0.000 OA
ATOM     34  C   UNL     1      50.722   6.712  16.209  0.00  0.00    +0.000 A 
ATOM     35  H   UNL     1      53.851   7.505  15.644  0.00  0.00    +0.000 HD
ENDBRANCH  23  25
ENDBRANCH   1  23
TORSDOF 10
ENDMDL
MODEL 9
REMARK VINA RESULT:    -6.385      2.478      3.576
REMARK INTER + INTRA:         -11.548
REMARK INTER:                 -10.227
REMARK INTRA:                  -1.321
REMARK UNBOUND:                -1.617
REMARK  Name = 
REMARK  11 active torsions:
REMARK  status: ('A' for Active; 'I' for Inactive)
REMARK    1  A    between atoms: C_1  and  C_2
REMARK    2  A    between atoms: C_2  and  C_3
REMARK    3  A    between atoms: C_3  and  N_4
REMARK    4  A    between atoms: N_4  and  C_5
REMARK    5  A    between atoms: C_5  and  C_6
REMARK    6  A    between atoms: C_5  and  C_18
REMARK    7  A    between atoms: C_6  and  C_8
REMARK    8  A    between atoms: C_21  and  C_22
REMARK    9  A    between atoms: C_22  and  N_23
REMARK   10  A    between atoms: N_23  and  C_24
REMARK   11  A    between atoms: C_27  and  O_28
REMARK                            x       y       z     vdW  Elec       q    Type
REMARK                         _______ _______ _______ _____ _____    ______ ____
ROOT
ATOM      1  C   UNL     1      49.085   7.003  13.793  0.00  0.00    +0.000 C 
ENDROOT
BRANCH   1   2
ATOM      2  C   UNL     1      47.844   6.332  13.200  0.00  0.00    +0.000 A 
ATOM      3  C   UNL     1      47.256   6.831  12.028  0.00  0.00    +0.000 A 
ATOM      4  C   UNL     1      46.180   6.162  11.428  0.00  0.00    +0.000 A 
ATOM      5  C   UNL     1      45.665   4.981  11.985  0.00  0.00    +0.000 A 
ATOM      6  C   UNL     1      46.214   4.518  13.186  0.00  0.00    +0.000 A 
ATOM      7  C   UNL     1      47.276   5.192  13.794  0.00  0.00    +0.000 A 
BRANCH   5   8
ATOM      8  C   UNL     1      44.504   4.252  11.348  0.00  0.00    +0.000 C 
BRANCH   8   9
ATOM      9  N   UNL     1      44.899   2.951  10.787  0.00  0.00    +0.000 NA
ATOM     10  H   UNL     1      44.438   2.223  11.338  0.00  0.00    +0.000 HD
BRANCH   9  11
ATOM     11  C   UNL     1      44.501   2.813   9.378  0.00  0.00    +0.000 C 
ATOM     12  C   UNL     1      45.047   3.965   8.502  0.00  0.00    +0.000 C 
ATOM     13  C   UNL     1      45.929   3.328   7.436  0.00  0.00    +0.000 C 
ATOM     14  C   UNL     1      46.369   2.017   8.066  0.00  0.00    +0.000 C 
ATOM     15  C   UNL     1      45.096   1.540   8.747  0.00  0.00    +0.000 C 
BRANCH  14  16
ATOM     16  O   UNL     1      46.839   1.098   7.098  0.00  0.00    +0.000 OA
ATOM     17  H   UNL     1      47.333   0.395   7.552  0.00  0.00    +0.000 HD
ENDBRANCH  14  16
ENDBRANCH   9  11
ENDBRANCH   8   9
ENDBRANCH   5   8
ENDBRANCH   1   2
BRANCH   1  18
ATOM     18  N   UNL     1      49.409   8.236  13.034  0.00  0.00    +0.000 NA
ATOM     19  H   UNL     1      48.784   8.282  12.230  0.00  0.00    +0.000 HD
BRANCH  18  20
ATOM     20  C   UNL     1      50.798   8.316  12.559  0.00  0.00    +0.000 C 
BRANCH  20  22
ATOM     21  C   UNL     1      51.892   7.375  10.447  0.00  0.00    +0.000 C 
ATOM     22  C   UNL     1      50.788   8.250  11.025  0.00  0.00    +0.000 C 
ENDBRANCH  20  22
ENDBRANCH  18  20
ENDBRANCH   1  18
BRANCH   1  23
ATOM     23  C   UNL     1      48.874   7.240  15.322  0.00  0.00    +0.000 C 
ATOM     24  O   UNL     1      48.002   7.987  15.768  0.00  0.00    +0.000 OA
BRANCH  23  25
ATOM     25  C   UNL     1      49.762   6.531  16.263  0.00  0.00    +0.000 A 
ATOM     26  C   UNL     1      51.143   6.635  16.272  0.00  0.00    +0.000 A 
ATOM     27  S   UNL     1      51.859   5.880  17.631  0.00  0.00    +0.000 S 
ATOM     28  C   UNL     1      50.346   5.349  18.206  0.00  0.00    +0.000 A 
ATOM     29  N   UNL     1      50.224   4.697  19.391  0.00  0.00    +0.000 NA
ATOM     30  C   UNL     1      49.006   4.367  19.683  0.00  0.00    +0.000 A 
ATOM     31  N   UNL     1      47.917   4.575  18.881  0.00  0.00    +0.000 N 
ATOM     32  C   UNL     1      48.019   5.110  17.612  0.00  0.00    +0.000 A 
ATOM     33  O   UNL     1      47.108   5.011  16.801  0.00  0.00    +0.000 OA
ATOM     34  C   UNL     1      49.331   5.663  17.325  0.00  0.00    +0.000 A 
ATOM     35  H   UNL     1      47.018   4.180  19.112  0.00  0.00    +0.000 HD
ENDBRANCH  23  25
ENDBRANCH   1  23
TORSDOF 10
ENDMDL
