MODEL 1
REMARK VINA RESULT:    -8.295      0.000      0.000
REMARK INTER + INTRA:         -11.331
REMARK INTER:                 -10.720
REMARK INTRA:                  -0.611
REMARK UNBOUND:                -0.611
REMARK  Name = 
REMARK  5 active torsions:
REMARK  status: ('A' for Active; 'I' for Inactive)
REMARK    1  A    between atoms: C_2  and  C_17
REMARK    2  A    between atoms: N_3  and  C_4
REMARK    3  A    between atoms: C_4  and  C_5
REMARK    4  A    between atoms: C_8  and  C_9
REMARK    5  A    between atoms: C_9  and  C_10
REMARK                            x       y       z     vdW  Elec       q    Type
REMARK                         _______ _______ _______ _____ _____    ______ ____
ROOT
ATOM      1  O   UNL     1      46.479   3.326  13.746  0.00  0.00    +0.000 OA
ATOM      2  C   UNL     1      46.353   4.496  14.091  0.00  0.00    +0.000 C 
ATOM      3  N   UNL     1      45.255   5.250  13.780  0.00  0.00    +0.000 N 
ATOM      4  H   UNL     1      45.170   6.199  14.113  0.00  0.00    +0.000 HD
ENDROOT
BRANCH   2   5
ATOM      5  C   UNL     1      47.409   5.206  14.823  0.00  0.00    +0.000 A 
ATOM      6  C   UNL     1      48.173   6.177  14.194  0.00  0.00    +0.000 A 
ATOM      7  S   UNL     1      49.299   6.926  15.236  0.00  0.00    +0.000 S 
ATOM      8  C   UNL     1      48.829   5.950  16.547  0.00  0.00    +0.000 A 
ATOM      9  N   UNL     1      49.403   6.089  17.773  0.00  0.00    +0.000 NA
ATOM     10  C   UNL     1      48.955   5.271  18.668  0.00  0.00    +0.000 A 
ATOM     11  N   UNL     1      47.998   4.315  18.445  0.00  0.00    +0.000 N 
ATOM     12  C   UNL     1      47.394   4.133  17.224  0.00  0.00    +0.000 A 
ATOM     13  O   UNL     1      46.539   3.270  17.066  0.00  0.00    +0.000 OA
ATOM     14  C   UNL     1      47.836   5.053  16.194  0.00  0.00    +0.000 A 
ATOM     15  H   UNL     1      47.692   3.701  19.186  0.00  0.00    +0.000 HD
ENDBRANCH   2   5
BRANCH   3  16
ATOM     16  C   UNL     1      44.092   4.716  13.115  0.00  0.00    +0.000 C 
BRANCH  16  17
ATOM     17  C   UNL     1      44.356   4.397  11.663  0.00  0.00    +0.000 A 
ATOM     18  C   UNL     1      45.045   5.310  10.871  0.00  0.00    +0.000 A 
ATOM     19  C   UNL     1      45.322   4.982   9.549  0.00  0.00    +0.000 A 
ATOM     20  C   UNL     1      44.901   3.755   9.034  0.00  0.00    +0.000 A 
ATOM     21  C   UNL     1      44.185   2.921   9.888  0.00  0.00    +0.000 A 
ATOM     22  N   UNL     1      43.901   3.214  11.179  0.00  0.00    +0.000 NA
BRANCH  20  23
ATOM     23  C   UNL     1      45.251   3.347   7.626  0.00  0.00    +0.000 C 
BRANCH  23  24
ATOM     24  C   UNL     1      46.738   3.533   7.253  0.00  0.00    +0.000 C 
ATOM     25  C   UNL     1      47.557   2.250   7.305  0.00  0.00    +0.000 C 
ATOM     26  C   UNL     1      47.299   1.609   5.957  0.00  0.00    +0.000 C 
ATOM     27  C   UNL     1      47.113   2.789   5.018  0.00  0.00    +0.000 C 
ATOM     28  N   UNL     1      46.904   3.972   5.856  0.00  0.00    +0.000 NA
ATOM     29  H   UNL     1      46.109   4.518   5.527  0.00  0.00    +0.000 HD
ENDBRANCH  23  24
ENDBRANCH  20  23
ENDBRANCH  16  17
ENDBRANCH   3  16
TORSDOF 5
ENDMDL
MODEL 2
REMARK VINA RESULT:    -7.530      4.124      8.701
REMARK INTER + INTRA:         -10.342
REMARK INTER:                  -9.500
REMARK INTRA:                  -0.842
REMARK UNBOUND:                -0.611
REMARK  Name = 
REMARK  5 active torsions:
REMARK  status: ('A' for Active; 'I' for Inactive)
REMARK    1  A    between atoms: C_2  and  C_17
REMARK    2  A    between atoms: N_3  and  C_4
REMARK    3  A    between atoms: C_4  and  C_5
REMARK    4  A    between atoms: C_8  and  C_9
REMARK    5  A    between atoms: C_9  and  C_10
REMARK                            x       y       z     vdW  Elec       q    Type
REMARK                         _______ _______ _______ _____ _____    ______ ____
ROOT
ATOM      1  O   UNL     1      49.513   6.698  14.621  0.00  0.00    +0.000 OA
ATOM      2  C   UNL     1      48.387   6.269  14.852  0.00  0.00    +0.000 C 
ATOM      3  N   UNL     1      48.025   5.742  16.061  0.00  0.00    +0.000 N 
ATOM      4  H   UNL     1      47.078   5.432  16.226  0.00  0.00    +0.000 HD
ENDROOT
BRANCH   2   5
ATOM      5  C   UNL     1      47.344   6.235  13.820  0.00  0.00    +0.000 A 
ATOM      6  C   UNL     1      46.901   7.406  13.226  0.00  0.00    +0.000 A 
ATOM      7  S   UNL     1      45.734   7.143  12.008  0.00  0.00    +0.000 S 
ATOM      8  C   UNL     1      45.755   5.462  12.264  0.00  0.00    +0.000 A 
ATOM      9  N   UNL     1      44.979   4.623  11.524  0.00  0.00    +0.000 NA
ATOM     10  C   UNL     1      45.090   3.375  11.840  0.00  0.00    +0.000 A 
ATOM     11  N   UNL     1      45.893   2.889  12.838  0.00  0.00    +0.000 N 
ATOM     12  C   UNL     1      46.690   3.695  13.615  0.00  0.00    +0.000 A 
ATOM     13  O   UNL     1      47.398   3.222  14.496  0.00  0.00    +0.000 OA
ATOM     14  C   UNL     1      46.630   5.104  13.275  0.00  0.00    +0.000 A 
ATOM     15  H   UNL     1      45.934   1.901  13.040  0.00  0.00    +0.000 HD
ENDBRANCH   2   5
BRANCH   3  16
ATOM     16  C   UNL     1      48.892   5.737  17.213  0.00  0.00    +0.000 C 
BRANCH  16  17
ATOM     17  C   UNL     1      49.743   4.492  17.288  0.00  0.00    +0.000 A 
ATOM     18  C   UNL     1      51.091   4.597  17.616  0.00  0.00    +0.000 A 
ATOM     19  C   UNL     1      51.851   3.438  17.727  0.00  0.00    +0.000 A 
ATOM     20  C   UNL     1      51.259   2.195  17.500  0.00  0.00    +0.000 A 
ATOM     21  C   UNL     1      49.915   2.189  17.140  0.00  0.00    +0.000 A 
ATOM     22  N   UNL     1      49.150   3.300  17.024  0.00  0.00    +0.000 NA
BRANCH  20  23
ATOM     23  C   UNL     1      52.043   0.922  17.684  0.00  0.00    +0.000 C 
BRANCH  23  24
ATOM     24  C   UNL     1      53.540   1.030  17.318  0.00  0.00    +0.000 C 
ATOM     25  C   UNL     1      54.474   1.053  18.520  0.00  0.00    +0.000 C 
ATOM     26  C   UNL     1      54.661  -0.413  18.854  0.00  0.00    +0.000 C 
ATOM     27  C   UNL     1      54.578  -1.110  17.507  0.00  0.00    +0.000 C 
ATOM     28  N   UNL     1      54.007  -0.146  16.562  0.00  0.00    +0.000 NA
ATOM     29  H   UNL     1      53.263  -0.570  16.011  0.00  0.00    +0.000 HD
ENDBRANCH  23  24
ENDBRANCH  20  23
ENDBRANCH  16  17
ENDBRANCH   3  16
TORSDOF 5
ENDMDL
MODEL 3
REMARK VINA RESULT:    -7.449      1.856      2.812
REMARK INTER + INTRA:         -10.238
REMARK INTER:                  -9.361
REMARK INTRA:                  -0.877
REMARK UNBOUND:                -0.611
REMARK  Name = 
REMARK  5 active torsions:
REMARK  status: ('A' for Active; 'I' for Inactive)
REMARK    1  A    between atoms: C_2  and  C_17
REMARK    2  A    between atoms: N_3  and  C_4
REMARK    3  A    between atoms: C_4  and  C_5
REMARK    4  A    between atoms: C_8  and  C_9
REMARK    5  A    between atoms: C_9  and  C_10
REMARK                            x       y       z     vdW  Elec       q    Type
REMARK                         _______ _______ _______ _____ _____    ______ ____
ROOT
ATOM      1  O   UNL     1      46.843   3.639  13.948  0.00  0.00    +0.000 OA
ATOM      2  C   UNL     1      46.780   4.835  14.213  0.00  0.00    +0.000 C 
ATOM      3  N   UNL     1      45.726   5.625  13.843  0.00  0.00    +0.000 N 
ATOM      4  H   UNL     1      45.692   6.598  14.111  0.00  0.00    +0.000 HD
ENDROOT
BRANCH   2   5
ATOM      5  C   UNL     1      47.869   5.533  14.905  0.00  0.00    +0.000 A 
ATOM      6  C   UNL     1      48.124   5.290  16.246  0.00  0.00    +0.000 A 
ATOM      7  S   UNL     1      49.470   6.153  16.843  0.00  0.00    +0.000 S 
ATOM      8  C   UNL     1      49.731   6.907  15.341  0.00  0.00    +0.000 A 
ATOM      9  N   UNL     1      50.760   7.779  15.156  0.00  0.00    +0.000 NA
ATOM     10  C   UNL     1      50.825   8.283  13.968  0.00  0.00    +0.000 A 
ATOM     11  N   UNL     1      49.947   8.009  12.952  0.00  0.00    +0.000 N 
ATOM     12  C   UNL     1      48.891   7.141  13.091  0.00  0.00    +0.000 A 
ATOM     13  O   UNL     1      48.130   6.918  12.158  0.00  0.00    +0.000 OA
ATOM     14  C   UNL     1      48.795   6.518  14.398  0.00  0.00    +0.000 A 
ATOM     15  H   UNL     1      50.049   8.439  12.044  0.00  0.00    +0.000 HD
ENDBRANCH   2   5
BRANCH   3  16
ATOM     16  C   UNL     1      44.539   5.112  13.205  0.00  0.00    +0.000 C 
BRANCH  16  17
ATOM     17  C   UNL     1      44.797   4.662  11.788  0.00  0.00    +0.000 A 
ATOM     18  C   UNL     1      44.480   3.362  11.409  0.00  0.00    +0.000 A 
ATOM     19  C   UNL     1      44.679   2.976  10.088  0.00  0.00    +0.000 A 
ATOM     20  C   UNL     1      45.199   3.888   9.168  0.00  0.00    +0.000 A 
ATOM     21  C   UNL     1      45.522   5.155   9.645  0.00  0.00    +0.000 A 
ATOM     22  N   UNL     1      45.340   5.558  10.925  0.00  0.00    +0.000 NA
BRANCH  20  23
ATOM     23  C   UNL     1      45.357   3.516   7.717  0.00  0.00    +0.000 C 
BRANCH  23  24
ATOM     24  C   UNL     1      46.800   3.622   7.179  0.00  0.00    +0.000 C 
ATOM     25  C   UNL     1      47.577   2.313   7.220  0.00  0.00    +0.000 C 
ATOM     26  C   UNL     1      47.154   1.609   5.947  0.00  0.00    +0.000 C 
ATOM     27  C   UNL     1      46.907   2.741   4.964  0.00  0.00    +0.000 C 
ATOM     28  N   UNL     1      46.829   3.976   5.748  0.00  0.00    +0.000 NA
ATOM     29  H   UNL     1      46.022   4.534   5.473  0.00  0.00    +0.000 HD
ENDBRANCH  23  24
ENDBRANCH  20  23
ENDBRANCH  16  17
ENDBRANCH   3  16
TORSDOF 5
ENDMDL
MODEL 4
REMARK VINA RESULT:    -7.399      3.924      8.905
REMARK INTER + INTRA:         -10.173
REMARK INTER:                  -9.457
REMARK INTRA:                  -0.717
REMARK UNBOUND:                -0.611
REMARK  Name = 
REMARK  5 active torsions:
REMARK  status: ('A' for Active; 'I' for Inactive)
REMARK    1  A    between atoms: C_2  and  C_17
REMARK    2  A    between atoms: N_3  and  C_4
REMARK    3  A    between atoms: C_4  and  C_5
REMARK    4  A    between atoms: C_8  and  C_9
REMARK    5  A    between atoms: C_9  and  C_10
REMARK                            x       y       z     vdW  Elec       q    Type
REMARK                         _______ _______ _______ _____ _____    ______ ____
ROOT
ATOM      1  O   UNL     1      47.241   3.059  14.089  0.00  0.00    +0.000 OA
ATOM      2  C   UNL     1      46.888   4.138  14.555  0.00  0.00    +0.000 C 
ATOM      3  N   UNL     1      46.787   4.370  15.899  0.00  0.00    +0.000 N 
ATOM      4  H   UNL     1      46.528   5.282  16.246  0.00  0.00    +0.000 HD
ENDROOT
BRANCH   2   5
ATOM      5  C   UNL     1      46.488   5.259  13.697  0.00  0.00    +0.000 A 
ATOM      6  C   UNL     1      47.329   6.346  13.519  0.00  0.00    +0.000 A 
ATOM      7  S   UNL     1      46.705   7.509  12.435  0.00  0.00    +0.000 S 
ATOM      8  C   UNL     1      45.277   6.616  12.202  0.00  0.00    +0.000 A 
ATOM      9  N   UNL     1      44.300   7.052  11.360  0.00  0.00    +0.000 NA
ATOM     10  C   UNL     1      43.267   6.277  11.294  0.00  0.00    +0.000 A 
ATOM     11  N   UNL     1      43.115   5.114  12.004  0.00  0.00    +0.000 N 
ATOM     12  C   UNL     1      44.070   4.636  12.868  0.00  0.00    +0.000 A 
ATOM     13  O   UNL     1      43.899   3.590  13.482  0.00  0.00    +0.000 OA
ATOM     14  C   UNL     1      45.267   5.452  12.951  0.00  0.00    +0.000 A 
ATOM     15  H   UNL     1      42.281   4.553  11.912  0.00  0.00    +0.000 HD
ENDBRANCH   2   5
BRANCH   3  16
ATOM     16  C   UNL     1      47.186   3.412  16.900  0.00  0.00    +0.000 C 
BRANCH  16  17
ATOM     17  C   UNL     1      48.679   3.402  17.122  0.00  0.00    +0.000 A 
ATOM     18  C   UNL     1      49.321   4.562  17.543  0.00  0.00    +0.000 A 
ATOM     19  C   UNL     1      50.689   4.525  17.790  0.00  0.00    +0.000 A 
ATOM     20  C   UNL     1      51.397   3.337  17.604  0.00  0.00    +0.000 A 
ATOM     21  C   UNL     1      50.680   2.237  17.144  0.00  0.00    +0.000 A 
ATOM     22  N   UNL     1      49.349   2.243  16.896  0.00  0.00    +0.000 NA
BRANCH  20  23
ATOM     23  C   UNL     1      52.865   3.254  17.932  0.00  0.00    +0.000 C 
BRANCH  23  24
ATOM     24  C   UNL     1      53.366   1.837  18.288  0.00  0.00    +0.000 C 
ATOM     25  C   UNL     1      54.330   1.245  17.269  0.00  0.00    +0.000 C 
ATOM     26  C   UNL     1      55.672   1.820  17.672  0.00  0.00    +0.000 C 
ATOM     27  C   UNL     1      55.575   1.959  19.182  0.00  0.00    +0.000 C 
ATOM     28  N   UNL     1      54.157   1.830  19.531  0.00  0.00    +0.000 NA
ATOM     29  H   UNL     1      53.870   2.566  20.174  0.00  0.00    +0.000 HD
ENDBRANCH  23  24
ENDBRANCH  20  23
ENDBRANCH  16  17
ENDBRANCH   3  16
TORSDOF 5
ENDMDL
MODEL 5
REMARK VINA RESULT:    -7.004      3.855      6.094
REMARK INTER + INTRA:          -9.663
REMARK INTER:                  -8.753
REMARK INTRA:                  -0.910
REMARK UNBOUND:                -0.611
REMARK  Name = 
REMARK  5 active torsions:
REMARK  status: ('A' for Active; 'I' for Inactive)
REMARK    1  A    between atoms: C_2  and  C_17
REMARK    2  A    between atoms: N_3  and  C_4
REMARK    3  A    between atoms: C_4  and  C_5
REMARK    4  A    between atoms: C_8  and  C_9
REMARK    5  A    between atoms: C_9  and  C_10
REMARK                            x       y       z     vdW  Elec       q    Type
REMARK                         _______ _______ _______ _____ _____    ______ ____
ROOT
ATOM      1  O   UNL     1      50.182   6.012  19.123  0.00  0.00    +0.000 OA
ATOM      2  C   UNL     1      50.826   5.527  18.199  0.00  0.00    +0.000 C 
ATOM      3  N   UNL     1      50.588   5.831  16.886  0.00  0.00    +0.000 N 
ATOM      4  H   UNL     1      51.162   5.439  16.154  0.00  0.00    +0.000 HD
ENDROOT
BRANCH   2   5
ATOM      5  C   UNL     1      51.875   4.527  18.426  0.00  0.00    +0.000 A 
ATOM      6  C   UNL     1      53.052   4.873  19.072  0.00  0.00    +0.000 A 
ATOM      7  S   UNL     1      54.111   3.553  19.293  0.00  0.00    +0.000 S 
ATOM      8  C   UNL     1      53.049   2.488  18.499  0.00  0.00    +0.000 A 
ATOM      9  N   UNL     1      53.350   1.168  18.353  0.00  0.00    +0.000 NA
ATOM     10  C   UNL     1      52.456   0.484  17.718  0.00  0.00    +0.000 A 
ATOM     11  N   UNL     1      51.297   1.001  17.201  0.00  0.00    +0.000 N 
ATOM     12  C   UNL     1      50.952   2.327  17.318  0.00  0.00    +0.000 A 
ATOM     13  O   UNL     1      49.904   2.750  16.846  0.00  0.00    +0.000 OA
ATOM     14  C   UNL     1      51.907   3.131  18.057  0.00  0.00    +0.000 A 
ATOM     15  H   UNL     1      50.637   0.415  16.710  0.00  0.00    +0.000 HD
ENDBRANCH   2   5
BRANCH   3  16
ATOM     16  C   UNL     1      49.636   6.830  16.465  0.00  0.00    +0.000 C 
BRANCH  16  17
ATOM     17  C   UNL     1      48.640   6.291  15.467  0.00  0.00    +0.000 A 
ATOM     18  C   UNL     1      48.401   6.988  14.288  0.00  0.00    +0.000 A 
ATOM     19  C   UNL     1      47.517   6.455  13.356  0.00  0.00    +0.000 A 
ATOM     20  C   UNL     1      46.878   5.243  13.619  0.00  0.00    +0.000 A 
ATOM     21  C   UNL     1      47.148   4.635  14.841  0.00  0.00    +0.000 A 
ATOM     22  N   UNL     1      48.004   5.130  15.766  0.00  0.00    +0.000 NA
BRANCH  20  23
ATOM     23  C   UNL     1      45.970   4.611  12.595  0.00  0.00    +0.000 C 
BRANCH  23  24
ATOM     24  C   UNL     1      44.618   4.115  13.153  0.00  0.00    +0.000 C 
ATOM     25  C   UNL     1      43.432   4.996  12.784  0.00  0.00    +0.000 C 
ATOM     26  C   UNL     1      43.042   4.508  11.404  0.00  0.00    +0.000 C 
ATOM     27  C   UNL     1      43.380   3.027  11.428  0.00  0.00    +0.000 C 
ATOM     28  N   UNL     1      44.241   2.804  12.593  0.00  0.00    +0.000 NA
ATOM     29  H   UNL     1      45.054   2.243  12.346  0.00  0.00    +0.000 HD
ENDBRANCH  23  24
ENDBRANCH  20  23
ENDBRANCH  16  17
ENDBRANCH   3  16
TORSDOF 5
ENDMDL
MODEL 6
REMARK VINA RESULT:    -6.775      3.889      8.685
REMARK INTER + INTRA:          -9.366
REMARK INTER:                  -8.630
REMARK INTRA:                  -0.737
REMARK UNBOUND:                -0.611
REMARK  Name = 
REMARK  5 active torsions:
REMARK  status: ('A' for Active; 'I' for Inactive)
REMARK    1  A    between atoms: C_2  and  C_17
REMARK    2  A    between atoms: N_3  and  C_4
REMARK    3  A    between atoms: C_4  and  C_5
REMARK    4  A    between atoms: C_8  and  C_9
REMARK    5  A    between atoms: C_9  and  C_10
REMARK                            x       y       z     vdW  Elec       q    Type
REMARK                         _______ _______ _______ _____ _____    ______ ____
ROOT
ATOM      1  O   UNL     1      47.332   3.155  14.066  0.00  0.00    +0.000 OA
ATOM      2  C   UNL     1      46.942   4.213  14.550  0.00  0.00    +0.000 C 
ATOM      3  N   UNL     1      46.835   4.419  15.898  0.00  0.00    +0.000 N 
ATOM      4  H   UNL     1      46.545   5.315  16.261  0.00  0.00    +0.000 HD
ENDROOT
BRANCH   2   5
ATOM      5  C   UNL     1      46.501   5.333  13.712  0.00  0.00    +0.000 A 
ATOM      6  C   UNL     1      47.309   6.446  13.539  0.00  0.00    +0.000 A 
ATOM      7  S   UNL     1      46.641   7.605  12.478  0.00  0.00    +0.000 S 
ATOM      8  C   UNL     1      45.236   6.674  12.248  0.00  0.00    +0.000 A 
ATOM      9  N   UNL     1      44.237   7.093  11.423  0.00  0.00    +0.000 NA
ATOM     10  C   UNL     1      43.226   6.290  11.357  0.00  0.00    +0.000 A 
ATOM     11  N   UNL     1      43.115   5.115  12.053  0.00  0.00    +0.000 N 
ATOM     12  C   UNL     1      44.093   4.652  12.901  0.00  0.00    +0.000 A 
ATOM     13  O   UNL     1      43.958   3.594  13.502  0.00  0.00    +0.000 OA
ATOM     14  C   UNL     1      45.267   5.501  12.981  0.00  0.00    +0.000 A 
ATOM     15  H   UNL     1      42.297   4.530  11.962  0.00  0.00    +0.000 HD
ENDBRANCH   2   5
BRANCH   3  16
ATOM     16  C   UNL     1      47.271   3.459  16.882  0.00  0.00    +0.000 C 
BRANCH  16  17
ATOM     17  C   UNL     1      48.720   3.644  17.265  0.00  0.00    +0.000 A 
ATOM     18  C   UNL     1      49.608   2.582  17.132  0.00  0.00    +0.000 A 
ATOM     19  C   UNL     1      50.949   2.781  17.443  0.00  0.00    +0.000 A 
ATOM     20  C   UNL     1      51.381   4.030  17.890  0.00  0.00    +0.000 A 
ATOM     21  C   UNL     1      50.415   5.022  18.029  0.00  0.00    +0.000 A 
ATOM     22  N   UNL     1      49.104   4.858  17.734  0.00  0.00    +0.000 NA
BRANCH  20  23
ATOM     23  C   UNL     1      52.839   4.290  18.166  0.00  0.00    +0.000 C 
BRANCH  23  24
ATOM     24  C   UNL     1      53.298   5.739  17.892  0.00  0.00    +0.000 C 
ATOM     25  C   UNL     1      54.734   6.025  18.310  0.00  0.00    +0.000 C 
ATOM     26  C   UNL     1      55.551   5.544  17.128  0.00  0.00    +0.000 C 
ATOM     27  C   UNL     1      54.654   5.803  15.930  0.00  0.00    +0.000 C 
ATOM     28  N   UNL     1      53.307   6.050  16.451  0.00  0.00    +0.000 NA
ATOM     29  H   UNL     1      52.611   5.512  15.937  0.00  0.00    +0.000 HD
ENDBRANCH  23  24
ENDBRANCH  20  23
ENDBRANCH  16  17
ENDBRANCH   3  16
TORSDOF 5
ENDMDL
MODEL 7
REMARK VINA RESULT:    -6.770      3.172      8.786
REMARK INTER + INTRA:          -9.360
REMARK INTER:                  -8.400
REMARK INTRA:                  -0.960
REMARK UNBOUND:                -0.611
REMARK  Name = 
REMARK  5 active torsions:
REMARK  status: ('A' for Active; 'I' for Inactive)
REMARK    1  A    between atoms: C_2  and  C_17
REMARK    2  A    between atoms: N_3  and  C_4
REMARK    3  A    between atoms: C_4  and  C_5
REMARK    4  A    between atoms: C_8  and  C_9
REMARK    5  A    between atoms: C_9  and  C_10
REMARK                            x       y       z     vdW  Elec       q    Type
REMARK                         _______ _______ _______ _____ _____    ______ ____
ROOT
ATOM      1  O   UNL     1      45.955   7.711  11.824  0.00  0.00    +0.000 OA
ATOM      2  C   UNL     1      46.407   6.577  11.701  0.00  0.00    +0.000 C 
ATOM      3  N   UNL     1      47.610   6.195  12.227  0.00  0.00    +0.000 N 
ATOM      4  H   UNL     1      47.933   5.242  12.136  0.00  0.00    +0.000 HD
ENDROOT
BRANCH   2   5
ATOM      5  C   UNL     1      45.711   5.546  10.923  0.00  0.00    +0.000 A 
ATOM      6  C   UNL     1      45.777   5.543   9.538  0.00  0.00    +0.000 A 
ATOM      7  S   UNL     1      44.955   4.226   8.828  0.00  0.00    +0.000 S 
ATOM      8  C   UNL     1      44.453   3.642  10.345  0.00  0.00    +0.000 A 
ATOM      9  N   UNL     1      43.709   2.508  10.455  0.00  0.00    +0.000 NA
ATOM     10  C   UNL     1      43.390   2.194  11.668  0.00  0.00    +0.000 A 
ATOM     11  N   UNL     1      43.733   2.918  12.779  0.00  0.00    +0.000 N 
ATOM     12  C   UNL     1      44.478   4.072  12.719  0.00  0.00    +0.000 A 
ATOM     13  O   UNL     1      44.768   4.690  13.736  0.00  0.00    +0.000 OA
ATOM     14  C   UNL     1      44.893   4.448  11.381  0.00  0.00    +0.000 A 
ATOM     15  H   UNL     1      43.450   2.623  13.702  0.00  0.00    +0.000 HD
ENDBRANCH   2   5
BRANCH   3  16
ATOM     16  C   UNL     1      48.414   7.048  13.066  0.00  0.00    +0.000 C 
BRANCH  16  17
ATOM     17  C   UNL     1      48.376   6.630  14.516  0.00  0.00    +0.000 A 
ATOM     18  C   UNL     1      48.820   7.508  15.499  0.00  0.00    +0.000 A 
ATOM     19  C   UNL     1      48.735   7.127  16.834  0.00  0.00    +0.000 A 
ATOM     20  C   UNL     1      48.218   5.875  17.167  0.00  0.00    +0.000 A 
ATOM     21  C   UNL     1      47.834   5.047  16.116  0.00  0.00    +0.000 A 
ATOM     22  N   UNL     1      47.905   5.391  14.809  0.00  0.00    +0.000 NA
BRANCH  20  23
ATOM     23  C   UNL     1      48.050   5.468  18.608  0.00  0.00    +0.000 C 
BRANCH  23  24
ATOM     24  C   UNL     1      48.910   4.260  19.040  0.00  0.00    +0.000 C 
ATOM     25  C   UNL     1      50.403   4.445  18.806  0.00  0.00    +0.000 C 
ATOM     26  C   UNL     1      50.862   5.210  20.031  0.00  0.00    +0.000 C 
ATOM     27  C   UNL     1      49.949   4.714  21.139  0.00  0.00    +0.000 C 
ATOM     28  N   UNL     1      48.832   4.021  20.493  0.00  0.00    +0.000 NA
ATOM     29  H   UNL     1      47.940   4.319  20.884  0.00  0.00    +0.000 HD
ENDBRANCH  23  24
ENDBRANCH  20  23
ENDBRANCH  16  17
ENDBRANCH   3  16
TORSDOF 5
ENDMDL
MODEL 8
REMARK VINA RESULT:    -6.609      3.053      9.068
REMARK INTER + INTRA:          -9.153
REMARK INTER:                  -8.194
REMARK INTRA:                  -0.959
REMARK UNBOUND:                -0.611
REMARK  Name = 
REMARK  5 active torsions:
REMARK  status: ('A' for Active; 'I' for Inactive)
REMARK    1  A    between atoms: C_2  and  C_17
REMARK    2  A    between atoms: N_3  and  C_4
REMARK    3  A    between atoms: C_4  and  C_5
REMARK    4  A    between atoms: C_8  and  C_9
REMARK    5  A    between atoms: C_9  and  C_10
REMARK                            x       y       z     vdW  Elec       q    Type
REMARK                         _______ _______ _______ _____ _____    ______ ____
ROOT
ATOM      1  O   UNL     1      44.861   7.443  12.067  0.00  0.00    +0.000 OA
ATOM      2  C   UNL     1      45.560   6.459  11.849  0.00  0.00    +0.000 C 
ATOM      3  N   UNL     1      46.924   6.520  11.759  0.00  0.00    +0.000 N 
ATOM      4  H   UNL     1      47.469   5.683  11.614  0.00  0.00    +0.000 HD
ENDROOT
BRANCH   2   5
ATOM      5  C   UNL     1      44.979   5.133  11.608  0.00  0.00    +0.000 A 
ATOM      6  C   UNL     1      44.317   4.458  12.622  0.00  0.00    +0.000 A 
ATOM      7  S   UNL     1      43.660   2.965  12.119  0.00  0.00    +0.000 S 
ATOM      8  C   UNL     1      44.273   3.155  10.544  0.00  0.00    +0.000 A 
ATOM      9  N   UNL     1      44.053   2.218   9.582  0.00  0.00    +0.000 NA
ATOM     10  C   UNL     1      44.591   2.491   8.438  0.00  0.00    +0.000 A 
ATOM     11  N   UNL     1      45.342   3.606   8.173  0.00  0.00    +0.000 N 
ATOM     12  C   UNL     1      45.597   4.576   9.113  0.00  0.00    +0.000 A 
ATOM     13  O   UNL     1      46.270   5.561   8.836  0.00  0.00    +0.000 OA
ATOM     14  C   UNL     1      44.983   4.335  10.405  0.00  0.00    +0.000 A 
ATOM     15  H   UNL     1      45.740   3.762   7.259  0.00  0.00    +0.000 HD
ENDBRANCH   2   5
BRANCH   3  16
ATOM     16  C   UNL     1      47.681   7.720  12.018  0.00  0.00    +0.000 C 
BRANCH  16  17
ATOM     17  C   UNL     1      48.191   7.783  13.437  0.00  0.00    +0.000 A 
ATOM     18  C   UNL     1      47.792   8.826  14.267  0.00  0.00    +0.000 A 
ATOM     19  C   UNL     1      48.231   8.846  15.586  0.00  0.00    +0.000 A 
ATOM     20  C   UNL     1      49.068   7.832  16.054  0.00  0.00    +0.000 A 
ATOM     21  C   UNL     1      49.447   6.851  15.143  0.00  0.00    +0.000 A 
ATOM     22  N   UNL     1      49.035   6.806  13.855  0.00  0.00    +0.000 NA
BRANCH  20  23
ATOM     23  C   UNL     1      49.500   7.793  17.497  0.00  0.00    +0.000 C 
BRANCH  23  24
ATOM     24  C   UNL     1      49.258   6.442  18.205  0.00  0.00    +0.000 C 
ATOM     25  C   UNL     1      49.528   6.468  19.704  0.00  0.00    +0.000 C 
ATOM     26  C   UNL     1      48.237   7.005  20.288  0.00  0.00    +0.000 C 
ATOM     27  C   UNL     1      47.164   6.487  19.346  0.00  0.00    +0.000 C 
ATOM     28  N   UNL     1      47.845   6.028  18.133  0.00  0.00    +0.000 NA
ATOM     29  H   UNL     1      47.383   6.382  17.297  0.00  0.00    +0.000 HD
ENDBRANCH  23  24
ENDBRANCH  20  23
ENDBRANCH  16  17
ENDBRANCH   3  16
TORSDOF 5
ENDMDL
MODEL 9
REMARK VINA RESULT:    -6.457      3.663      8.900
REMARK INTER + INTRA:          -8.955
REMARK INTER:                  -8.153
REMARK INTRA:                  -0.802
REMARK UNBOUND:                -0.611
REMARK  Name = 
REMARK  5 active torsions:
REMARK  status: ('A' for Active; 'I' for Inactive)
REMARK    1  A    between atoms: C_2  and  C_17
REMARK    2  A    between atoms: N_3  and  C_4
REMARK    3  A    between atoms: C_4  and  C_5
REMARK    4  A    between atoms: C_8  and  C_9
REMARK    5  A    between atoms: C_9  and  C_10
REMARK                            x       y       z     vdW  Elec       q    Type
REMARK                         _______ _______ _______ _____ _____    ______ ____
ROOT
ATOM      1  O   UNL     1      49.116   6.651  13.007  0.00  0.00    +0.000 OA
ATOM      2  C   UNL     1      48.036   6.797  13.568  0.00  0.00    +0.000 C 
ATOM      3  N   UNL     1      47.920   7.247  14.855  0.00  0.00    +0.000 N 
ATOM      4  H   UNL     1      47.011   7.390  15.271  0.00  0.00    +0.000 HD
ENDROOT
BRANCH   2   5
ATOM      5  C   UNL     1      46.770   6.441  12.917  0.00  0.00    +0.000 A 
ATOM      6  C   UNL     1      45.975   7.419  12.338  0.00  0.00    +0.000 A 
ATOM      7  S   UNL     1      44.581   6.790  11.579  0.00  0.00    +0.000 S 
ATOM      8  C   UNL     1      44.976   5.200  12.033  0.00  0.00    +0.000 A 
ATOM      9  N   UNL     1      44.187   4.147  11.680  0.00  0.00    +0.000 NA
ATOM     10  C   UNL     1      44.605   3.001  12.106  0.00  0.00    +0.000 A 
ATOM     11  N   UNL     1      45.729   2.811  12.866  0.00  0.00    +0.000 N 
ATOM     12  C   UNL     1      46.553   3.841  13.252  0.00  0.00    +0.000 A 
ATOM     13  O   UNL     1      47.552   3.631  13.929  0.00  0.00    +0.000 OA
ATOM     14  C   UNL     1      46.148   5.147  12.767  0.00  0.00    +0.000 A 
ATOM     15  H   UNL     1      46.002   1.889  13.173  0.00  0.00    +0.000 HD
ENDBRANCH   2   5
BRANCH   3  16
ATOM     16  C   UNL     1      49.043   7.698  15.639  0.00  0.00    +0.000 C 
BRANCH  16  17
ATOM     17  C   UNL     1      49.761   6.560  16.323  0.00  0.00    +0.000 A 
ATOM     18  C   UNL     1      49.030   5.491  16.832  0.00  0.00    +0.000 A 
ATOM     19  C   UNL     1      49.708   4.428  17.418  0.00  0.00    +0.000 A 
ATOM     20  C   UNL     1      51.101   4.450  17.495  0.00  0.00    +0.000 A 
ATOM     21  C   UNL     1      51.746   5.576  16.994  0.00  0.00    +0.000 A 
ATOM     22  N   UNL     1      51.113   6.626  16.419  0.00  0.00    +0.000 NA
BRANCH  20  23
ATOM     23  C   UNL     1      51.861   3.278  18.060  0.00  0.00    +0.000 C 
BRANCH  23  24
ATOM     24  C   UNL     1      53.388   3.332  17.835  0.00  0.00    +0.000 C 
ATOM     25  C   UNL     1      54.180   3.785  19.054  0.00  0.00    +0.000 C 
ATOM     26  C   UNL     1      54.345   2.514  19.862  0.00  0.00    +0.000 C 
ATOM     27  C   UNL     1      54.421   1.418  18.814  0.00  0.00    +0.000 C 
ATOM     28  N   UNL     1      53.950   1.999  17.554  0.00  0.00    +0.000 NA
ATOM     29  H   UNL     1      53.277   1.386  17.097  0.00  0.00    +0.000 HD
ENDBRANCH  23  24
ENDBRANCH  20  23
ENDBRANCH  16  17
ENDBRANCH   3  16
TORSDOF 5
ENDMDL
