MODEL 1
REMARK VINA RESULT:    -7.848      0.000      0.000
REMARK INTER + INTRA:         -12.099
REMARK INTER:                 -11.518
REMARK INTRA:                  -0.581
REMARK UNBOUND:                -0.581
REMARK  Name = 
REMARK  9 active torsions:
REMARK  status: ('A' for Active; 'I' for Inactive)
REMARK    1  A    between atoms: C_1  and  C_2
REMARK    2  A    between atoms: C_2  and  N_3
REMARK    3  A    between atoms: C_2  and  C_19
REMARK    4  A    between atoms: N_3  and  C_4
REMARK    5  A    between atoms: C_4  and  C_5
REMARK    6  A    between atoms: C_8  and  C_9
REMARK    7  A    between atoms: C_9  and  C_10
REMARK    8  A    between atoms: C_10  and  N_11
REMARK    9  A    between atoms: N_11  and  C_12
REMARK                            x       y       z     vdW  Elec       q    Type
REMARK                         _______ _______ _______ _____ _____    ______ ____
ROOT
ATOM      1  C   UNL     1      47.661   5.467  14.570  0.00  0.00    +0.000 C 
ENDROOT
BRANCH   1   2
ATOM      2  C   UNL     1      46.678   5.261  13.455  0.00  0.00    +0.000 A 
ATOM      3  C   UNL     1      46.535   6.166  12.397  0.00  0.00    +0.000 A 
ATOM      4  C   UNL     1      45.684   5.871  11.331  0.00  0.00    +0.000 A 
ATOM      5  C   UNL     1      44.986   4.669  11.346  0.00  0.00    +0.000 A 
ATOM      6  N   UNL     1      45.097   3.795  12.377  0.00  0.00    +0.000 NA
ATOM      7  C   UNL     1      45.926   4.098  13.392  0.00  0.00    +0.000 A 
BRANCH   5   8
ATOM      8  C   UNL     1      44.099   4.267  10.180  0.00  0.00    +0.000 C 
BRANCH   8   9
ATOM      9  C   UNL     1      44.393   2.816   9.768  0.00  0.00    +0.000 C 
BRANCH   9  10
ATOM     10  N   UNL     1      44.740   2.615   8.354  0.00  0.00    +0.000 NA
ATOM     11  H   UNL     1      44.326   3.350   7.780  0.00  0.00    +0.000 HD
BRANCH  10  12
ATOM     12  C   UNL     1      46.211   2.627   8.185  0.00  0.00    +0.000 C 
ATOM     13  C   UNL     1      46.738   3.552   7.089  0.00  0.00    +0.000 C 
ATOM     14  C   UNL     1      46.782   2.676   5.858  0.00  0.00    +0.000 C 
ATOM     15  N   UNL     1      47.218   1.366   6.342  0.00  0.00    +0.000 NA
ATOM     16  C   UNL     1      46.741   1.250   7.736  0.00  0.00    +0.000 C 
ATOM     17  H   UNL     1      48.238   1.341   6.349  0.00  0.00    +0.000 HD
ENDBRANCH  10  12
ENDBRANCH   9  10
ENDBRANCH   8   9
ENDBRANCH   5   8
ENDBRANCH   1   2
BRANCH   1  18
ATOM     18  N   UNL     1      47.917   4.238  15.317  0.00  0.00    +0.000 NA
ATOM     19  H   UNL     1      48.895   3.981  15.180  0.00  0.00    +0.000 HD
BRANCH  18  21
ATOM     20  C   UNL     1      46.857   3.281  17.383  0.00  0.00    +0.000 C 
ATOM     21  C   UNL     1      47.696   4.407  16.761  0.00  0.00    +0.000 C 
BRANCH  21  22
ATOM     22  C   UNL     1      49.065   4.475  17.413  0.00  0.00    +0.000 A 
ATOM     23  C   UNL     1      49.546   5.573  18.112  0.00  0.00    +0.000 A 
ATOM     24  S   UNL     1      51.121   5.353  18.727  0.00  0.00    +0.000 S 
ATOM     25  C   UNL     1      51.218   3.784  18.072  0.00  0.00    +0.000 A 
ATOM     26  N   UNL     1      52.333   3.023  18.232  0.00  0.00    +0.000 NA
ATOM     27  C   UNL     1      52.264   1.860  17.675  0.00  0.00    +0.000 A 
ATOM     28  N   UNL     1      51.187   1.389  16.967  0.00  0.00    +0.000 N 
ATOM     29  C   UNL     1      50.039   2.124  16.771  0.00  0.00    +0.000 A 
ATOM     30  O   UNL     1      49.101   1.680  16.117  0.00  0.00    +0.000 OA
ATOM     31  C   UNL     1      50.066   3.437  17.391  0.00  0.00    +0.000 A 
ATOM     32  H   UNL     1      51.204   0.472  16.549  0.00  0.00    +0.000 HD
ENDBRANCH  21  22
ENDBRANCH  18  21
ENDBRANCH   1  18
TORSDOF 8
ENDMDL
MODEL 2
REMARK VINA RESULT:    -7.596      2.178      3.127
REMARK INTER + INTRA:         -11.729
REMARK INTER:                 -10.757
REMARK INTRA:                  -0.972
REMARK UNBOUND:                -0.581
REMARK  Name = 
REMARK  9 active torsions:
REMARK  status: ('A' for Active; 'I' for Inactive)
REMARK    1  A    between atoms: C_1  and  C_2
REMARK    2  A    between atoms: C_2  and  N_3
REMARK    3  A    between atoms: C_2  and  C_19
REMARK    4  A    between atoms: N_3  and  C_4
REMARK    5  A    between atoms: C_4  and  C_5
REMARK    6  A    between atoms: C_8  and  C_9
REMARK    7  A    between atoms: C_9  and  C_10
REMARK    8  A    between atoms: C_10  and  N_11
REMARK    9  A    between atoms: N_11  and  C_12
REMARK                            x       y       z     vdW  Elec       q    Type
REMARK                         _______ _______ _______ _____ _____    ______ ____
ROOT
ATOM      1  C   UNL     1      45.661   7.925  12.537  0.00  0.00    +0.000 C 
ENDROOT
BRANCH   1   2
ATOM      2  C   UNL     1      45.272   6.563  12.043  0.00  0.00    +0.000 A 
ATOM      3  C   UNL     1      44.305   5.776  12.679  0.00  0.00    +0.000 A 
ATOM      4  C   UNL     1      43.904   4.564  12.116  0.00  0.00    +0.000 A 
ATOM      5  C   UNL     1      44.483   4.159  10.920  0.00  0.00    +0.000 A 
ATOM      6  N   UNL     1      45.439   4.901  10.305  0.00  0.00    +0.000 NA
ATOM      7  C   UNL     1      45.808   6.067  10.864  0.00  0.00    +0.000 A 
BRANCH   5   8
ATOM      8  C   UNL     1      44.036   2.883  10.227  0.00  0.00    +0.000 C 
BRANCH   8   9
ATOM      9  C   UNL     1      44.510   2.880   8.765  0.00  0.00    +0.000 C 
BRANCH   9  10
ATOM     10  N   UNL     1      45.426   1.793   8.396  0.00  0.00    +0.000 NA
ATOM     11  H   UNL     1      45.033   1.244   7.631  0.00  0.00    +0.000 HD
BRANCH  10  12
ATOM     12  C   UNL     1      46.734   2.349   7.982  0.00  0.00    +0.000 C 
ATOM     13  C   UNL     1      46.669   3.515   6.996  0.00  0.00    +0.000 C 
ATOM     14  C   UNL     1      46.721   2.852   5.638  0.00  0.00    +0.000 C 
ATOM     15  N   UNL     1      47.660   1.742   5.797  0.00  0.00    +0.000 NA
ATOM     16  C   UNL     1      47.573   1.311   7.208  0.00  0.00    +0.000 C 
ATOM     17  H   UNL     1      48.606   2.084   5.623  0.00  0.00    +0.000 HD
ENDBRANCH  10  12
ENDBRANCH   9  10
ENDBRANCH   8   9
ENDBRANCH   5   8
ENDBRANCH   1   2
BRANCH   1  18
ATOM     18  N   UNL     1      46.557   7.861  13.689  0.00  0.00    +0.000 NA
ATOM     19  H   UNL     1      46.019   7.529  14.491  0.00  0.00    +0.000 HD
BRANCH  18  21
ATOM     20  C   UNL     1      48.744   7.464  12.522  0.00  0.00    +0.000 C 
ATOM     21  C   UNL     1      47.672   6.925  13.479  0.00  0.00    +0.000 C 
BRANCH  21  22
ATOM     22  C   UNL     1      48.270   6.635  14.843  0.00  0.00    +0.000 A 
ATOM     23  C   UNL     1      49.173   7.464  15.494  0.00  0.00    +0.000 A 
ATOM     24  S   UNL     1      49.670   6.871  17.012  0.00  0.00    +0.000 S 
ATOM     25  C   UNL     1      48.702   5.479  16.849  0.00  0.00    +0.000 A 
ATOM     26  N   UNL     1      48.668   4.529  17.820  0.00  0.00    +0.000 NA
ATOM     27  C   UNL     1      47.895   3.529  17.554  0.00  0.00    +0.000 A 
ATOM     28  N   UNL     1      47.159   3.387  16.404  0.00  0.00    +0.000 N 
ATOM     29  C   UNL     1      47.166   4.319  15.389  0.00  0.00    +0.000 A 
ATOM     30  O   UNL     1      46.511   4.152  14.367  0.00  0.00    +0.000 OA
ATOM     31  C   UNL     1      48.014   5.469  15.650  0.00  0.00    +0.000 A 
ATOM     32  H   UNL     1      46.582   2.573  16.256  0.00  0.00    +0.000 HD
ENDBRANCH  21  22
ENDBRANCH  18  21
ENDBRANCH   1  18
TORSDOF 8
ENDMDL
MODEL 3
REMARK VINA RESULT:    -7.370      2.427      3.379
REMARK INTER + INTRA:         -11.399
REMARK INTER:                 -10.096
REMARK INTRA:                  -1.302
REMARK UNBOUND:                -0.581
REMARK  Name = 
REMARK  9 active torsions:
REMARK  status: ('A' for Active; 'I' for Inactive)
REMARK    1  A    between atoms: C_1  and  C_2
REMARK    2  A    between atoms: C_2  and  N_3
REMARK    3  A    between atoms: C_2  and  C_19
REMARK    4  A    between atoms: N_3  and  C_4
REMARK    5  A    between atoms: C_4  and  C_5
REMARK    6  A    between atoms: C_8  and  C_9
REMARK    7  A    between atoms: C_9  and  C_10
REMARK    8  A    between atoms: C_10  and  N_11
REMARK    9  A    between atoms: N_11  and  C_12
REMARK                            x       y       z     vdW  Elec       q    Type
REMARK                         _______ _______ _______ _____ _____    ______ ____
ROOT
ATOM      1  C   UNL     1      48.327   6.663  13.097  0.00  0.00    +0.000 C 
ENDROOT
BRANCH   1   2
ATOM      2  C   UNL     1      46.947   6.145  12.820  0.00  0.00    +0.000 A 
ATOM      3  C   UNL     1      46.140   6.654  11.797  0.00  0.00    +0.000 A 
ATOM      4  C   UNL     1      44.908   6.063  11.514  0.00  0.00    +0.000 A 
ATOM      5  C   UNL     1      44.504   4.966  12.266  0.00  0.00    +0.000 A 
ATOM      6  N   UNL     1      45.266   4.478  13.277  0.00  0.00    +0.000 NA
ATOM      7  C   UNL     1      46.452   5.062  13.530  0.00  0.00    +0.000 A 
BRANCH   5   8
ATOM      8  C   UNL     1      43.205   4.242  11.957  0.00  0.00    +0.000 C 
BRANCH   8   9
ATOM      9  C   UNL     1      43.501   2.841  11.397  0.00  0.00    +0.000 C 
BRANCH   9  10
ATOM     10  N   UNL     1      44.771   2.702  10.670  0.00  0.00    +0.000 NA
ATOM     11  H   UNL     1      45.306   1.916  11.041  0.00  0.00    +0.000 HD
BRANCH  10  12
ATOM     12  C   UNL     1      44.510   2.485   9.229  0.00  0.00    +0.000 C 
ATOM     13  C   UNL     1      45.555   1.648   8.491  0.00  0.00    +0.000 C 
ATOM     14  C   UNL     1      46.546   2.666   7.977  0.00  0.00    +0.000 C 
ATOM     15  N   UNL     1      45.732   3.814   7.573  0.00  0.00    +0.000 NA
ATOM     16  C   UNL     1      44.537   3.811   8.441  0.00  0.00    +0.000 C 
ATOM     17  H   UNL     1      45.429   3.678   6.608  0.00  0.00    +0.000 HD
ENDBRANCH  10  12
ENDBRANCH   9  10
ENDBRANCH   8   9
ENDBRANCH   5   8
ENDBRANCH   1   2
BRANCH   1  18
ATOM     18  N   UNL     1      48.825   6.244  14.405  0.00  0.00    +0.000 NA
ATOM     19  H   UNL     1      49.401   5.411  14.273  0.00  0.00    +0.000 HD
BRANCH  18  21
ATOM     20  C   UNL     1      49.822   8.537  14.185  0.00  0.00    +0.000 C 
ATOM     21  C   UNL     1      49.663   7.272  15.040  0.00  0.00    +0.000 C 
BRANCH  21  22
ATOM     22  C   UNL     1      49.019   7.606  16.373  0.00  0.00    +0.000 A 
ATOM     23  C   UNL     1      48.522   8.857  16.710  0.00  0.00    +0.000 A 
ATOM     24  S   UNL     1      47.860   8.927  18.280  0.00  0.00    +0.000 S 
ATOM     25  C   UNL     1      48.223   7.288  18.567  0.00  0.00    +0.000 A 
ATOM     26  N   UNL     1      47.918   6.696  19.752  0.00  0.00    +0.000 NA
ATOM     27  C   UNL     1      48.259   5.453  19.826  0.00  0.00    +0.000 A 
ATOM     28  N   UNL     1      48.883   4.747  18.828  0.00  0.00    +0.000 N 
ATOM     29  C   UNL     1      49.219   5.303  17.614  0.00  0.00    +0.000 A 
ATOM     30  O   UNL     1      49.794   4.649  16.751  0.00  0.00    +0.000 OA
ATOM     31  C   UNL     1      48.844   6.700  17.480  0.00  0.00    +0.000 A 
ATOM     32  H   UNL     1      49.130   3.778  18.957  0.00  0.00    +0.000 HD
ENDBRANCH  21  22
ENDBRANCH  18  21
ENDBRANCH   1  18
TORSDOF 8
ENDMDL
MODEL 4
REMARK VINA RESULT:    -7.192      1.592      2.111
REMARK INTER + INTRA:         -11.137
REMARK INTER:                 -10.248
REMARK INTRA:                  -0.889
REMARK UNBOUND:                -0.581
REMARK  Name = 
REMARK  9 active torsions:
REMARK  status: ('A' for Active; 'I' for Inactive)
REMARK    1  A    between atoms: C_1  and  C_2
REMARK    2  A    between atoms: C_2  and  N_3
REMARK    3  A    between atoms: C_2  and  C_19
REMARK    4  A    between atoms: N_3  and  C_4
REMARK    5  A    between atoms: C_4  and  C_5
REMARK    6  A    between atoms: C_8  and  C_9
REMARK    7  A    between atoms: C_9  and  C_10
REMARK    8  A    between atoms: C_10  and  N_11
REMARK    9  A    between atoms: N_11  and  C_12
REMARK                            x       y       z     vdW  Elec       q    Type
REMARK                         _______ _______ _______ _____ _____    ______ ____
ROOT
ATOM      1  C   UNL     1      47.524   4.917  14.770  0.00  0.00    +0.000 C 
ENDROOT
BRANCH   1   2
ATOM      2  C   UNL     1      46.614   4.892  13.578  0.00  0.00    +0.000 A 
ATOM      3  C   UNL     1      46.382   6.020  12.782  0.00  0.00    +0.000 A 
ATOM      4  C   UNL     1      45.612   5.914  11.623  0.00  0.00    +0.000 A 
ATOM      5  C   UNL     1      45.085   4.675  11.281  0.00  0.00    +0.000 A 
ATOM      6  N   UNL     1      45.283   3.579  12.057  0.00  0.00    +0.000 NA
ATOM      7  C   UNL     1      46.030   3.704  13.169  0.00  0.00    +0.000 A 
BRANCH   5   8
ATOM      8  C   UNL     1      44.297   4.488   9.996  0.00  0.00    +0.000 C 
BRANCH   8   9
ATOM      9  C   UNL     1      44.193   2.994   9.652  0.00  0.00    +0.000 C 
BRANCH   9  10
ATOM     10  N   UNL     1      44.617   2.622   8.295  0.00  0.00    +0.000 NA
ATOM     11  H   UNL     1      44.228   3.274   7.612  0.00  0.00    +0.000 HD
BRANCH  10  12
ATOM     12  C   UNL     1      46.094   2.636   8.202  0.00  0.00    +0.000 C 
ATOM     13  C   UNL     1      46.675   3.521   7.099  0.00  0.00    +0.000 C 
ATOM     14  C   UNL     1      46.786   2.598   5.908  0.00  0.00    +0.000 C 
ATOM     15  N   UNL     1      47.201   1.311   6.465  0.00  0.00    +0.000 NA
ATOM     16  C   UNL     1      46.653   1.246   7.835  0.00  0.00    +0.000 C 
ATOM     17  H   UNL     1      48.220   1.292   6.526  0.00  0.00    +0.000 HD
ENDBRANCH  10  12
ENDBRANCH   9  10
ENDBRANCH   8   9
ENDBRANCH   5   8
ENDBRANCH   1   2
BRANCH   1  18
ATOM     18  N   UNL     1      47.591   3.622  15.443  0.00  0.00    +0.000 NA
ATOM     19  H   UNL     1      48.403   3.119  15.083  0.00  0.00    +0.000 HD
BRANCH  18  21
ATOM     20  C   UNL     1      46.959   2.716  17.698  0.00  0.00    +0.000 C 
ATOM     21  C   UNL     1      47.756   3.756  16.898  0.00  0.00    +0.000 C 
BRANCH  21  22
ATOM     22  C   UNL     1      49.240   3.630  17.188  0.00  0.00    +0.000 A 
ATOM     23  C   UNL     1      49.929   2.427  17.240  0.00  0.00    +0.000 A 
ATOM     24  S   UNL     1      51.588   2.605  17.591  0.00  0.00    +0.000 S 
ATOM     25  C   UNL     1      51.442   4.298  17.694  0.00  0.00    +0.000 A 
ATOM     26  N   UNL     1      52.516   5.081  17.979  0.00  0.00    +0.000 NA
ATOM     27  C   UNL     1      52.252   6.344  18.031  0.00  0.00    +0.000 A 
ATOM     28  N   UNL     1      51.012   6.897  17.833  0.00  0.00    +0.000 N 
ATOM     29  C   UNL     1      49.892   6.146  17.549  0.00  0.00    +0.000 A 
ATOM     30  O   UNL     1      48.795   6.672  17.395  0.00  0.00    +0.000 OA
ATOM     31  C   UNL     1      50.144   4.719  17.468  0.00  0.00    +0.000 A 
ATOM     32  H   UNL     1      50.874   7.894  17.898  0.00  0.00    +0.000 HD
ENDBRANCH  21  22
ENDBRANCH  18  21
ENDBRANCH   1  18
TORSDOF 8
ENDMDL
MODEL 5
REMARK VINA RESULT:    -7.022      4.204      8.749
REMARK INTER + INTRA:         -10.887
REMARK INTER:                  -9.192
REMARK INTRA:                  -1.695
REMARK UNBOUND:                -0.581
REMARK  Name = 
REMARK  9 active torsions:
REMARK  status: ('A' for Active; 'I' for Inactive)
REMARK    1  A    between atoms: C_1  and  C_2
REMARK    2  A    between atoms: C_2  and  N_3
REMARK    3  A    between atoms: C_2  and  C_19
REMARK    4  A    between atoms: N_3  and  C_4
REMARK    5  A    between atoms: C_4  and  C_5
REMARK    6  A    between atoms: C_8  and  C_9
REMARK    7  A    between atoms: C_9  and  C_10
REMARK    8  A    between atoms: C_10  and  N_11
REMARK    9  A    between atoms: N_11  and  C_12
REMARK                            x       y       z     vdW  Elec       q    Type
REMARK                         _______ _______ _______ _____ _____    ______ ____
ROOT
ATOM      1  C   UNL     1      48.380   9.262  14.109  0.00  0.00    +0.000 C 
ENDROOT
BRANCH   1   2
ATOM      2  C   UNL     1      48.555   8.715  15.494  0.00  0.00    +0.000 A 
ATOM      3  C   UNL     1      48.076   9.373  16.633  0.00  0.00    +0.000 A 
ATOM      4  C   UNL     1      48.170   8.767  17.887  0.00  0.00    +0.000 A 
ATOM      5  C   UNL     1      48.748   7.507  17.978  0.00  0.00    +0.000 A 
ATOM      6  N   UNL     1      49.238   6.868  16.885  0.00  0.00    +0.000 NA
ATOM      7  C   UNL     1      49.133   7.470  15.687  0.00  0.00    +0.000 A 
BRANCH   5   8
ATOM      8  C   UNL     1      48.815   6.772  19.305  0.00  0.00    +0.000 C 
BRANCH   8   9
ATOM      9  C   UNL     1      47.710   5.706  19.376  0.00  0.00    +0.000 C 
BRANCH   9  10
ATOM     10  N   UNL     1      47.073   5.363  18.097  0.00  0.00    +0.000 NA
ATOM     11  H   UNL     1      47.518   5.873  17.333  0.00  0.00    +0.000 HD
BRANCH  10  12
ATOM     12  C   UNL     1      47.185   3.908  17.849  0.00  0.00    +0.000 C 
ATOM     13  C   UNL     1      48.326   3.202  18.581  0.00  0.00    +0.000 C 
ATOM     14  C   UNL     1      49.485   3.276  17.614  0.00  0.00    +0.000 C 
ATOM     15  N   UNL     1      48.888   3.082  16.293  0.00  0.00    +0.000 NA
ATOM     16  C   UNL     1      47.509   3.608  16.371  0.00  0.00    +0.000 C 
ATOM     17  H   UNL     1      48.839   2.081  16.098  0.00  0.00    +0.000 HD
ENDBRANCH  10  12
ENDBRANCH   9  10
ENDBRANCH   8   9
ENDBRANCH   5   8
ENDBRANCH   1   2
BRANCH   1  18
ATOM     18  N   UNL     1      47.059   8.965  13.559  0.00  0.00    +0.000 NA
ATOM     19  H   UNL     1      46.592   9.851  13.360  0.00  0.00    +0.000 HD
BRANCH  18  21
ATOM     20  C   UNL     1      48.574   7.889  11.871  0.00  0.00    +0.000 C 
ATOM     21  C   UNL     1      47.135   8.207  12.301  0.00  0.00    +0.000 C 
BRANCH  21  22
ATOM     22  C   UNL     1      46.345   6.928  12.508  0.00  0.00    +0.000 A 
ATOM     23  C   UNL     1      46.849   5.785  13.114  0.00  0.00    +0.000 A 
ATOM     24  S   UNL     1      45.724   4.507  13.199  0.00  0.00    +0.000 S 
ATOM     25  C   UNL     1      44.526   5.434  12.422  0.00  0.00    +0.000 A 
ATOM     26  N   UNL     1      43.292   4.921  12.172  0.00  0.00    +0.000 NA
ATOM     27  C   UNL     1      42.492   5.737  11.570  0.00  0.00    +0.000 A 
ATOM     28  N   UNL     1      42.813   7.016  11.189  0.00  0.00    +0.000 N 
ATOM     29  C   UNL     1      44.051   7.577  11.413  0.00  0.00    +0.000 A 
ATOM     30  O   UNL     1      44.310   8.717  11.042  0.00  0.00    +0.000 OA
ATOM     31  C   UNL     1      44.982   6.699  12.098  0.00  0.00    +0.000 A 
ATOM     32  H   UNL     1      42.141   7.598  10.713  0.00  0.00    +0.000 HD
ENDBRANCH  21  22
ENDBRANCH  18  21
ENDBRANCH   1  18
TORSDOF 8
ENDMDL
MODEL 6
REMARK VINA RESULT:    -6.780      2.038      2.560
REMARK INTER + INTRA:         -10.532
REMARK INTER:                  -9.701
REMARK INTRA:                  -0.831
REMARK UNBOUND:                -0.581
REMARK  Name = 
REMARK  9 active torsions:
REMARK  status: ('A' for Active; 'I' for Inactive)
REMARK    1  A    between atoms: C_1  and  C_2
REMARK    2  A    between atoms: C_2  and  N_3
REMARK    3  A    between atoms: C_2  and  C_19
REMARK    4  A    between atoms: N_3  and  C_4
REMARK    5  A    between atoms: C_4  and  C_5
REMARK    6  A    between atoms: C_8  and  C_9
REMARK    7  A    between atoms: C_9  and  C_10
REMARK    8  A    between atoms: C_10  and  N_11
REMARK    9  A    between atoms: N_11  and  C_12
REMARK                            x       y       z     vdW  Elec       q    Type
REMARK                         _______ _______ _______ _____ _____    ______ ____
ROOT
ATOM      1  C   UNL     1      47.550   6.814  13.767  0.00  0.00    +0.000 C 
ENDROOT
BRANCH   1   2
ATOM      2  C   UNL     1      46.717   5.904  12.913  0.00  0.00    +0.000 A 
ATOM      3  C   UNL     1      46.226   4.676  13.374  0.00  0.00    +0.000 A 
ATOM      4  C   UNL     1      45.366   3.920  12.576  0.00  0.00    +0.000 A 
ATOM      5  C   UNL     1      45.015   4.408  11.324  0.00  0.00    +0.000 A 
ATOM      6  N   UNL     1      45.503   5.584  10.855  0.00  0.00    +0.000 NA
ATOM      7  C   UNL     1      46.327   6.298  11.643  0.00  0.00    +0.000 A 
BRANCH   5   8
ATOM      8  C   UNL     1      44.030   3.660  10.442  0.00  0.00    +0.000 C 
BRANCH   8   9
ATOM      9  C   UNL     1      44.160   4.131   8.985  0.00  0.00    +0.000 C 
BRANCH   9  10
ATOM     10  N   UNL     1      44.584   3.107   8.020  0.00  0.00    +0.000 NA
ATOM     11  H   UNL     1      44.341   3.393   7.071  0.00  0.00    +0.000 HD
BRANCH  10  12
ATOM     12  C   UNL     1      46.047   2.898   8.112  0.00  0.00    +0.000 C 
ATOM     13  C   UNL     1      46.872   3.532   6.992  0.00  0.00    +0.000 C 
ATOM     14  C   UNL     1      46.962   2.448   5.942  0.00  0.00    +0.000 C 
ATOM     15  N   UNL     1      47.109   1.203   6.697  0.00  0.00    +0.000 NA
ATOM     16  C   UNL     1      46.415   1.406   7.986  0.00  0.00    +0.000 C 
ATOM     17  H   UNL     1      48.099   1.049   6.886  0.00  0.00    +0.000 HD
ENDBRANCH  10  12
ENDBRANCH   9  10
ENDBRANCH   8   9
ENDBRANCH   5   8
ENDBRANCH   1   2
BRANCH   1  18
ATOM     18  N   UNL     1      48.675   6.117  14.386  0.00  0.00    +0.000 NA
ATOM     19  H   UNL     1      49.352   5.896  13.654  0.00  0.00    +0.000 HD
BRANCH  18  21
ATOM     20  C   UNL     1      48.619   8.252  15.705  0.00  0.00    +0.000 C 
ATOM     21  C   UNL     1      49.357   6.942  15.394  0.00  0.00    +0.000 C 
BRANCH  21  22
ATOM     22  C   UNL     1      49.489   6.094  16.645  0.00  0.00    +0.000 A 
ATOM     23  C   UNL     1      48.416   5.590  17.366  0.00  0.00    +0.000 A 
ATOM     24  S   UNL     1      48.879   4.674  18.727  0.00  0.00    +0.000 S 
ATOM     25  C   UNL     1      50.532   4.926  18.405  0.00  0.00    +0.000 A 
ATOM     26  N   UNL     1      51.493   4.404  19.212  0.00  0.00    +0.000 NA
ATOM     27  C   UNL     1      52.700   4.685  18.846  0.00  0.00    +0.000 A 
ATOM     28  N   UNL     1      53.034   5.444  17.754  0.00  0.00    +0.000 N 
ATOM     29  C   UNL     1      52.098   6.001  16.912  0.00  0.00    +0.000 A 
ATOM     30  O   UNL     1      52.431   6.691  15.954  0.00  0.00    +0.000 OA
ATOM     31  C   UNL     1      50.724   5.702  17.277  0.00  0.00    +0.000 A 
ATOM     32  H   UNL     1      54.000   5.633  17.531  0.00  0.00    +0.000 HD
ENDBRANCH  21  22
ENDBRANCH  18  21
ENDBRANCH   1  18
TORSDOF 8
ENDMDL
MODEL 7
REMARK VINA RESULT:    -6.753      3.199      4.492
REMARK INTER + INTRA:         -10.492
REMARK INTER:                  -9.292
REMARK INTRA:                  -1.200
REMARK UNBOUND:                -0.581
REMARK  Name = 
REMARK  9 active torsions:
REMARK  status: ('A' for Active; 'I' for Inactive)
REMARK    1  A    between atoms: C_1  and  C_2
REMARK    2  A    between atoms: C_2  and  N_3
REMARK    3  A    between atoms: C_2  and  C_19
REMARK    4  A    between atoms: N_3  and  C_4
REMARK    5  A    between atoms: C_4  and  C_5
REMARK    6  A    between atoms: C_8  and  C_9
REMARK    7  A    between atoms: C_9  and  C_10
REMARK    8  A    between atoms: C_10  and  N_11
REMARK    9  A    between atoms: N_11  and  C_12
REMARK                            x       y       z     vdW  Elec       q    Type
REMARK                         _______ _______ _______ _____ _____    ______ ____
ROOT
ATOM      1  C   UNL     1      49.313   7.703  17.246  0.00  0.00    +0.000 C 
ENDROOT
BRANCH   1   2
ATOM      2  C   UNL     1      48.707   7.642  15.875  0.00  0.00    +0.000 A 
ATOM      3  C   UNL     1      48.210   8.774  15.218  0.00  0.00    +0.000 A 
ATOM      4  C   UNL     1      47.756   8.679  13.901  0.00  0.00    +0.000 A 
ATOM      5  C   UNL     1      47.807   7.445  13.264  0.00  0.00    +0.000 A 
ATOM      6  N   UNL     1      48.264   6.336  13.898  0.00  0.00    +0.000 NA
ATOM      7  C   UNL     1      48.700   6.451  15.166  0.00  0.00    +0.000 A 
BRANCH   5   8
ATOM      8  C   UNL     1      47.391   7.298  11.811  0.00  0.00    +0.000 C 
BRANCH   8   9
ATOM      9  C   UNL     1      45.858   7.257  11.701  0.00  0.00    +0.000 C 
BRANCH   9  10
ATOM     10  N   UNL     1      45.313   6.243  10.788  0.00  0.00    +0.000 NA
ATOM     11  H   UNL     1      46.049   5.882  10.180  0.00  0.00    +0.000 HD
BRANCH  10  12
ATOM     12  C   UNL     1      44.723   5.128  11.563  0.00  0.00    +0.000 C 
ATOM     13  C   UNL     1      43.356   4.643  11.078  0.00  0.00    +0.000 C 
ATOM     14  C   UNL     1      42.370   5.476  11.865  0.00  0.00    +0.000 C 
ATOM     15  N   UNL     1      42.960   5.601  13.197  0.00  0.00    +0.000 NA
ATOM     16  C   UNL     1      44.426   5.543  13.018  0.00  0.00    +0.000 C 
ATOM     17  H   UNL     1      42.673   4.800  13.760  0.00  0.00    +0.000 HD
ENDBRANCH  10  12
ENDBRANCH   9  10
ENDBRANCH   8   9
ENDBRANCH   5   8
ENDBRANCH   1   2
BRANCH   1  18
ATOM     18  N   UNL     1      48.365   7.318  18.288  0.00  0.00    +0.000 NA
ATOM     19  H   UNL     1      47.522   6.964  17.834  0.00  0.00    +0.000 HD
BRANCH  18  21
ATOM     20  C   UNL     1      48.196   6.185  20.522  0.00  0.00    +0.000 C 
ATOM     21  C   UNL     1      48.890   6.252  19.155  0.00  0.00    +0.000 C 
BRANCH  21  22
ATOM     22  C   UNL     1      48.716   4.946  18.403  0.00  0.00    +0.000 A 
ATOM     23  C   UNL     1      47.510   4.495  17.886  0.00  0.00    +0.000 A 
ATOM     24  S   UNL     1      47.628   2.989  17.095  0.00  0.00    +0.000 S 
ATOM     25  C   UNL     1      49.295   2.883  17.423  0.00  0.00    +0.000 A 
ATOM     26  N   UNL     1      50.026   1.812  17.016  0.00  0.00    +0.000 NA
ATOM     27  C   UNL     1      51.274   1.867  17.343  0.00  0.00    +0.000 A 
ATOM     28  N   UNL     1      51.858   2.891  18.045  0.00  0.00    +0.000 N 
ATOM     29  C   UNL     1      51.160   3.993  18.486  0.00  0.00    +0.000 A 
ATOM     30  O   UNL     1      51.710   4.882  19.127  0.00  0.00    +0.000 OA
ATOM     31  C   UNL     1      49.752   3.981  18.130  0.00  0.00    +0.000 A 
ATOM     32  H   UNL     1      52.840   2.866  18.276  0.00  0.00    +0.000 HD
ENDBRANCH  21  22
ENDBRANCH  18  21
ENDBRANCH   1  18
TORSDOF 8
ENDMDL
MODEL 8
REMARK VINA RESULT:    -6.705      2.296      3.301
REMARK INTER + INTRA:         -10.421
REMARK INTER:                  -9.315
REMARK INTRA:                  -1.106
REMARK UNBOUND:                -0.581
REMARK  Name = 
REMARK  9 active torsions:
REMARK  status: ('A' for Active; 'I' for Inactive)
REMARK    1  A    between atoms: C_1  and  C_2
REMARK    2  A    between atoms: C_2  and  N_3
REMARK    3  A    between atoms: C_2  and  C_19
REMARK    4  A    between atoms: N_3  and  C_4
REMARK    5  A    between atoms: C_4  and  C_5
REMARK    6  A    between atoms: C_8  and  C_9
REMARK    7  A    between atoms: C_9  and  C_10
REMARK    8  A    between atoms: C_10  and  N_11
REMARK    9  A    between atoms: N_11  and  C_12
REMARK                            x       y       z     vdW  Elec       q    Type
REMARK                         _______ _______ _______ _____ _____    ______ ____
ROOT
ATOM      1  C   UNL     1      48.994   7.515  15.600  0.00  0.00    +0.000 C 
ENDROOT
BRANCH   1   2
ATOM      2  C   UNL     1      48.057   7.443  14.431  0.00  0.00    +0.000 A 
ATOM      3  C   UNL     1      47.802   6.253  13.739  0.00  0.00    +0.000 A 
ATOM      4  C   UNL     1      46.840   6.221  12.729  0.00  0.00    +0.000 A 
ATOM      5  C   UNL     1      46.148   7.388  12.427  0.00  0.00    +0.000 A 
ATOM      6  N   UNL     1      46.403   8.553  13.073  0.00  0.00    +0.000 NA
ATOM      7  C   UNL     1      47.332   8.560  14.046  0.00  0.00    +0.000 A 
BRANCH   5   8
ATOM      8  C   UNL     1      45.044   7.394  11.384  0.00  0.00    +0.000 C 
BRANCH   8   9
ATOM      9  C   UNL     1      44.044   6.261  11.665  0.00  0.00    +0.000 C 
BRANCH   9  10
ATOM     10  N   UNL     1      43.700   5.415  10.514  0.00  0.00    +0.000 NA
ATOM     11  H   UNL     1      43.591   5.987   9.676  0.00  0.00    +0.000 HD
BRANCH  10  12
ATOM     12  C   UNL     1      44.762   4.409  10.288  0.00  0.00    +0.000 C 
ATOM     13  C   UNL     1      45.517   4.537   8.964  0.00  0.00    +0.000 C 
ATOM     14  C   UNL     1      44.734   3.666   8.009  0.00  0.00    +0.000 C 
ATOM     15  N   UNL     1      44.321   2.510   8.804  0.00  0.00    +0.000 NA
ATOM     16  C   UNL     1      44.182   2.983  10.197  0.00  0.00    +0.000 C 
ATOM     17  H   UNL     1      45.062   1.809   8.775  0.00  0.00    +0.000 HD
ENDBRANCH  10  12
ENDBRANCH   9  10
ENDBRANCH   8   9
ENDBRANCH   5   8
ENDBRANCH   1   2
BRANCH   1  18
ATOM     18  N   UNL     1      48.288   7.714  16.864  0.00  0.00    +0.000 NA
ATOM     19  H   UNL     1      47.338   7.357  16.755  0.00  0.00    +0.000 HD
BRANCH  18  21
ATOM     20  C   UNL     1      48.383   7.400  19.353  0.00  0.00    +0.000 C 
ATOM     21  C   UNL     1      48.917   6.984  17.975  0.00  0.00    +0.000 C 
BRANCH  21  22
ATOM     22  C   UNL     1      48.669   5.507  17.730  0.00  0.00    +0.000 A 
ATOM     23  C   UNL     1      47.413   4.938  17.581  0.00  0.00    +0.000 A 
ATOM     24  S   UNL     1      47.454   3.254  17.320  0.00  0.00    +0.000 S 
ATOM     25  C   UNL     1      49.154   3.224  17.406  0.00  0.00    +0.000 A 
ATOM     26  N   UNL     1      49.846   2.063  17.267  0.00  0.00    +0.000 NA
ATOM     27  C   UNL     1      51.127   2.195  17.363  0.00  0.00    +0.000 A 
ATOM     28  N   UNL     1      51.780   3.380  17.592  0.00  0.00    +0.000 N 
ATOM     29  C   UNL     1      51.124   4.581  17.747  0.00  0.00    +0.000 A 
ATOM     30  O   UNL     1      51.739   5.619  17.969  0.00  0.00    +0.000 OA
ATOM     31  C   UNL     1      49.680   4.483  17.635  0.00  0.00    +0.000 A 
ATOM     32  H   UNL     1      52.786   3.410  17.665  0.00  0.00    +0.000 HD
ENDBRANCH  21  22
ENDBRANCH  18  21
ENDBRANCH   1  18
TORSDOF 8
ENDMDL
MODEL 9
REMARK VINA RESULT:    -6.657      3.566      8.678
REMARK INTER + INTRA:         -10.351
REMARK INTER:                  -9.104
REMARK INTRA:                  -1.247
REMARK UNBOUND:                -0.581
REMARK  Name = 
REMARK  9 active torsions:
REMARK  status: ('A' for Active; 'I' for Inactive)
REMARK    1  A    between atoms: C_1  and  C_2
REMARK    2  A    between atoms: C_2  and  N_3
REMARK    3  A    between atoms: C_2  and  C_19
REMARK    4  A    between atoms: N_3  and  C_4
REMARK    5  A    between atoms: C_4  and  C_5
REMARK    6  A    between atoms: C_8  and  C_9
REMARK    7  A    between atoms: C_9  and  C_10
REMARK    8  A    between atoms: C_10  and  N_11
REMARK    9  A    between atoms: N_11  and  C_12
REMARK                            x       y       z     vdW  Elec       q    Type
REMARK                         _______ _______ _______ _____ _____    ______ ____
ROOT
ATOM      1  C   UNL     1      48.239   8.186  12.264  0.00  0.00    +0.000 C 
ENDROOT
BRANCH   1   2
ATOM      2  C   UNL     1      49.028   7.784  13.475  0.00  0.00    +0.000 A 
ATOM      3  C   UNL     1      50.059   8.572  14.000  0.00  0.00    +0.000 A 
ATOM      4  C   UNL     1      50.687   8.204  15.191  0.00  0.00    +0.000 A 
ATOM      5  C   UNL     1      50.270   7.047  15.836  0.00  0.00    +0.000 A 
ATOM      6  N   UNL     1      49.288   6.261  15.325  0.00  0.00    +0.000 NA
ATOM      7  C   UNL     1      48.694   6.637  14.178  0.00  0.00    +0.000 A 
BRANCH   5   8
ATOM      8  C   UNL     1      50.871   6.635  17.170  0.00  0.00    +0.000 C 
BRANCH   8   9
ATOM      9  C   UNL     1      49.759   6.219  18.145  0.00  0.00    +0.000 C 
BRANCH   9  10
ATOM     10  N   UNL     1      49.862   4.855  18.683  0.00  0.00    +0.000 NA
ATOM     11  H   UNL     1      50.285   4.872  19.611  0.00  0.00    +0.000 HD
BRANCH  10  12
ATOM     12  C   UNL     1      48.518   4.239  18.765  0.00  0.00    +0.000 C 
ATOM     13  C   UNL     1      48.352   2.922  18.007  0.00  0.00    +0.000 C 
ATOM     14  C   UNL     1      47.879   3.345  16.635  0.00  0.00    +0.000 C 
ATOM     15  N   UNL     1      46.974   4.469  16.877  0.00  0.00    +0.000 NA
ATOM     16  C   UNL     1      47.444   5.132  18.111  0.00  0.00    +0.000 C 
ATOM     17  H   UNL     1      46.036   4.104  17.046  0.00  0.00    +0.000 HD
ENDBRANCH  10  12
ENDBRANCH   9  10
ENDBRANCH   8   9
ENDBRANCH   5   8
ENDBRANCH   1   2
BRANCH   1  18
ATOM     18  N   UNL     1      47.632   7.038  11.593  0.00  0.00    +0.000 NA
ATOM     19  H   UNL     1      48.118   6.196  11.904  0.00  0.00    +0.000 HD
BRANCH  18  21
ATOM     20  C   UNL     1      45.398   8.175  11.739  0.00  0.00    +0.000 C 
ATOM     21  C   UNL     1      46.208   6.885  11.928  0.00  0.00    +0.000 C 
BRANCH  21  22
ATOM     22  C   UNL     1      45.663   5.777  11.046  0.00  0.00    +0.000 A 
ATOM     23  C   UNL     1      45.863   5.698   9.675  0.00  0.00    +0.000 A 
ATOM     24  S   UNL     1      45.124   4.341   8.955  0.00  0.00    +0.000 S 
ATOM     25  C   UNL     1      44.505   3.813  10.452  0.00  0.00    +0.000 A 
ATOM     26  N   UNL     1      43.755   2.684  10.544  0.00  0.00    +0.000 NA
ATOM     27  C   UNL     1      43.349   2.414  11.740  0.00  0.00    +0.000 A 
ATOM     28  N   UNL     1      43.618   3.173  12.851  0.00  0.00    +0.000 N 
ATOM     29  C   UNL     1      44.366   4.329  12.808  0.00  0.00    +0.000 A 
ATOM     30  O   UNL     1      44.571   4.993  13.818  0.00  0.00    +0.000 OA
ATOM     31  C   UNL     1      44.854   4.666  11.483  0.00  0.00    +0.000 A 
ATOM     32  H   UNL     1      43.261   2.909  13.757  0.00  0.00    +0.000 HD
ENDBRANCH  21  22
ENDBRANCH  18  21
ENDBRANCH   1  18
TORSDOF 8
ENDMDL
