MODEL 1
REMARK VINA RESULT:    -7.485      0.000      0.000
REMARK INTER + INTRA:         -11.530
REMARK INTER:                 -10.548
REMARK INTRA:                  -0.982
REMARK UNBOUND:                -0.982
REMARK  Name = 
REMARK  9 active torsions:
REMARK  status: ('A' for Active; 'I' for Inactive)
REMARK    1  A    between atoms: C_1  and  C_2
REMARK    2  A    between atoms: C_2  and  C_3
REMARK    3  A    between atoms: C_2  and  N_4
REMARK    4  A    between atoms: C_5  and  C_7
REMARK    5  A    between atoms: C_10  and  O_11
REMARK    6  A    between atoms: O_11  and  C_12
REMARK    7  A    between atoms: C_12  and  C_13
REMARK    8  A    between atoms: C_13  and  C_16
REMARK    9  A    between atoms: C_20  and  C_21
REMARK                            x       y       z     vdW  Elec       q    Type
REMARK                         _______ _______ _______ _____ _____    ______ ____
ROOT
ATOM      1  C   UNL     1      48.496   6.869  12.730  0.00  0.00    +0.000 A 
ATOM      2  C   UNL     1      47.584   7.084  11.702  0.00  0.00    +0.000 A 
ATOM      3  C   UNL     1      46.353   6.430  11.751  0.00  0.00    +0.000 A 
ATOM      4  C   UNL     1      46.066   5.581  12.817  0.00  0.00    +0.000 A 
ATOM      5  C   UNL     1      47.053   5.416  13.789  0.00  0.00    +0.000 A 
ATOM      6  N   UNL     1      48.261   6.036  13.781  0.00  0.00    +0.000 NA
ENDROOT
BRANCH   1   8
ATOM      7  N   UNL     1      50.510   7.523  11.526  0.00  0.00    +0.000 N 
ATOM      8  C   UNL     1      49.807   7.593  12.712  0.00  0.00    +0.000 C 
ATOM      9  O   UNL     1      50.204   8.191  13.711  0.00  0.00    +0.000 OA
ATOM     10  H   UNL     1      50.032   7.098  10.734  0.00  0.00    +0.000 HD
BRANCH   7  12
ATOM     11  C   UNL     1      52.559   7.487  10.189  0.00  0.00    +0.000 C 
ATOM     12  C   UNL     1      51.808   8.149  11.341  0.00  0.00    +0.000 C 
ATOM     13  C   UNL     1      51.672   9.647  11.076  0.00  0.00    +0.000 C 
ENDBRANCH   7  12
ENDBRANCH   1   8
BRANCH   4  14
ATOM     14  O   UNL     1      44.902   4.886  12.998  0.00  0.00    +0.000 OA
BRANCH  14  15
ATOM     15  C   UNL     1      44.834   3.590  12.376  0.00  0.00    +0.000 C 
BRANCH  15  16
ATOM     16  C   UNL     1      43.965   3.624  11.107  0.00  0.00    +0.000 C 
ATOM     17  F   UNL     1      43.019   2.644  11.206  0.00  0.00    +0.000 F 
ATOM     18  F   UNL     1      43.275   4.801  11.078  0.00  0.00    +0.000 F 
BRANCH  16  19
ATOM     19  C   UNL     1      44.820   3.451   9.861  0.00  0.00    +0.000 A 
ATOM     20  C   UNL     1      45.201   4.564   9.092  0.00  0.00    +0.000 A 
ATOM     21  C   UNL     1      45.984   4.406   7.947  0.00  0.00    +0.000 A 
ATOM     22  C   UNL     1      46.394   3.133   7.551  0.00  0.00    +0.000 A 
ATOM     23  C   UNL     1      46.026   2.015   8.304  0.00  0.00    +0.000 A 
ATOM     24  C   UNL     1      45.245   2.174   9.455  0.00  0.00    +0.000 A 
BRANCH  23  25
ATOM     25  C   UNL     1      46.450   0.705   7.896  0.00  0.00    +0.000 C 
ATOM     26  N   UNL     1      46.800  -0.346   7.561  0.00  0.00    +0.000 NA
ENDBRANCH  23  25
ENDBRANCH  16  19
ENDBRANCH  15  16
ENDBRANCH  14  15
ENDBRANCH   4  14
TORSDOF 7
ENDMDL
MODEL 2
REMARK VINA RESULT:    -7.431      1.382      1.638
REMARK INTER + INTRA:         -11.454
REMARK INTER:                 -10.440
REMARK INTRA:                  -1.014
REMARK UNBOUND:                -0.982
REMARK  Name = 
REMARK  9 active torsions:
REMARK  status: ('A' for Active; 'I' for Inactive)
REMARK    1  A    between atoms: C_1  and  C_2
REMARK    2  A    between atoms: C_2  and  C_3
REMARK    3  A    between atoms: C_2  and  N_4
REMARK    4  A    between atoms: C_5  and  C_7
REMARK    5  A    between atoms: C_10  and  O_11
REMARK    6  A    between atoms: O_11  and  C_12
REMARK    7  A    between atoms: C_12  and  C_13
REMARK    8  A    between atoms: C_13  and  C_16
REMARK    9  A    between atoms: C_20  and  C_21
REMARK                            x       y       z     vdW  Elec       q    Type
REMARK                         _______ _______ _______ _____ _____    ______ ____
ROOT
ATOM      1  C   UNL     1      48.130   6.758  12.703  0.00  0.00    +0.000 A 
ATOM      2  C   UNL     1      47.081   7.352  12.010  0.00  0.00    +0.000 A 
ATOM      3  C   UNL     1      45.822   6.756  12.061  0.00  0.00    +0.000 A 
ATOM      4  C   UNL     1      45.642   5.586  12.795  0.00  0.00    +0.000 A 
ATOM      5  C   UNL     1      46.760   5.057  13.440  0.00  0.00    +0.000 A 
ATOM      6  N   UNL     1      48.001   5.608  13.419  0.00  0.00    +0.000 NA
ENDROOT
BRANCH   1   8
ATOM      7  N   UNL     1      50.087   7.547  13.923  0.00  0.00    +0.000 N 
ATOM      8  C   UNL     1      49.480   7.407  12.690  0.00  0.00    +0.000 C 
ATOM      9  O   UNL     1      49.981   7.785  11.632  0.00  0.00    +0.000 OA
ATOM     10  H   UNL     1      49.630   7.095  14.712  0.00  0.00    +0.000 HD
BRANCH   7  12
ATOM     11  C   UNL     1      51.244   9.690  14.156  0.00  0.00    +0.000 C 
ATOM     12  C   UNL     1      51.386   8.171  14.095  0.00  0.00    +0.000 C 
ATOM     13  C   UNL     1      52.085   7.667  15.355  0.00  0.00    +0.000 C 
ENDBRANCH   7  12
ENDBRANCH   1   8
BRANCH   4  14
ATOM     14  O   UNL     1      44.467   4.901  12.939  0.00  0.00    +0.000 OA
BRANCH  14  15
ATOM     15  C   UNL     1      44.477   3.527  12.512  0.00  0.00    +0.000 C 
BRANCH  15  16
ATOM     16  C   UNL     1      43.634   3.332  11.240  0.00  0.00    +0.000 C 
ATOM     17  F   UNL     1      42.909   2.183  11.375  0.00  0.00    +0.000 F 
ATOM     18  F   UNL     1      42.718   4.339  11.160  0.00  0.00    +0.000 F 
BRANCH  16  19
ATOM     19  C   UNL     1      44.522   3.290  10.004  0.00  0.00    +0.000 A 
ATOM     20  C   UNL     1      44.817   4.466   9.293  0.00  0.00    +0.000 A 
ATOM     21  C   UNL     1      45.630   4.428   8.159  0.00  0.00    +0.000 A 
ATOM     22  C   UNL     1      46.155   3.214   7.715  0.00  0.00    +0.000 A 
ATOM     23  C   UNL     1      45.872   2.036   8.410  0.00  0.00    +0.000 A 
ATOM     24  C   UNL     1      45.062   2.075   9.551  0.00  0.00    +0.000 A 
BRANCH  23  25
ATOM     25  C   UNL     1      46.415   0.787   7.953  0.00  0.00    +0.000 C 
ATOM     26  N   UNL     1      46.860  -0.218   7.592  0.00  0.00    +0.000 NA
ENDBRANCH  23  25
ENDBRANCH  16  19
ENDBRANCH  15  16
ENDBRANCH  14  15
ENDBRANCH   4  14
TORSDOF 7
ENDMDL
MODEL 3
REMARK VINA RESULT:    -7.040      2.637      4.020
REMARK INTER + INTRA:         -10.903
REMARK INTER:                 -10.475
REMARK INTRA:                  -0.428
REMARK UNBOUND:                -0.982
REMARK  Name = 
REMARK  9 active torsions:
REMARK  status: ('A' for Active; 'I' for Inactive)
REMARK    1  A    between atoms: C_1  and  C_2
REMARK    2  A    between atoms: C_2  and  C_3
REMARK    3  A    between atoms: C_2  and  N_4
REMARK    4  A    between atoms: C_5  and  C_7
REMARK    5  A    between atoms: C_10  and  O_11
REMARK    6  A    between atoms: O_11  and  C_12
REMARK    7  A    between atoms: C_12  and  C_13
REMARK    8  A    between atoms: C_13  and  C_16
REMARK    9  A    between atoms: C_20  and  C_21
REMARK                            x       y       z     vdW  Elec       q    Type
REMARK                         _______ _______ _______ _____ _____    ______ ____
ROOT
ATOM      1  C   UNL     1      48.043   5.498  15.368  0.00  0.00    +0.000 A 
ATOM      2  C   UNL     1      48.019   6.481  14.385  0.00  0.00    +0.000 A 
ATOM      3  C   UNL     1      47.248   6.268  13.243  0.00  0.00    +0.000 A 
ATOM      4  C   UNL     1      46.525   5.085  13.111  0.00  0.00    +0.000 A 
ATOM      5  C   UNL     1      46.628   4.152  14.143  0.00  0.00    +0.000 A 
ATOM      6  N   UNL     1      47.364   4.322  15.271  0.00  0.00    +0.000 NA
ENDROOT
BRANCH   1   8
ATOM      7  N   UNL     1      48.100   6.031  17.745  0.00  0.00    +0.000 N 
ATOM      8  C   UNL     1      48.837   5.727  16.618  0.00  0.00    +0.000 C 
ATOM      9  O   UNL     1      50.064   5.649  16.601  0.00  0.00    +0.000 OA
ATOM     10  H   UNL     1      47.088   5.956  17.665  0.00  0.00    +0.000 HD
BRANCH   7  12
ATOM     11  C   UNL     1      47.993   7.458  19.730  0.00  0.00    +0.000 C 
ATOM     12  C   UNL     1      48.709   6.303  19.035  0.00  0.00    +0.000 C 
ATOM     13  C   UNL     1      48.689   5.068  19.933  0.00  0.00    +0.000 C 
ENDBRANCH   7  12
ENDBRANCH   1   8
BRANCH   4  14
ATOM     14  O   UNL     1      45.723   4.748  12.054  0.00  0.00    +0.000 OA
BRANCH  14  15
ATOM     15  C   UNL     1      44.654   3.829  12.338  0.00  0.00    +0.000 C 
BRANCH  15  16
ATOM     16  C   UNL     1      43.813   3.545  11.082  0.00  0.00    +0.000 C 
ATOM     17  F   UNL     1      43.083   2.412  11.298  0.00  0.00    +0.000 F 
ATOM     18  F   UNL     1      42.901   4.548  10.926  0.00  0.00    +0.000 F 
BRANCH  16  19
ATOM     19  C   UNL     1      44.704   3.410   9.855  0.00  0.00    +0.000 A 
ATOM     20  C   UNL     1      45.074   4.542   9.109  0.00  0.00    +0.000 A 
ATOM     21  C   UNL     1      45.890   4.418   7.982  0.00  0.00    +0.000 A 
ATOM     22  C   UNL     1      46.344   3.161   7.582  0.00  0.00    +0.000 A 
ATOM     23  C   UNL     1      45.987   2.025   8.313  0.00  0.00    +0.000 A 
ATOM     24  C   UNL     1      45.173   2.150   9.446  0.00  0.00    +0.000 A 
BRANCH  23  25
ATOM     25  C   UNL     1      46.457   0.732   7.902  0.00  0.00    +0.000 C 
ATOM     26  N   UNL     1      46.844  -0.309   7.578  0.00  0.00    +0.000 NA
ENDBRANCH  23  25
ENDBRANCH  16  19
ENDBRANCH  15  16
ENDBRANCH  14  15
ENDBRANCH   4  14
TORSDOF 7
ENDMDL
MODEL 4
REMARK VINA RESULT:    -6.319      2.835      4.544
REMARK INTER + INTRA:          -9.887
REMARK INTER:                  -9.485
REMARK INTRA:                  -0.402
REMARK UNBOUND:                -0.982
REMARK  Name = 
REMARK  9 active torsions:
REMARK  status: ('A' for Active; 'I' for Inactive)
REMARK    1  A    between atoms: C_1  and  C_2
REMARK    2  A    between atoms: C_2  and  C_3
REMARK    3  A    between atoms: C_2  and  N_4
REMARK    4  A    between atoms: C_5  and  C_7
REMARK    5  A    between atoms: C_10  and  O_11
REMARK    6  A    between atoms: O_11  and  C_12
REMARK    7  A    between atoms: C_12  and  C_13
REMARK    8  A    between atoms: C_13  and  C_16
REMARK    9  A    between atoms: C_20  and  C_21
REMARK                            x       y       z     vdW  Elec       q    Type
REMARK                         _______ _______ _______ _____ _____    ______ ____
ROOT
ATOM      1  C   UNL     1      48.241   5.854  15.202  0.00  0.00    +0.000 A 
ATOM      2  C   UNL     1      48.451   7.008  14.456  0.00  0.00    +0.000 A 
ATOM      3  C   UNL     1      47.829   7.126  13.214  0.00  0.00    +0.000 A 
ATOM      4  C   UNL     1      47.018   6.093  12.749  0.00  0.00    +0.000 A 
ATOM      5  C   UNL     1      46.885   4.968  13.562  0.00  0.00    +0.000 A 
ATOM      6  N   UNL     1      47.470   4.815  14.778  0.00  0.00    +0.000 NA
ENDROOT
BRANCH   1   8
ATOM      7  N   UNL     1      48.007   5.812  17.627  0.00  0.00    +0.000 N 
ATOM      8  C   UNL     1      48.873   5.728  16.555  0.00  0.00    +0.000 C 
ATOM      9  O   UNL     1      50.087   5.569  16.665  0.00  0.00    +0.000 OA
ATOM     10  H   UNL     1      47.012   5.829  17.412  0.00  0.00    +0.000 HD
BRANCH   7  12
ATOM     11  C   UNL     1      47.458   6.432  19.929  0.00  0.00    +0.000 C 
ATOM     12  C   UNL     1      48.452   5.731  19.007  0.00  0.00    +0.000 C 
ATOM     13  C   UNL     1      48.632   4.281  19.451  0.00  0.00    +0.000 C 
ENDBRANCH   7  12
ENDBRANCH   1   8
BRANCH   4  14
ATOM     14  O   UNL     1      46.342   6.077  11.560  0.00  0.00    +0.000 OA
BRANCH  14  15
ATOM     15  C   UNL     1      45.109   6.818  11.522  0.00  0.00    +0.000 C 
BRANCH  15  16
ATOM     16  C   UNL     1      43.893   5.876  11.484  0.00  0.00    +0.000 C 
ATOM     17  F   UNL     1      43.552   5.559  12.768  0.00  0.00    +0.000 F 
ATOM     18  F   UNL     1      42.825   6.555  10.976  0.00  0.00    +0.000 F 
BRANCH  16  19
ATOM     19  C   UNL     1      44.200   4.631  10.664  0.00  0.00    +0.000 A 
ATOM     20  C   UNL     1      43.779   3.363  11.100  0.00  0.00    +0.000 A 
ATOM     21  C   UNL     1      44.063   2.220  10.349  0.00  0.00    +0.000 A 
ATOM     22  C   UNL     1      44.775   2.327   9.155  0.00  0.00    +0.000 A 
ATOM     23  C   UNL     1      45.201   3.580   8.706  0.00  0.00    +0.000 A 
ATOM     24  C   UNL     1      44.912   4.727   9.456  0.00  0.00    +0.000 A 
BRANCH  23  25
ATOM     25  C   UNL     1      45.933   3.689   7.475  0.00  0.00    +0.000 C 
ATOM     26  N   UNL     1      46.529   3.783   6.488  0.00  0.00    +0.000 NA
ENDBRANCH  23  25
ENDBRANCH  16  19
ENDBRANCH  15  16
ENDBRANCH  14  15
ENDBRANCH   4  14
TORSDOF 7
ENDMDL
MODEL 5
REMARK VINA RESULT:    -6.036      3.967      7.793
REMARK INTER + INTRA:          -9.488
REMARK INTER:                  -8.690
REMARK INTRA:                  -0.798
REMARK UNBOUND:                -0.982
REMARK  Name = 
REMARK  9 active torsions:
REMARK  status: ('A' for Active; 'I' for Inactive)
REMARK    1  A    between atoms: C_1  and  C_2
REMARK    2  A    between atoms: C_2  and  C_3
REMARK    3  A    between atoms: C_2  and  N_4
REMARK    4  A    between atoms: C_5  and  C_7
REMARK    5  A    between atoms: C_10  and  O_11
REMARK    6  A    between atoms: O_11  and  C_12
REMARK    7  A    between atoms: C_12  and  C_13
REMARK    8  A    between atoms: C_13  and  C_16
REMARK    9  A    between atoms: C_20  and  C_21
REMARK                            x       y       z     vdW  Elec       q    Type
REMARK                         _______ _______ _______ _____ _____    ______ ____
ROOT
ATOM      1  C   UNL     1      45.272   6.038  11.541  0.00  0.00    +0.000 A 
ATOM      2  C   UNL     1      44.984   7.398  11.576  0.00  0.00    +0.000 A 
ATOM      3  C   UNL     1      45.715   8.216  12.436  0.00  0.00    +0.000 A 
ATOM      4  C   UNL     1      46.709   7.659  13.238  0.00  0.00    +0.000 A 
ATOM      5  C   UNL     1      46.910   6.282  13.145  0.00  0.00    +0.000 A 
ATOM      6  N   UNL     1      46.223   5.452  12.319  0.00  0.00    +0.000 NA
ENDROOT
BRANCH   1   8
ATOM      7  N   UNL     1      45.294   4.472   9.674  0.00  0.00    +0.000 N 
ATOM      8  C   UNL     1      44.521   5.152  10.595  0.00  0.00    +0.000 C 
ATOM      9  O   UNL     1      43.296   5.067  10.658  0.00  0.00    +0.000 OA
ATOM     10  H   UNL     1      46.303   4.532   9.791  0.00  0.00    +0.000 HD
BRANCH   7  12
ATOM     11  C   UNL     1      45.622   3.544   7.435  0.00  0.00    +0.000 C 
ATOM     12  C   UNL     1      44.728   3.587   8.672  0.00  0.00    +0.000 C 
ATOM     13  C   UNL     1      44.536   2.175   9.219  0.00  0.00    +0.000 C 
ENDBRANCH   7  12
ENDBRANCH   1   8
BRANCH   4  14
ATOM     14  O   UNL     1      47.506   8.340  14.117  0.00  0.00    +0.000 OA
BRANCH  14  15
ATOM     15  C   UNL     1      48.853   7.854  14.258  0.00  0.00    +0.000 C 
BRANCH  15  16
ATOM     16  C   UNL     1      49.350   8.001  15.706  0.00  0.00    +0.000 C 
ATOM     17  F   UNL     1      50.511   8.721  15.693  0.00  0.00    +0.000 F 
ATOM     18  F   UNL     1      48.456   8.758  16.405  0.00  0.00    +0.000 F 
BRANCH  16  19
ATOM     19  C   UNL     1      49.546   6.637  16.351  0.00  0.00    +0.000 A 
ATOM     20  C   UNL     1      50.821   6.218  16.769  0.00  0.00    +0.000 A 
ATOM     21  C   UNL     1      51.002   4.965  17.360  0.00  0.00    +0.000 A 
ATOM     22  C   UNL     1      49.913   4.111  17.536  0.00  0.00    +0.000 A 
ATOM     23  C   UNL     1      48.638   4.512  17.127  0.00  0.00    +0.000 A 
ATOM     24  C   UNL     1      48.456   5.771  16.540  0.00  0.00    +0.000 A 
BRANCH  23  25
ATOM     25  C   UNL     1      47.518   3.633  17.311  0.00  0.00    +0.000 C 
ATOM     26  N   UNL     1      46.621   2.917  17.455  0.00  0.00    +0.000 NA
ENDBRANCH  23  25
ENDBRANCH  16  19
ENDBRANCH  15  16
ENDBRANCH  14  15
ENDBRANCH   4  14
TORSDOF 7
ENDMDL
MODEL 6
REMARK VINA RESULT:    -5.958      5.127      8.564
REMARK INTER + INTRA:          -9.378
REMARK INTER:                  -8.744
REMARK INTRA:                  -0.634
REMARK UNBOUND:                -0.982
REMARK  Name = 
REMARK  9 active torsions:
REMARK  status: ('A' for Active; 'I' for Inactive)
REMARK    1  A    between atoms: C_1  and  C_2
REMARK    2  A    between atoms: C_2  and  C_3
REMARK    3  A    between atoms: C_2  and  N_4
REMARK    4  A    between atoms: C_5  and  C_7
REMARK    5  A    between atoms: C_10  and  O_11
REMARK    6  A    between atoms: O_11  and  C_12
REMARK    7  A    between atoms: C_12  and  C_13
REMARK    8  A    between atoms: C_13  and  C_16
REMARK    9  A    between atoms: C_20  and  C_21
REMARK                            x       y       z     vdW  Elec       q    Type
REMARK                         _______ _______ _______ _____ _____    ______ ____
ROOT
ATOM      1  C   UNL     1      45.793   4.996  12.407  0.00  0.00    +0.000 A 
ATOM      2  C   UNL     1      46.573   6.147  12.364  0.00  0.00    +0.000 A 
ATOM      3  C   UNL     1      47.454   6.400  13.414  0.00  0.00    +0.000 A 
ATOM      4  C   UNL     1      47.533   5.503  14.477  0.00  0.00    +0.000 A 
ATOM      5  C   UNL     1      46.697   4.388  14.438  0.00  0.00    +0.000 A 
ATOM      6  N   UNL     1      45.829   4.104  13.434  0.00  0.00    +0.000 NA
ENDROOT
BRANCH   1   8
ATOM      7  N   UNL     1      45.229   3.617  10.479  0.00  0.00    +0.000 N 
ATOM      8  C   UNL     1      44.869   4.691  11.268  0.00  0.00    +0.000 C 
ATOM      9  O   UNL     1      43.868   5.379  11.075  0.00  0.00    +0.000 OA
ATOM     10  H   UNL     1      46.013   3.054  10.801  0.00  0.00    +0.000 HD
BRANCH   7  12
ATOM     11  C   UNL     1      44.959   3.899   8.063  0.00  0.00    +0.000 C 
ATOM     12  C   UNL     1      44.459   3.196   9.322  0.00  0.00    +0.000 C 
ATOM     13  C   UNL     1      44.524   1.683   9.129  0.00  0.00    +0.000 C 
ENDBRANCH   7  12
ENDBRANCH   1   8
BRANCH   4  14
ATOM     14  O   UNL     1      48.356   5.619  15.564  0.00  0.00    +0.000 OA
BRANCH  14  15
ATOM     15  C   UNL     1      48.115   4.697  16.642  0.00  0.00    +0.000 C 
BRANCH  15  16
ATOM     16  C   UNL     1      49.131   4.891  17.781  0.00  0.00    +0.000 C 
ATOM     17  F   UNL     1      49.657   6.147  17.679  0.00  0.00    +0.000 F 
ATOM     18  F   UNL     1      48.468   4.865  18.973  0.00  0.00    +0.000 F 
BRANCH  16  19
ATOM     19  C   UNL     1      50.215   3.825  17.725  0.00  0.00    +0.000 A 
ATOM     20  C   UNL     1      49.915   2.518  17.302  0.00  0.00    +0.000 A 
ATOM     21  C   UNL     1      50.909   1.539  17.253  0.00  0.00    +0.000 A 
ATOM     22  C   UNL     1      52.216   1.849  17.630  0.00  0.00    +0.000 A 
ATOM     23  C   UNL     1      52.532   3.143  18.052  0.00  0.00    +0.000 A 
ATOM     24  C   UNL     1      51.536   4.127  18.096  0.00  0.00    +0.000 A 
BRANCH  23  25
ATOM     25  C   UNL     1      53.878   3.462  18.438  0.00  0.00    +0.000 C 
ATOM     26  N   UNL     1      54.961   3.729  18.746  0.00  0.00    +0.000 NA
ENDBRANCH  23  25
ENDBRANCH  16  19
ENDBRANCH  15  16
ENDBRANCH  14  15
ENDBRANCH   4  14
TORSDOF 7
ENDMDL
MODEL 7
REMARK VINA RESULT:    -5.930      4.322      7.780
REMARK INTER + INTRA:          -9.338
REMARK INTER:                  -8.578
REMARK INTRA:                  -0.761
REMARK UNBOUND:                -0.982
REMARK  Name = 
REMARK  9 active torsions:
REMARK  status: ('A' for Active; 'I' for Inactive)
REMARK    1  A    between atoms: C_1  and  C_2
REMARK    2  A    between atoms: C_2  and  C_3
REMARK    3  A    between atoms: C_2  and  N_4
REMARK    4  A    between atoms: C_5  and  C_7
REMARK    5  A    between atoms: C_10  and  O_11
REMARK    6  A    between atoms: O_11  and  C_12
REMARK    7  A    between atoms: C_12  and  C_13
REMARK    8  A    between atoms: C_13  and  C_16
REMARK    9  A    between atoms: C_20  and  C_21
REMARK                            x       y       z     vdW  Elec       q    Type
REMARK                         _______ _______ _______ _____ _____    ______ ____
ROOT
ATOM      1  C   UNL     1      46.197   5.730  12.102  0.00  0.00    +0.000 A 
ATOM      2  C   UNL     1      47.069   6.746  11.724  0.00  0.00    +0.000 A 
ATOM      3  C   UNL     1      48.093   7.109  12.597  0.00  0.00    +0.000 A 
ATOM      4  C   UNL     1      48.221   6.454  13.820  0.00  0.00    +0.000 A 
ATOM      5  C   UNL     1      47.286   5.462  14.116  0.00  0.00    +0.000 A 
ATOM      6  N   UNL     1      46.277   5.077  13.294  0.00  0.00    +0.000 NA
ENDROOT
BRANCH   1   8
ATOM      7  N   UNL     1      45.384   4.174  10.412  0.00  0.00    +0.000 N 
ATOM      8  C   UNL     1      45.113   5.303  11.160  0.00  0.00    +0.000 C 
ATOM      9  O   UNL     1      44.068   5.945  11.078  0.00  0.00    +0.000 OA
ATOM     10  H   UNL     1      46.232   3.662  10.647  0.00  0.00    +0.000 HD
BRANCH   7  12
ATOM     11  C   UNL     1      44.898   3.992   8.021  0.00  0.00    +0.000 C 
ATOM     12  C   UNL     1      44.454   3.634   9.437  0.00  0.00    +0.000 C 
ATOM     13  C   UNL     1      44.326   2.118   9.569  0.00  0.00    +0.000 C 
ENDBRANCH   7  12
ENDBRANCH   1   8
BRANCH   4  14
ATOM     14  O   UNL     1      49.179   6.699  14.765  0.00  0.00    +0.000 OA
BRANCH  14  15
ATOM     15  C   UNL     1      48.737   7.375  15.956  0.00  0.00    +0.000 C 
BRANCH  15  16
ATOM     16  C   UNL     1      49.348   6.740  17.217  0.00  0.00    +0.000 C 
ATOM     17  F   UNL     1      50.702   6.909  17.172  0.00  0.00    +0.000 F 
ATOM     18  F   UNL     1      48.925   7.438  18.310  0.00  0.00    +0.000 F 
BRANCH  16  19
ATOM     19  C   UNL     1      48.971   5.270  17.318  0.00  0.00    +0.000 A 
ATOM     20  C   UNL     1      47.629   4.882  17.476  0.00  0.00    +0.000 A 
ATOM     21  C   UNL     1      47.283   3.532  17.571  0.00  0.00    +0.000 A 
ATOM     22  C   UNL     1      48.273   2.551  17.514  0.00  0.00    +0.000 A 
ATOM     23  C   UNL     1      49.612   2.918  17.357  0.00  0.00    +0.000 A 
ATOM     24  C   UNL     1      49.958   4.272  17.256  0.00  0.00    +0.000 A 
BRANCH  23  25
ATOM     25  C   UNL     1      50.630   1.907  17.296  0.00  0.00    +0.000 C 
ATOM     26  N   UNL     1      51.449   1.092  17.237  0.00  0.00    +0.000 NA
ENDBRANCH  23  25
ENDBRANCH  16  19
ENDBRANCH  15  16
ENDBRANCH  14  15
ENDBRANCH   4  14
TORSDOF 7
ENDMDL
MODEL 8
REMARK VINA RESULT:    -5.640      1.821      2.514
REMARK INTER + INTRA:          -8.930
REMARK INTER:                  -8.080
REMARK INTRA:                  -0.850
REMARK UNBOUND:                -0.982
REMARK  Name = 
REMARK  9 active torsions:
REMARK  status: ('A' for Active; 'I' for Inactive)
REMARK    1  A    between atoms: C_1  and  C_2
REMARK    2  A    between atoms: C_2  and  C_3
REMARK    3  A    between atoms: C_2  and  N_4
REMARK    4  A    between atoms: C_5  and  C_7
REMARK    5  A    between atoms: C_10  and  O_11
REMARK    6  A    between atoms: O_11  and  C_12
REMARK    7  A    between atoms: C_12  and  C_13
REMARK    8  A    between atoms: C_13  and  C_16
REMARK    9  A    between atoms: C_20  and  C_21
REMARK                            x       y       z     vdW  Elec       q    Type
REMARK                         _______ _______ _______ _____ _____    ______ ____
ROOT
ATOM      1  C   UNL     1      48.988   8.118  12.254  0.00  0.00    +0.000 A 
ATOM      2  C   UNL     1      48.251   9.286  12.097  0.00  0.00    +0.000 A 
ATOM      3  C   UNL     1      46.861   9.217  12.167  0.00  0.00    +0.000 A 
ATOM      4  C   UNL     1      46.242   7.988  12.388  0.00  0.00    +0.000 A 
ATOM      5  C   UNL     1      47.067   6.870  12.514  0.00  0.00    +0.000 A 
ATOM      6  N   UNL     1      48.423   6.895  12.455  0.00  0.00    +0.000 NA
ENDROOT
BRANCH   1   8
ATOM      7  N   UNL     1      51.050   8.222  10.959  0.00  0.00    +0.000 N 
ATOM      8  C   UNL     1      50.484   8.181  12.218  0.00  0.00    +0.000 C 
ATOM      9  O   UNL     1      51.134   8.185  13.262  0.00  0.00    +0.000 OA
ATOM     10  H   UNL     1      50.411   8.330  10.174  0.00  0.00    +0.000 HD
BRANCH   7  12
ATOM     11  C   UNL     1      52.982   6.927  10.200  0.00  0.00    +0.000 C 
ATOM     12  C   UNL     1      52.484   8.265  10.741  0.00  0.00    +0.000 C 
ATOM     13  C   UNL     1      52.870   9.386   9.779  0.00  0.00    +0.000 C 
ENDBRANCH   7  12
ENDBRANCH   1   8
BRANCH   4  14
ATOM     14  O   UNL     1      44.895   7.774  12.488  0.00  0.00    +0.000 OA
BRANCH  14  15
ATOM     15  C   UNL     1      44.274   7.110  11.373  0.00  0.00    +0.000 C 
BRANCH  15  16
ATOM     16  C   UNL     1      43.519   5.849  11.825  0.00  0.00    +0.000 C 
ATOM     17  F   UNL     1      43.776   5.643  13.151  0.00  0.00    +0.000 F 
ATOM     18  F   UNL     1      42.178   6.085  11.743  0.00  0.00    +0.000 F 
BRANCH  16  19
ATOM     19  C   UNL     1      43.924   4.647  10.985  0.00  0.00    +0.000 A 
ATOM     20  C   UNL     1      43.536   3.348  11.357  0.00  0.00    +0.000 A 
ATOM     21  C   UNL     1      43.909   2.244  10.587  0.00  0.00    +0.000 A 
ATOM     22  C   UNL     1      44.678   2.421   9.437  0.00  0.00    +0.000 A 
ATOM     23  C   UNL     1      45.072   3.705   9.052  0.00  0.00    +0.000 A 
ATOM     24  C   UNL     1      44.693   4.813   9.821  0.00  0.00    +0.000 A 
BRANCH  23  25
ATOM     25  C   UNL     1      45.862   3.887   7.866  0.00  0.00    +0.000 C 
ATOM     26  N   UNL     1      46.507   4.031   6.917  0.00  0.00    +0.000 NA
ENDBRANCH  23  25
ENDBRANCH  16  19
ENDBRANCH  15  16
ENDBRANCH  14  15
ENDBRANCH   4  14
TORSDOF 7
ENDMDL
MODEL 9
REMARK VINA RESULT:    -5.560      4.174      8.218
REMARK INTER + INTRA:          -8.818
REMARK INTER:                  -7.776
REMARK INTRA:                  -1.042
REMARK UNBOUND:                -0.982
REMARK  Name = 
REMARK  9 active torsions:
REMARK  status: ('A' for Active; 'I' for Inactive)
REMARK    1  A    between atoms: C_1  and  C_2
REMARK    2  A    between atoms: C_2  and  C_3
REMARK    3  A    between atoms: C_2  and  N_4
REMARK    4  A    between atoms: C_5  and  C_7
REMARK    5  A    between atoms: C_10  and  O_11
REMARK    6  A    between atoms: O_11  and  C_12
REMARK    7  A    between atoms: C_12  and  C_13
REMARK    8  A    between atoms: C_13  and  C_16
REMARK    9  A    between atoms: C_20  and  C_21
REMARK                            x       y       z     vdW  Elec       q    Type
REMARK                         _______ _______ _______ _____ _____    ______ ____
ROOT
ATOM      1  C   UNL     1      45.979   6.401  12.592  0.00  0.00    +0.000 A 
ATOM      2  C   UNL     1      45.898   7.771  12.815  0.00  0.00    +0.000 A 
ATOM      3  C   UNL     1      47.022   8.439  13.300  0.00  0.00    +0.000 A 
ATOM      4  C   UNL     1      48.192   7.726  13.551  0.00  0.00    +0.000 A 
ATOM      5  C   UNL     1      48.169   6.352  13.313  0.00  0.00    +0.000 A 
ATOM      6  N   UNL     1      47.098   5.665  12.839  0.00  0.00    +0.000 NA
ENDROOT
BRANCH   1   8
ATOM      7  N   UNL     1      45.062   4.453  11.453  0.00  0.00    +0.000 N 
ATOM      8  C   UNL     1      44.793   5.675  12.036  0.00  0.00    +0.000 C 
ATOM      9  O   UNL     1      43.670   6.170  12.105  0.00  0.00    +0.000 OA
ATOM     10  H   UNL     1      46.009   4.094  11.556  0.00  0.00    +0.000 HD
BRANCH   7  12
ATOM     11  C   UNL     1      44.624   2.777   9.724  0.00  0.00    +0.000 C 
ATOM     12  C   UNL     1      44.033   3.626  10.847  0.00  0.00    +0.000 C 
ATOM     13  C   UNL     1      43.363   2.722  11.879  0.00  0.00    +0.000 C 
ENDBRANCH   7  12
ENDBRANCH   1   8
BRANCH   4  14
ATOM     14  O   UNL     1      49.367   8.251  14.016  0.00  0.00    +0.000 OA
BRANCH  14  15
ATOM     15  C   UNL     1      49.333   8.800  15.346  0.00  0.00    +0.000 C 
BRANCH  15  16
ATOM     16  C   UNL     1      50.040   7.874  16.350  0.00  0.00    +0.000 C 
ATOM     17  F   UNL     1      50.757   6.946  15.650  0.00  0.00    +0.000 F 
ATOM     18  F   UNL     1      50.960   8.601  17.048  0.00  0.00    +0.000 F 
BRANCH  16  19
ATOM     19  C   UNL     1      49.033   7.215  17.281  0.00  0.00    +0.000 A 
ATOM     20  C   UNL     1      48.556   7.892  18.417  0.00  0.00    +0.000 A 
ATOM     21  C   UNL     1      47.633   7.288  19.272  0.00  0.00    +0.000 A 
ATOM     22  C   UNL     1      47.176   5.996  19.008  0.00  0.00    +0.000 A 
ATOM     23  C   UNL     1      47.639   5.308  17.883  0.00  0.00    +0.000 A 
ATOM     24  C   UNL     1      48.561   5.917  17.022  0.00  0.00    +0.000 A 
BRANCH  23  25
ATOM     25  C   UNL     1      47.167   3.980  17.611  0.00  0.00    +0.000 C 
ATOM     26  N   UNL     1      46.791   2.910  17.383  0.00  0.00    +0.000 NA
ENDBRANCH  23  25
ENDBRANCH  16  19
ENDBRANCH  15  16
ENDBRANCH  14  15
ENDBRANCH   4  14
TORSDOF 7
ENDMDL
