MODEL 1
REMARK VINA RESULT:    -9.074      0.000      0.000
REMARK INTER + INTRA:         -13.389
REMARK INTER:                 -12.257
REMARK INTRA:                  -1.132
REMARK UNBOUND:                -1.132
REMARK  Name = 
REMARK  6 active torsions:
REMARK  status: ('A' for Active; 'I' for Inactive)
REMARK    1  A    between atoms: C_2  and  C_4
REMARK    2  A    between atoms: C_7  and  N_8
REMARK    3  A    between atoms: N_8  and  C_9
REMARK    4  A    between atoms: C_9  and  C_10
REMARK    5  A    between atoms: C_10  and  C_13
REMARK    6  A    between atoms: C_17  and  C_18
REMARK                            x       y       z     vdW  Elec       q    Type
REMARK                         _______ _______ _______ _____ _____    ______ ____
ROOT
ATOM      1  C   UNL     1      43.326   5.153  12.484  0.00  0.00    +0.000 C 
ATOM      2  F   UNL     1      42.694   6.284  12.053  0.00  0.00    +0.000 F 
ATOM      3  F   UNL     1      42.610   4.728  13.569  0.00  0.00    +0.000 F 
ENDROOT
BRANCH   1   4
ATOM      4  C   UNL     1      44.785   5.410  12.813  0.00  0.00    +0.000 A 
ATOM      5  C   UNL     1      45.596   4.404  13.348  0.00  0.00    +0.000 A 
ATOM      6  C   UNL     1      46.951   4.643  13.570  0.00  0.00    +0.000 A 
ATOM      7  C   UNL     1      47.510   5.881  13.240  0.00  0.00    +0.000 A 
ATOM      8  C   UNL     1      46.735   6.908  12.675  0.00  0.00    +0.000 A 
ATOM      9  C   UNL     1      45.363   6.654  12.495  0.00  0.00    +0.000 A 
BRANCH   8  10
ATOM     10  C   UNL     1      47.337   8.181  12.227  0.00  0.00    +0.000 A 
ATOM     11  C   UNL     1      48.675   8.281  11.817  0.00  0.00    +0.000 A 
ATOM     12  C   UNL     1      49.222   9.516  11.471  0.00  0.00    +0.000 A 
ATOM     13  C   UNL     1      48.410  10.635  11.526  0.00  0.00    +0.000 A 
ATOM     14  N   UNL     1      47.116  10.596  11.897  0.00  0.00    +0.000 NA
ATOM     15  C   UNL     1      46.620   9.382  12.240  0.00  0.00    +0.000 A 
ENDBRANCH   8  10
ENDBRANCH   1   4
BRANCH   1  16
ATOM     16  C   UNL     1      43.238   4.066  11.382  0.00  0.00    +0.000 C 
BRANCH  16  17
ATOM     17  N   UNL     1      43.592   4.537  10.031  0.00  0.00    +0.000 N 
ATOM     18  H   UNL     1      42.803   4.834   9.461  0.00  0.00    +0.000 HD
BRANCH  17  22
ATOM     19  C   UNL     1      46.479   2.476   7.738  0.00  0.00    +0.000 A 
ATOM     20  C   UNL     1      46.392   3.865   7.646  0.00  0.00    +0.000 A 
ATOM     21  C   UNL     1      45.451   4.559   8.418  0.00  0.00    +0.000 A 
ATOM     22  C   UNL     1      44.603   3.893   9.313  0.00  0.00    +0.000 A 
ATOM     23  C   UNL     1      44.688   2.498   9.373  0.00  0.00    +0.000 A 
ATOM     24  C   UNL     1      45.614   1.789   8.592  0.00  0.00    +0.000 A 
BRANCH  19  26
ATOM     25  N   UNL     1      48.538   2.385   6.445  0.00  0.00    +0.000 N 
ATOM     26  C   UNL     1      47.442   1.709   6.909  0.00  0.00    +0.000 C 
ATOM     27  O   UNL     1      47.288   0.520   6.672  0.00  0.00    +0.000 OA
ATOM     28  H   UNL     1      49.235   1.835   5.961  0.00  0.00    +0.000 HD
ATOM     29  H   UNL     1      48.820   3.281   6.815  0.00  0.00    +0.000 HD
ENDBRANCH  19  26
ENDBRANCH  17  22
ENDBRANCH  16  17
ENDBRANCH   1  16
TORSDOF 6
ENDMDL
MODEL 2
REMARK VINA RESULT:    -8.873      2.373      3.728
REMARK INTER + INTRA:         -13.117
REMARK INTER:                 -11.980
REMARK INTRA:                  -1.137
REMARK UNBOUND:                -1.132
REMARK  Name = 
REMARK  6 active torsions:
REMARK  status: ('A' for Active; 'I' for Inactive)
REMARK    1  A    between atoms: C_2  and  C_4
REMARK    2  A    between atoms: C_7  and  N_8
REMARK    3  A    between atoms: N_8  and  C_9
REMARK    4  A    between atoms: C_9  and  C_10
REMARK    5  A    between atoms: C_10  and  C_13
REMARK    6  A    between atoms: C_17  and  C_18
REMARK                            x       y       z     vdW  Elec       q    Type
REMARK                         _______ _______ _______ _____ _____    ______ ____
ROOT
ATOM      1  C   UNL     1      43.906   4.779  12.469  0.00  0.00    +0.000 C 
ATOM      2  F   UNL     1      42.991   5.423  13.252  0.00  0.00    +0.000 F 
ATOM      3  F   UNL     1      43.702   3.445  12.694  0.00  0.00    +0.000 F 
ENDROOT
BRANCH   1   4
ATOM      4  C   UNL     1      45.326   5.213  12.783  0.00  0.00    +0.000 A 
ATOM      5  C   UNL     1      46.007   6.116  11.960  0.00  0.00    +0.000 A 
ATOM      6  C   UNL     1      47.281   6.557  12.311  0.00  0.00    +0.000 A 
ATOM      7  C   UNL     1      47.876   6.115  13.497  0.00  0.00    +0.000 A 
ATOM      8  C   UNL     1      47.214   5.230  14.365  0.00  0.00    +0.000 A 
ATOM      9  C   UNL     1      45.944   4.772  13.969  0.00  0.00    +0.000 A 
BRANCH   8  10
ATOM     10  C   UNL     1      47.790   4.840  15.668  0.00  0.00    +0.000 A 
ATOM     11  C   UNL     1      47.521   3.604  16.273  0.00  0.00    +0.000 A 
ATOM     12  C   UNL     1      48.028   3.305  17.538  0.00  0.00    +0.000 A 
ATOM     13  C   UNL     1      48.815   4.251  18.171  0.00  0.00    +0.000 A 
ATOM     14  N   UNL     1      49.118   5.447  17.633  0.00  0.00    +0.000 NA
ATOM     15  C   UNL     1      48.598   5.710  16.409  0.00  0.00    +0.000 A 
ENDBRANCH   8  10
ENDBRANCH   1   4
BRANCH   1  16
ATOM     16  C   UNL     1      43.603   5.077  10.978  0.00  0.00    +0.000 C 
BRANCH  16  17
ATOM     17  N   UNL     1      43.507   3.880  10.124  0.00  0.00    +0.000 N 
ATOM     18  H   UNL     1      43.015   3.093  10.543  0.00  0.00    +0.000 HD
BRANCH  17  22
ATOM     19  C   UNL     1      46.622   2.644   7.553  0.00  0.00    +0.000 A 
ATOM     20  C   UNL     1      46.303   3.999   7.645  0.00  0.00    +0.000 A 
ATOM     21  C   UNL     1      45.285   4.421   8.511  0.00  0.00    +0.000 A 
ATOM     22  C   UNL     1      44.587   3.512   9.318  0.00  0.00    +0.000 A 
ATOM     23  C   UNL     1      44.904   2.155   9.193  0.00  0.00    +0.000 A 
ATOM     24  C   UNL     1      45.909   1.718   8.317  0.00  0.00    +0.000 A 
BRANCH  19  26
ATOM     25  N   UNL     1      47.928   2.936   5.521  0.00  0.00    +0.000 N 
ATOM     26  C   UNL     1      47.672   2.163   6.621  0.00  0.00    +0.000 C 
ATOM     27  O   UNL     1      48.307   1.139   6.835  0.00  0.00    +0.000 OA
ATOM     28  H   UNL     1      48.708   2.651   4.942  0.00  0.00    +0.000 HD
ATOM     29  H   UNL     1      47.607   3.889   5.441  0.00  0.00    +0.000 HD
ENDBRANCH  19  26
ENDBRANCH  17  22
ENDBRANCH  16  17
ENDBRANCH   1  16
TORSDOF 6
ENDMDL
MODEL 3
REMARK VINA RESULT:    -8.432      2.531      3.281
REMARK INTER + INTRA:         -12.522
REMARK INTER:                 -11.405
REMARK INTRA:                  -1.117
REMARK UNBOUND:                -1.132
REMARK  Name = 
REMARK  6 active torsions:
REMARK  status: ('A' for Active; 'I' for Inactive)
REMARK    1  A    between atoms: C_2  and  C_4
REMARK    2  A    between atoms: C_7  and  N_8
REMARK    3  A    between atoms: N_8  and  C_9
REMARK    4  A    between atoms: C_9  and  C_10
REMARK    5  A    between atoms: C_10  and  C_13
REMARK    6  A    between atoms: C_17  and  C_18
REMARK                            x       y       z     vdW  Elec       q    Type
REMARK                         _______ _______ _______ _____ _____    ______ ____
ROOT
ATOM      1  C   UNL     1      44.872   4.392  12.493  0.00  0.00    +0.000 C 
ATOM      2  F   UNL     1      44.089   4.449  13.610  0.00  0.00    +0.000 F 
ATOM      3  F   UNL     1      45.238   3.079  12.372  0.00  0.00    +0.000 F 
ENDROOT
BRANCH   1   4
ATOM      4  C   UNL     1      46.067   5.323  12.591  0.00  0.00    +0.000 A 
ATOM      5  C   UNL     1      46.340   6.260  11.589  0.00  0.00    +0.000 A 
ATOM      6  C   UNL     1      47.399   7.154  11.738  0.00  0.00    +0.000 A 
ATOM      7  C   UNL     1      48.178   7.133  12.899  0.00  0.00    +0.000 A 
ATOM      8  C   UNL     1      47.919   6.227  13.941  0.00  0.00    +0.000 A 
ATOM      9  C   UNL     1      46.869   5.310  13.749  0.00  0.00    +0.000 A 
BRANCH   8  10
ATOM     10  C   UNL     1      48.670   6.266  15.213  0.00  0.00    +0.000 A 
ATOM     11  C   UNL     1      49.825   7.043  15.383  0.00  0.00    +0.000 A 
ATOM     12  C   UNL     1      50.544   6.995  16.578  0.00  0.00    +0.000 A 
ATOM     13  C   UNL     1      50.080   6.177  17.593  0.00  0.00    +0.000 A 
ATOM     14  N   UNL     1      48.970   5.422  17.490  0.00  0.00    +0.000 NA
ATOM     15  C   UNL     1      48.303   5.482  16.311  0.00  0.00    +0.000 A 
ENDBRANCH   8  10
ENDBRANCH   1   4
BRANCH   1  16
ATOM     16  C   UNL     1      44.027   4.781  11.254  0.00  0.00    +0.000 C 
BRANCH  16  17
ATOM     17  N   UNL     1      43.819   3.687  10.288  0.00  0.00    +0.000 N 
ATOM     18  H   UNL     1      43.338   2.872  10.662  0.00  0.00    +0.000 HD
BRANCH  17  22
ATOM     19  C   UNL     1      46.671   2.640   7.353  0.00  0.00    +0.000 A 
ATOM     20  C   UNL     1      46.313   3.978   7.518  0.00  0.00    +0.000 A 
ATOM     21  C   UNL     1      45.383   4.338   8.503  0.00  0.00    +0.000 A 
ATOM     22  C   UNL     1      44.815   3.383   9.357  0.00  0.00    +0.000 A 
ATOM     23  C   UNL     1      45.167   2.043   9.160  0.00  0.00    +0.000 A 
ATOM     24  C   UNL     1      46.084   1.668   8.166  0.00  0.00    +0.000 A 
BRANCH  19  26
ATOM     25  N   UNL     1      47.698   3.009   5.179  0.00  0.00    +0.000 N 
ATOM     26  C   UNL     1      47.627   2.224   6.298  0.00  0.00    +0.000 C 
ATOM     27  O   UNL     1      48.346   1.243   6.427  0.00  0.00    +0.000 OA
ATOM     28  H   UNL     1      48.417   2.773   4.507  0.00  0.00    +0.000 HD
ATOM     29  H   UNL     1      47.310   3.940   5.144  0.00  0.00    +0.000 HD
ENDBRANCH  19  26
ENDBRANCH  17  22
ENDBRANCH  16  17
ENDBRANCH   1  16
TORSDOF 6
ENDMDL
MODEL 4
REMARK VINA RESULT:    -8.378      1.729      2.554
REMARK INTER + INTRA:         -12.449
REMARK INTER:                 -11.695
REMARK INTRA:                  -0.754
REMARK UNBOUND:                -1.132
REMARK  Name = 
REMARK  6 active torsions:
REMARK  status: ('A' for Active; 'I' for Inactive)
REMARK    1  A    between atoms: C_2  and  C_4
REMARK    2  A    between atoms: C_7  and  N_8
REMARK    3  A    between atoms: N_8  and  C_9
REMARK    4  A    between atoms: C_9  and  C_10
REMARK    5  A    between atoms: C_10  and  C_13
REMARK    6  A    between atoms: C_17  and  C_18
REMARK                            x       y       z     vdW  Elec       q    Type
REMARK                         _______ _______ _______ _____ _____    ______ ____
ROOT
ATOM      1  C   UNL     1      44.093   4.052  12.449  0.00  0.00    +0.000 C 
ATOM      2  F   UNL     1      43.305   3.946  13.559  0.00  0.00    +0.000 F 
ATOM      3  F   UNL     1      44.824   2.897  12.411  0.00  0.00    +0.000 F 
ENDROOT
BRANCH   1   4
ATOM      4  C   UNL     1      44.965   5.294  12.491  0.00  0.00    +0.000 A 
ATOM      5  C   UNL     1      46.339   5.207  12.741  0.00  0.00    +0.000 A 
ATOM      6  C   UNL     1      47.130   6.353  12.699  0.00  0.00    +0.000 A 
ATOM      7  C   UNL     1      46.560   7.591  12.385  0.00  0.00    +0.000 A 
ATOM      8  C   UNL     1      45.189   7.715  12.100  0.00  0.00    +0.000 A 
ATOM      9  C   UNL     1      44.406   6.550  12.185  0.00  0.00    +0.000 A 
BRANCH   8  10
ATOM     10  C   UNL     1      44.598   8.998  11.666  0.00  0.00    +0.000 A 
ATOM     11  C   UNL     1      43.480   9.066  10.822  0.00  0.00    +0.000 A 
ATOM     12  C   UNL     1      42.998  10.298  10.378  0.00  0.00    +0.000 A 
ATOM     13  C   UNL     1      43.638  11.448  10.805  0.00  0.00    +0.000 A 
ATOM     14  N   UNL     1      44.705  11.443  11.627  0.00  0.00    +0.000 NA
ATOM     15  C   UNL     1      45.156  10.229  12.028  0.00  0.00    +0.000 A 
ENDBRANCH   8  10
ENDBRANCH   1   4
BRANCH   1  16
ATOM     16  C   UNL     1      43.194   4.106  11.187  0.00  0.00    +0.000 C 
BRANCH  16  17
ATOM     17  N   UNL     1      43.822   4.746  10.018  0.00  0.00    +0.000 N 
ATOM     18  H   UNL     1      43.225   5.400   9.515  0.00  0.00    +0.000 HD
BRANCH  17  22
ATOM     19  C   UNL     1      46.583   2.598   7.651  0.00  0.00    +0.000 A 
ATOM     20  C   UNL     1      45.671   1.902   8.444  0.00  0.00    +0.000 A 
ATOM     21  C   UNL     1      44.738   2.606   9.217  0.00  0.00    +0.000 A 
ATOM     22  C   UNL     1      44.675   4.006   9.195  0.00  0.00    +0.000 A 
ATOM     23  C   UNL     1      45.615   4.686   8.412  0.00  0.00    +0.000 A 
ATOM     24  C   UNL     1      46.566   3.994   7.648  0.00  0.00    +0.000 A 
BRANCH  19  26
ATOM     25  N   UNL     1      48.191   2.578   5.825  0.00  0.00    +0.000 N 
ATOM     26  C   UNL     1      47.606   1.882   6.847  0.00  0.00    +0.000 C 
ATOM     27  O   UNL     1      47.938   0.732   7.100  0.00  0.00    +0.000 OA
ATOM     28  H   UNL     1      48.952   2.117   5.343  0.00  0.00    +0.000 HD
ATOM     29  H   UNL     1      48.123   3.582   5.743  0.00  0.00    +0.000 HD
ENDBRANCH  19  26
ENDBRANCH  17  22
ENDBRANCH  16  17
ENDBRANCH   1  16
TORSDOF 6
ENDMDL
MODEL 5
REMARK VINA RESULT:    -8.142      1.552      2.190
REMARK INTER + INTRA:         -12.131
REMARK INTER:                 -11.370
REMARK INTRA:                  -0.761
REMARK UNBOUND:                -1.132
REMARK  Name = 
REMARK  6 active torsions:
REMARK  status: ('A' for Active; 'I' for Inactive)
REMARK    1  A    between atoms: C_2  and  C_4
REMARK    2  A    between atoms: C_7  and  N_8
REMARK    3  A    between atoms: N_8  and  C_9
REMARK    4  A    between atoms: C_9  and  C_10
REMARK    5  A    between atoms: C_10  and  C_13
REMARK    6  A    between atoms: C_17  and  C_18
REMARK                            x       y       z     vdW  Elec       q    Type
REMARK                         _______ _______ _______ _____ _____    ______ ____
ROOT
ATOM      1  C   UNL     1      44.612   4.627  12.345  0.00  0.00    +0.000 C 
ATOM      2  F   UNL     1      44.194   4.461  13.634  0.00  0.00    +0.000 F 
ATOM      3  F   UNL     1      45.574   3.675  12.149  0.00  0.00    +0.000 F 
ENDROOT
BRANCH   1   4
ATOM      4  C   UNL     1      45.122   6.033  12.091  0.00  0.00    +0.000 A 
ATOM      5  C   UNL     1      44.249   7.072  11.754  0.00  0.00    +0.000 A 
ATOM      6  C   UNL     1      44.733   8.370  11.601  0.00  0.00    +0.000 A 
ATOM      7  C   UNL     1      46.089   8.643  11.803  0.00  0.00    +0.000 A 
ATOM      8  C   UNL     1      46.994   7.633  12.169  0.00  0.00    +0.000 A 
ATOM      9  C   UNL     1      46.487   6.325  12.282  0.00  0.00    +0.000 A 
BRANCH   8  10
ATOM     10  C   UNL     1      48.406   7.930  12.487  0.00  0.00    +0.000 A 
ATOM     11  C   UNL     1      49.268   8.560  11.577  0.00  0.00    +0.000 A 
ATOM     12  C   UNL     1      50.613   8.756  11.891  0.00  0.00    +0.000 A 
ATOM     13  C   UNL     1      51.070   8.330  13.125  0.00  0.00    +0.000 A 
ATOM     14  N   UNL     1      50.285   7.733  14.042  0.00  0.00    +0.000 NA
ATOM     15  C   UNL     1      48.987   7.546  13.700  0.00  0.00    +0.000 A 
ENDBRANCH   8  10
ENDBRANCH   1   4
BRANCH   1  16
ATOM     16  C   UNL     1      43.431   4.335  11.384  0.00  0.00    +0.000 C 
BRANCH  16  17
ATOM     17  N   UNL     1      43.691   4.682   9.975  0.00  0.00    +0.000 N 
ATOM     18  H   UNL     1      42.860   4.898   9.428  0.00  0.00    +0.000 HD
BRANCH  17  22
ATOM     19  C   UNL     1      46.513   2.521   7.693  0.00  0.00    +0.000 A 
ATOM     20  C   UNL     1      46.500   3.915   7.630  0.00  0.00    +0.000 A 
ATOM     21  C   UNL     1      45.581   4.641   8.399  0.00  0.00    +0.000 A 
ATOM     22  C   UNL     1      44.681   4.001   9.263  0.00  0.00    +0.000 A 
ATOM     23  C   UNL     1      44.693   2.602   9.293  0.00  0.00    +0.000 A 
ATOM     24  C   UNL     1      45.596   1.863   8.515  0.00  0.00    +0.000 A 
BRANCH  19  26
ATOM     25  N   UNL     1      48.566   2.365   6.396  0.00  0.00    +0.000 N 
ATOM     26  C   UNL     1      47.452   1.723   6.866  0.00  0.00    +0.000 C 
ATOM     27  O   UNL     1      47.262   0.537   6.635  0.00  0.00    +0.000 OA
ATOM     28  H   UNL     1      49.246   1.792   5.914  0.00  0.00    +0.000 HD
ATOM     29  H   UNL     1      48.874   3.254   6.761  0.00  0.00    +0.000 HD
ENDBRANCH  19  26
ENDBRANCH  17  22
ENDBRANCH  16  17
ENDBRANCH   1  16
TORSDOF 6
ENDMDL
MODEL 6
REMARK VINA RESULT:    -7.574      2.788      6.698
REMARK INTER + INTRA:         -11.362
REMARK INTER:                 -10.457
REMARK INTRA:                  -0.906
REMARK UNBOUND:                -1.132
REMARK  Name = 
REMARK  6 active torsions:
REMARK  status: ('A' for Active; 'I' for Inactive)
REMARK    1  A    between atoms: C_2  and  C_4
REMARK    2  A    between atoms: C_7  and  N_8
REMARK    3  A    between atoms: N_8  and  C_9
REMARK    4  A    between atoms: C_9  and  C_10
REMARK    5  A    between atoms: C_10  and  C_13
REMARK    6  A    between atoms: C_17  and  C_18
REMARK                            x       y       z     vdW  Elec       q    Type
REMARK                         _______ _______ _______ _____ _____    ______ ____
ROOT
ATOM      1  C   UNL     1      44.429   6.305  11.409  0.00  0.00    +0.000 C 
ATOM      2  F   UNL     1      43.198   6.890  11.318  0.00  0.00    +0.000 F 
ATOM      3  F   UNL     1      45.253   7.067  10.628  0.00  0.00    +0.000 F 
ENDROOT
BRANCH   1   4
ATOM      4  C   UNL     1      44.398   4.850  10.977  0.00  0.00    +0.000 A 
ATOM      5  C   UNL     1      43.512   3.939  11.562  0.00  0.00    +0.000 A 
ATOM      6  C   UNL     1      43.450   2.627  11.095  0.00  0.00    +0.000 A 
ATOM      7  C   UNL     1      44.258   2.222  10.028  0.00  0.00    +0.000 A 
ATOM      8  C   UNL     1      45.141   3.114   9.396  0.00  0.00    +0.000 A 
ATOM      9  C   UNL     1      45.210   4.421   9.910  0.00  0.00    +0.000 A 
BRANCH   8  10
ATOM     10  C   UNL     1      45.920   2.723   8.203  0.00  0.00    +0.000 A 
ATOM     11  C   UNL     1      46.137   3.594   7.125  0.00  0.00    +0.000 A 
ATOM     12  C   UNL     1      46.817   3.161   5.987  0.00  0.00    +0.000 A 
ATOM     13  C   UNL     1      47.287   1.860   5.956  0.00  0.00    +0.000 A 
ATOM     14  N   UNL     1      47.121   0.986   6.967  0.00  0.00    +0.000 NA
ATOM     15  C   UNL     1      46.444   1.435   8.052  0.00  0.00    +0.000 A 
ENDBRANCH   8  10
ENDBRANCH   1   4
BRANCH   1  16
ATOM     16  C   UNL     1      44.928   6.388  12.874  0.00  0.00    +0.000 C 
BRANCH  16  17
ATOM     17  N   UNL     1      45.600   7.653  13.220  0.00  0.00    +0.000 N 
ATOM     18  H   UNL     1      45.008   8.480  13.168  0.00  0.00    +0.000 HD
BRANCH  17  22
ATOM     19  C   UNL     1      49.560   8.147  11.837  0.00  0.00    +0.000 A 
ATOM     20  C   UNL     1      48.660   9.207  11.735  0.00  0.00    +0.000 A 
ATOM     21  C   UNL     1      47.349   9.059  12.210  0.00  0.00    +0.000 A 
ATOM     22  C   UNL     1      46.920   7.871  12.817  0.00  0.00    +0.000 A 
ATOM     23  C   UNL     1      47.830   6.811  12.887  0.00  0.00    +0.000 A 
ATOM     24  C   UNL     1      49.140   6.940  12.400  0.00  0.00    +0.000 A 
BRANCH  19  26
ATOM     25  N   UNL     1      51.586   7.095  10.993  0.00  0.00    +0.000 N 
ATOM     26  C   UNL     1      50.945   8.261  11.313  0.00  0.00    +0.000 C 
ATOM     27  O   UNL     1      51.484   9.345  11.143  0.00  0.00    +0.000 OA
ATOM     28  H   UNL     1      52.491   7.185  10.550  0.00  0.00    +0.000 HD
ATOM     29  H   UNL     1      51.097   6.218  10.889  0.00  0.00    +0.000 HD
ENDBRANCH  19  26
ENDBRANCH  17  22
ENDBRANCH  16  17
ENDBRANCH   1  16
TORSDOF 6
ENDMDL
MODEL 7
REMARK VINA RESULT:    -7.551      3.552      7.265
REMARK INTER + INTRA:         -11.332
REMARK INTER:                 -10.258
REMARK INTRA:                  -1.074
REMARK UNBOUND:                -1.132
REMARK  Name = 
REMARK  6 active torsions:
REMARK  status: ('A' for Active; 'I' for Inactive)
REMARK    1  A    between atoms: C_2  and  C_4
REMARK    2  A    between atoms: C_7  and  N_8
REMARK    3  A    between atoms: N_8  and  C_9
REMARK    4  A    between atoms: C_9  and  C_10
REMARK    5  A    between atoms: C_10  and  C_13
REMARK    6  A    between atoms: C_17  and  C_18
REMARK                            x       y       z     vdW  Elec       q    Type
REMARK                         _______ _______ _______ _____ _____    ______ ____
ROOT
ATOM      1  C   UNL     1      45.711   7.423  11.978  0.00  0.00    +0.000 C 
ATOM      2  F   UNL     1      45.257   7.769  13.218  0.00  0.00    +0.000 F 
ATOM      3  F   UNL     1      45.529   8.534  11.201  0.00  0.00    +0.000 F 
ENDROOT
BRANCH   1   4
ATOM      4  C   UNL     1      44.989   6.205  11.431  0.00  0.00    +0.000 A 
ATOM      5  C   UNL     1      43.656   5.941  11.762  0.00  0.00    +0.000 A 
ATOM      6  C   UNL     1      42.994   4.858  11.187  0.00  0.00    +0.000 A 
ATOM      7  C   UNL     1      43.652   4.043  10.261  0.00  0.00    +0.000 A 
ATOM      8  C   UNL     1      44.982   4.290   9.881  0.00  0.00    +0.000 A 
ATOM      9  C   UNL     1      45.639   5.367  10.503  0.00  0.00    +0.000 A 
BRANCH   8  10
ATOM     10  C   UNL     1      45.651   3.499   8.827  0.00  0.00    +0.000 A 
ATOM     11  C   UNL     1      46.221   4.087   7.689  0.00  0.00    +0.000 A 
ATOM     12  C   UNL     1      46.779   3.297   6.684  0.00  0.00    +0.000 A 
ATOM     13  C   UNL     1      46.770   1.923   6.846  0.00  0.00    +0.000 A 
ATOM     14  N   UNL     1      46.250   1.305   7.924  0.00  0.00    +0.000 NA
ATOM     15  C   UNL     1      45.704   2.102   8.875  0.00  0.00    +0.000 A 
ENDBRANCH   8  10
ENDBRANCH   1   4
BRANCH   1  16
ATOM     16  C   UNL     1      47.229   7.121  12.055  0.00  0.00    +0.000 C 
BRANCH  16  17
ATOM     17  N   UNL     1      47.837   7.381  13.372  0.00  0.00    +0.000 N 
ATOM     18  H   UNL     1      48.655   7.987  13.353  0.00  0.00    +0.000 HD
BRANCH  17  22
ATOM     19  C   UNL     1      47.950   4.430  16.392  0.00  0.00    +0.000 A 
ATOM     20  C   UNL     1      47.192   4.208  15.242  0.00  0.00    +0.000 A 
ATOM     21  C   UNL     1      47.165   5.173  14.226  0.00  0.00    +0.000 A 
ATOM     22  C   UNL     1      47.909   6.357  14.319  0.00  0.00    +0.000 A 
ATOM     23  C   UNL     1      48.643   6.572  15.491  0.00  0.00    +0.000 A 
ATOM     24  C   UNL     1      48.665   5.623  16.523  0.00  0.00    +0.000 A 
BRANCH  19  26
ATOM     25  N   UNL     1      46.845   2.690  17.685  0.00  0.00    +0.000 N 
ATOM     26  C   UNL     1      47.973   3.443  17.500  0.00  0.00    +0.000 C 
ATOM     27  O   UNL     1      48.961   3.282  18.202  0.00  0.00    +0.000 OA
ATOM     28  H   UNL     1      46.901   1.957  18.379  0.00  0.00    +0.000 HD
ATOM     29  H   UNL     1      46.118   2.623  16.988  0.00  0.00    +0.000 HD
ENDBRANCH  19  26
ENDBRANCH  17  22
ENDBRANCH  16  17
ENDBRANCH   1  16
TORSDOF 6
ENDMDL
MODEL 8
REMARK VINA RESULT:    -6.980      4.186      7.589
REMARK INTER + INTRA:         -10.561
REMARK INTER:                  -9.306
REMARK INTRA:                  -1.256
REMARK UNBOUND:                -1.132
REMARK  Name = 
REMARK  6 active torsions:
REMARK  status: ('A' for Active; 'I' for Inactive)
REMARK    1  A    between atoms: C_2  and  C_4
REMARK    2  A    between atoms: C_7  and  N_8
REMARK    3  A    between atoms: N_8  and  C_9
REMARK    4  A    between atoms: C_9  and  C_10
REMARK    5  A    between atoms: C_10  and  C_13
REMARK    6  A    between atoms: C_17  and  C_18
REMARK                            x       y       z     vdW  Elec       q    Type
REMARK                         _______ _______ _______ _____ _____    ______ ____
ROOT
ATOM      1  C   UNL     1      49.056   8.221  12.038  0.00  0.00    +0.000 C 
ATOM      2  F   UNL     1      49.245   9.557  12.245  0.00  0.00    +0.000 F 
ATOM      3  F   UNL     1      49.692   7.941  10.861  0.00  0.00    +0.000 F 
ENDROOT
BRANCH   1   4
ATOM      4  C   UNL     1      47.583   7.857  12.006  0.00  0.00    +0.000 A 
ATOM      5  C   UNL     1      46.612   8.712  12.538  0.00  0.00    +0.000 A 
ATOM      6  C   UNL     1      45.261   8.390  12.428  0.00  0.00    +0.000 A 
ATOM      7  C   UNL     1      44.868   7.221  11.769  0.00  0.00    +0.000 A 
ATOM      8  C   UNL     1      45.810   6.349  11.197  0.00  0.00    +0.000 A 
ATOM      9  C   UNL     1      47.169   6.679  11.354  0.00  0.00    +0.000 A 
BRANCH   8  10
ATOM     10  C   UNL     1      45.402   5.168  10.409  0.00  0.00    +0.000 A 
ATOM     11  C   UNL     1      45.727   5.015   9.054  0.00  0.00    +0.000 A 
ATOM     12  C   UNL     1      45.260   3.918   8.330  0.00  0.00    +0.000 A 
ATOM     13  C   UNL     1      44.482   2.980   8.985  0.00  0.00    +0.000 A 
ATOM     14  N   UNL     1      44.151   3.068  10.287  0.00  0.00    +0.000 NA
ATOM     15  C   UNL     1      44.611   4.152  10.957  0.00  0.00    +0.000 A 
ENDBRANCH   8  10
ENDBRANCH   1   4
BRANCH   1  16
ATOM     16  C   UNL     1      49.750   7.424  13.173  0.00  0.00    +0.000 C 
BRANCH  16  17
ATOM     17  N   UNL     1      49.294   7.772  14.530  0.00  0.00    +0.000 N 
ATOM     18  H   UNL     1      49.844   8.492  14.995  0.00  0.00    +0.000 HD
BRANCH  17  22
ATOM     19  C   UNL     1      47.975   4.583  16.965  0.00  0.00    +0.000 A 
ATOM     20  C   UNL     1      48.938   5.466  17.452  0.00  0.00    +0.000 A 
ATOM     21  C   UNL     1      49.367   6.539  16.659  0.00  0.00    +0.000 A 
ATOM     22  C   UNL     1      48.829   6.770  15.386  0.00  0.00    +0.000 A 
ATOM     23  C   UNL     1      47.883   5.859  14.905  0.00  0.00    +0.000 A 
ATOM     24  C   UNL     1      47.458   4.770  15.681  0.00  0.00    +0.000 A 
BRANCH  19  26
ATOM     25  N   UNL     1      48.286   3.080  18.853  0.00  0.00    +0.000 N 
ATOM     26  C   UNL     1      47.525   3.417  17.767  0.00  0.00    +0.000 C 
ATOM     27  O   UNL     1      46.504   2.801  17.495  0.00  0.00    +0.000 OA
ATOM     28  H   UNL     1      47.922   2.346  19.447  0.00  0.00    +0.000 HD
ATOM     29  H   UNL     1      48.980   3.700  19.243  0.00  0.00    +0.000 HD
ENDBRANCH  19  26
ENDBRANCH  17  22
ENDBRANCH  16  17
ENDBRANCH   1  16
TORSDOF 6
ENDMDL
MODEL 9
REMARK VINA RESULT:    -6.543      5.945      7.630
REMARK INTER + INTRA:          -9.970
REMARK INTER:                  -9.253
REMARK INTRA:                  -0.717
REMARK UNBOUND:                -1.132
REMARK  Name = 
REMARK  6 active torsions:
REMARK  status: ('A' for Active; 'I' for Inactive)
REMARK    1  A    between atoms: C_2  and  C_4
REMARK    2  A    between atoms: C_7  and  N_8
REMARK    3  A    between atoms: N_8  and  C_9
REMARK    4  A    between atoms: C_9  and  C_10
REMARK    5  A    between atoms: C_10  and  C_13
REMARK    6  A    between atoms: C_17  and  C_18
REMARK                            x       y       z     vdW  Elec       q    Type
REMARK                         _______ _______ _______ _____ _____    ______ ____
ROOT
ATOM      1  C   UNL     1      47.876   3.492  16.541  0.00  0.00    +0.000 C 
ATOM      2  F   UNL     1      46.815   3.242  17.363  0.00  0.00    +0.000 F 
ATOM      3  F   UNL     1      48.060   2.343  15.824  0.00  0.00    +0.000 F 
ENDROOT
BRANCH   1   4
ATOM      4  C   UNL     1      49.113   3.897  17.322  0.00  0.00    +0.000 A 
ATOM      5  C   UNL     1      49.114   5.028  18.145  0.00  0.00    +0.000 A 
ATOM      6  C   UNL     1      50.238   5.335  18.910  0.00  0.00    +0.000 A 
ATOM      7  C   UNL     1      51.361   4.503  18.875  0.00  0.00    +0.000 A 
ATOM      8  C   UNL     1      51.389   3.342  18.083  0.00  0.00    +0.000 A 
ATOM      9  C   UNL     1      50.257   3.075  17.292  0.00  0.00    +0.000 A 
BRANCH   8  10
ATOM     10  C   UNL     1      52.529   2.403  18.119  0.00  0.00    +0.000 A 
ATOM     11  C   UNL     1      52.473   1.126  17.541  0.00  0.00    +0.000 A 
ATOM     12  C   UNL     1      53.547   0.244  17.661  0.00  0.00    +0.000 A 
ATOM     13  C   UNL     1      54.672   0.665  18.347  0.00  0.00    +0.000 A 
ATOM     14  N   UNL     1      54.787   1.884  18.909  0.00  0.00    +0.000 NA
ATOM     15  C   UNL     1      53.720   2.711  18.785  0.00  0.00    +0.000 A 
ENDBRANCH   8  10
ENDBRANCH   1   4
BRANCH   1  16
ATOM     16  C   UNL     1      47.504   4.631  15.557  0.00  0.00    +0.000 C 
BRANCH  16  17
ATOM     17  N   UNL     1      46.173   4.493  14.940  0.00  0.00    +0.000 N 
ATOM     18  H   UNL     1      45.572   3.793  15.371  0.00  0.00    +0.000 HD
BRANCH  17  22
ATOM     19  C   UNL     1      45.525   4.752  10.774  0.00  0.00    +0.000 A 
ATOM     20  C   UNL     1      46.079   5.838  11.452  0.00  0.00    +0.000 A 
ATOM     21  C   UNL     1      46.316   5.754  12.831  0.00  0.00    +0.000 A 
ATOM     22  C   UNL     1      46.036   4.586  13.553  0.00  0.00    +0.000 A 
ATOM     23  C   UNL     1      45.458   3.517  12.860  0.00  0.00    +0.000 A 
ATOM     24  C   UNL     1      45.198   3.594  11.483  0.00  0.00    +0.000 A 
BRANCH  19  26
ATOM     25  N   UNL     1      43.987   4.418   8.919  0.00  0.00    +0.000 N 
ATOM     26  C   UNL     1      45.231   4.822   9.321  0.00  0.00    +0.000 C 
ATOM     27  O   UNL     1      46.046   5.250   8.516  0.00  0.00    +0.000 OA
ATOM     28  H   UNL     1      43.761   4.557   7.943  0.00  0.00    +0.000 HD
ATOM     29  H   UNL     1      43.221   4.295   9.565  0.00  0.00    +0.000 HD
ENDBRANCH  19  26
ENDBRANCH  17  22
ENDBRANCH  16  17
ENDBRANCH   1  16
TORSDOF 6
ENDMDL
