MODEL 1
REMARK VINA RESULT:    -7.850      0.000      0.000
REMARK INTER + INTRA:         -10.729
REMARK INTER:                 -10.144
REMARK INTRA:                  -0.584
REMARK UNBOUND:                -0.584
REMARK  Name = 
REMARK  5 active torsions:
REMARK  status: ('A' for Active; 'I' for Inactive)
REMARK    1  A    between atoms: C_2  and  C_3
REMARK    2  A    between atoms: C_6  and  N_7
REMARK    3  A    between atoms: N_7  and  C_8
REMARK    4  A    between atoms: C_8  and  C_9
REMARK    5  A    between atoms: C_13  and  C_14
REMARK                            x       y       z     vdW  Elec       q    Type
REMARK                         _______ _______ _______ _____ _____    ______ ____
ROOT
ATOM      1  C   UNL     1      44.958   4.950  11.877  0.00  0.00    +0.000 A 
ATOM      2  C   UNL     1      45.457   4.123  12.888  0.00  0.00    +0.000 A 
ATOM      3  C   UNL     1      46.600   4.491  13.594  0.00  0.00    +0.000 A 
ATOM      4  C   UNL     1      47.245   5.698  13.311  0.00  0.00    +0.000 A 
ATOM      5  C   UNL     1      46.770   6.567  12.313  0.00  0.00    +0.000 A 
ATOM      6  C   UNL     1      45.634   6.154  11.590  0.00  0.00    +0.000 A 
ENDROOT
BRANCH   5   7
ATOM      7  C   UNL     1      47.393   7.887  12.079  0.00  0.00    +0.000 A 
ATOM      8  C   UNL     1      46.720   9.092  12.317  0.00  0.00    +0.000 A 
ATOM      9  N   UNL     1      47.254  10.333  12.166  0.00  0.00    +0.000 NA
ATOM     10  C   UNL     1      48.537  10.389  11.745  0.00  0.00    +0.000 A 
ATOM     11  C   UNL     1      49.292   9.266  11.471  0.00  0.00    +0.000 A 
ATOM     12  F   UNL     1      50.561   9.379  11.062  0.00  0.00    +0.000 F 
ATOM     13  C   UNL     1      48.721   8.010  11.639  0.00  0.00    +0.000 A 
ENDBRANCH   5   7
BRANCH   1  14
ATOM     14  C   UNL     1      43.646   4.635  11.192  0.00  0.00    +0.000 C 
BRANCH  14  15
ATOM     15  N   UNL     1      43.792   4.677   9.755  0.00  0.00    +0.000 N 
ATOM     16  H   UNL     1      43.513   5.528   9.277  0.00  0.00    +0.000 HD
BRANCH  15  20
ATOM     17  C   UNL     1      46.587   2.688   7.517  0.00  0.00    +0.000 A 
ATOM     18  C   UNL     1      46.434   4.063   7.474  0.00  0.00    +0.000 A 
ATOM     19  N   UNL     1      45.532   4.730   8.248  0.00  0.00    +0.000 NA
ATOM     20  C   UNL     1      44.753   3.985   9.059  0.00  0.00    +0.000 A 
ATOM     21  C   UNL     1      44.915   2.596   9.076  0.00  0.00    +0.000 A 
ATOM     22  N   UNL     1      45.829   1.918   8.329  0.00  0.00    +0.000 NA
BRANCH  17  24
ATOM     23  N   UNL     1      48.357   1.526   6.023  0.00  0.00    +0.000 NA
ATOM     24  C   UNL     1      47.559   2.024   6.700  0.00  0.00    +0.000 C 
ENDBRANCH  17  24
ENDBRANCH  15  20
ENDBRANCH  14  15
ENDBRANCH   1  14
TORSDOF 5
ENDMDL
MODEL 2
REMARK VINA RESULT:    -7.829      2.845      3.973
REMARK INTER + INTRA:         -10.702
REMARK INTER:                 -10.215
REMARK INTRA:                  -0.487
REMARK UNBOUND:                -0.584
REMARK  Name = 
REMARK  5 active torsions:
REMARK  status: ('A' for Active; 'I' for Inactive)
REMARK    1  A    between atoms: C_2  and  C_3
REMARK    2  A    between atoms: C_6  and  N_7
REMARK    3  A    between atoms: N_7  and  C_8
REMARK    4  A    between atoms: C_8  and  C_9
REMARK    5  A    between atoms: C_13  and  C_14
REMARK                            x       y       z     vdW  Elec       q    Type
REMARK                         _______ _______ _______ _____ _____    ______ ____
ROOT
ATOM      1  C   UNL     1      44.987   5.512  11.982  0.00  0.00    +0.000 A 
ATOM      2  C   UNL     1      45.474   6.628  11.293  0.00  0.00    +0.000 A 
ATOM      3  C   UNL     1      46.571   7.331  11.785  0.00  0.00    +0.000 A 
ATOM      4  C   UNL     1      47.205   6.915  12.960  0.00  0.00    +0.000 A 
ATOM      5  C   UNL     1      46.758   5.791  13.676  0.00  0.00    +0.000 A 
ATOM      6  C   UNL     1      45.626   5.119  13.176  0.00  0.00    +0.000 A 
ENDROOT
BRANCH   5   7
ATOM      7  C   UNL     1      47.486   5.294  14.863  0.00  0.00    +0.000 A 
ATOM      8  C   UNL     1      48.542   6.002  15.452  0.00  0.00    +0.000 A 
ATOM      9  N   UNL     1      49.217   5.620  16.568  0.00  0.00    +0.000 NA
ATOM     10  C   UNL     1      48.829   4.457  17.138  0.00  0.00    +0.000 A 
ATOM     11  C   UNL     1      47.808   3.674  16.638  0.00  0.00    +0.000 A 
ATOM     12  F   UNL     1      47.460   2.534  17.246  0.00  0.00    +0.000 F 
ATOM     13  C   UNL     1      47.132   4.092  15.497  0.00  0.00    +0.000 A 
ENDBRANCH   5   7
BRANCH   1  14
ATOM     14  C   UNL     1      43.885   4.657  11.394  0.00  0.00    +0.000 C 
BRANCH  14  15
ATOM     15  N   UNL     1      43.938   4.669   9.951  0.00  0.00    +0.000 N 
ATOM     16  H   UNL     1      43.616   5.505   9.473  0.00  0.00    +0.000 HD
BRANCH  15  20
ATOM     17  C   UNL     1      46.620   2.676   7.581  0.00  0.00    +0.000 A 
ATOM     18  C   UNL     1      46.463   4.051   7.541  0.00  0.00    +0.000 A 
ATOM     19  N   UNL     1      45.600   4.719   8.358  0.00  0.00    +0.000 NA
ATOM     20  C   UNL     1      44.864   3.976   9.210  0.00  0.00    +0.000 A 
ATOM     21  C   UNL     1      45.029   2.587   9.223  0.00  0.00    +0.000 A 
ATOM     22  N   UNL     1      45.905   1.908   8.433  0.00  0.00    +0.000 NA
BRANCH  17  24
ATOM     23  N   UNL     1      48.328   1.508   6.021  0.00  0.00    +0.000 NA
ATOM     24  C   UNL     1      47.551   2.011   6.718  0.00  0.00    +0.000 C 
ENDBRANCH  17  24
ENDBRANCH  15  20
ENDBRANCH  14  15
ENDBRANCH   1  14
TORSDOF 5
ENDMDL
MODEL 3
REMARK VINA RESULT:    -7.628      3.714      7.200
REMARK INTER + INTRA:         -10.442
REMARK INTER:                  -9.945
REMARK INTRA:                  -0.496
REMARK UNBOUND:                -0.584
REMARK  Name = 
REMARK  5 active torsions:
REMARK  status: ('A' for Active; 'I' for Inactive)
REMARK    1  A    between atoms: C_2  and  C_3
REMARK    2  A    between atoms: C_6  and  N_7
REMARK    3  A    between atoms: N_7  and  C_8
REMARK    4  A    between atoms: C_8  and  C_9
REMARK    5  A    between atoms: C_13  and  C_14
REMARK                            x       y       z     vdW  Elec       q    Type
REMARK                         _______ _______ _______ _____ _____    ______ ____
ROOT
ATOM      1  C   UNL     1      45.402   6.285  11.059  0.00  0.00    +0.000 A 
ATOM      2  C   UNL     1      44.064   6.118  11.435  0.00  0.00    +0.000 A 
ATOM      3  C   UNL     1      43.280   5.145  10.821  0.00  0.00    +0.000 A 
ATOM      4  C   UNL     1      43.829   4.314   9.839  0.00  0.00    +0.000 A 
ATOM      5  C   UNL     1      45.172   4.437   9.442  0.00  0.00    +0.000 A 
ATOM      6  C   UNL     1      45.932   5.451  10.053  0.00  0.00    +0.000 A 
ENDROOT
BRANCH   5   7
ATOM      7  C   UNL     1      45.778   3.496   8.476  0.00  0.00    +0.000 A 
ATOM      8  C   UNL     1      46.426   3.925   7.310  0.00  0.00    +0.000 A 
ATOM      9  N   UNL     1      47.041   3.113   6.409  0.00  0.00    +0.000 NA
ATOM     10  C   UNL     1      47.011   1.788   6.674  0.00  0.00    +0.000 A 
ATOM     11  C   UNL     1      46.393   1.254   7.787  0.00  0.00    +0.000 A 
ATOM     12  F   UNL     1      46.397  -0.066   8.004  0.00  0.00    +0.000 F 
ATOM     13  C   UNL     1      45.775   2.109   8.693  0.00  0.00    +0.000 A 
ENDBRANCH   5   7
BRANCH   1  14
ATOM     14  C   UNL     1      46.305   7.242  11.807  0.00  0.00    +0.000 C 
BRANCH  14  15
ATOM     15  N   UNL     1      47.429   6.543  12.385  0.00  0.00    +0.000 N 
ATOM     16  H   UNL     1      48.355   6.933  12.236  0.00  0.00    +0.000 HD
BRANCH  15  20
ATOM     17  C   UNL     1      47.419   4.303  15.815  0.00  0.00    +0.000 A 
ATOM     18  C   UNL     1      48.171   5.457  15.677  0.00  0.00    +0.000 A 
ATOM     19  N   UNL     1      48.144   6.225  14.551  0.00  0.00    +0.000 NA
ATOM     20  C   UNL     1      47.362   5.799  13.538  0.00  0.00    +0.000 A 
ATOM     21  C   UNL     1      46.622   4.622  13.694  0.00  0.00    +0.000 A 
ATOM     22  N   UNL     1      46.618   3.859  14.821  0.00  0.00    +0.000 NA
BRANCH  17  24
ATOM     23  N   UNL     1      47.504   2.871  17.973  0.00  0.00    +0.000 NA
ATOM     24  C   UNL     1      47.461   3.531  17.021  0.00  0.00    +0.000 C 
ENDBRANCH  17  24
ENDBRANCH  15  20
ENDBRANCH  14  15
ENDBRANCH   1  14
TORSDOF 5
ENDMDL
MODEL 4
REMARK VINA RESULT:    -7.420      2.815      6.925
REMARK INTER + INTRA:         -10.174
REMARK INTER:                  -9.590
REMARK INTRA:                  -0.584
REMARK UNBOUND:                -0.584
REMARK  Name = 
REMARK  5 active torsions:
REMARK  status: ('A' for Active; 'I' for Inactive)
REMARK    1  A    between atoms: C_2  and  C_3
REMARK    2  A    between atoms: C_6  and  N_7
REMARK    3  A    between atoms: N_7  and  C_8
REMARK    4  A    between atoms: C_8  and  C_9
REMARK    5  A    between atoms: C_13  and  C_14
REMARK                            x       y       z     vdW  Elec       q    Type
REMARK                         _______ _______ _______ _____ _____    ______ ____
ROOT
ATOM      1  C   UNL     1      43.903   5.014  10.776  0.00  0.00    +0.000 A 
ATOM      2  C   UNL     1      43.300   4.088  11.634  0.00  0.00    +0.000 A 
ATOM      3  C   UNL     1      43.419   2.722  11.387  0.00  0.00    +0.000 A 
ATOM      4  C   UNL     1      44.158   2.267  10.291  0.00  0.00    +0.000 A 
ATOM      5  C   UNL     1      44.792   3.162   9.411  0.00  0.00    +0.000 A 
ATOM      6  C   UNL     1      44.627   4.537   9.664  0.00  0.00    +0.000 A 
ENDROOT
BRANCH   5   7
ATOM      7  C   UNL     1      45.653   2.680   8.310  0.00  0.00    +0.000 A 
ATOM      8  C   UNL     1      46.210   1.395   8.294  0.00  0.00    +0.000 A 
ATOM      9  N   UNL     1      46.970   0.880   7.291  0.00  0.00    +0.000 NA
ATOM     10  C   UNL     1      47.199   1.690   6.234  0.00  0.00    +0.000 A 
ATOM     11  C   UNL     1      46.708   2.977   6.147  0.00  0.00    +0.000 A 
ATOM     12  F   UNL     1      46.961   3.735   5.074  0.00  0.00    +0.000 F 
ATOM     13  C   UNL     1      45.931   3.476   7.186  0.00  0.00    +0.000 A 
ENDBRANCH   5   7
BRANCH   1  14
ATOM     14  C   UNL     1      43.899   6.492  11.103  0.00  0.00    +0.000 C 
BRANCH  14  15
ATOM     15  N   UNL     1      44.232   6.713  12.491  0.00  0.00    +0.000 N 
ATOM     16  H   UNL     1      43.606   6.330  13.193  0.00  0.00    +0.000 HD
BRANCH  15  20
ATOM     17  C   UNL     1      48.097   7.231  13.745  0.00  0.00    +0.000 A 
ATOM     18  C   UNL     1      47.236   8.290  13.517  0.00  0.00    +0.000 A 
ATOM     19  N   UNL     1      45.938   8.118  13.139  0.00  0.00    +0.000 NA
ATOM     20  C   UNL     1      45.515   6.849  12.962  0.00  0.00    +0.000 A 
ATOM     21  C   UNL     1      46.407   5.794  13.184  0.00  0.00    +0.000 A 
ATOM     22  N   UNL     1      47.698   5.950  13.587  0.00  0.00    +0.000 NA
BRANCH  17  24
ATOM     23  N   UNL     1      50.557   7.592  14.475  0.00  0.00    +0.000 NA
ATOM     24  C   UNL     1      49.451   7.452  14.158  0.00  0.00    +0.000 C 
ENDBRANCH  17  24
ENDBRANCH  15  20
ENDBRANCH  14  15
ENDBRANCH   1  14
TORSDOF 5
ENDMDL
MODEL 5
REMARK VINA RESULT:    -7.086      1.484      2.056
REMARK INTER + INTRA:          -9.742
REMARK INTER:                  -9.108
REMARK INTRA:                  -0.634
REMARK UNBOUND:                -0.584
REMARK  Name = 
REMARK  5 active torsions:
REMARK  status: ('A' for Active; 'I' for Inactive)
REMARK    1  A    between atoms: C_2  and  C_3
REMARK    2  A    between atoms: C_6  and  N_7
REMARK    3  A    between atoms: N_7  and  C_8
REMARK    4  A    between atoms: C_8  and  C_9
REMARK    5  A    between atoms: C_13  and  C_14
REMARK                            x       y       z     vdW  Elec       q    Type
REMARK                         _______ _______ _______ _____ _____    ______ ____
ROOT
ATOM      1  C   UNL     1      44.579   5.292  11.779  0.00  0.00    +0.000 A 
ATOM      2  C   UNL     1      43.749   6.341  11.370  0.00  0.00    +0.000 A 
ATOM      3  C   UNL     1      44.197   7.658  11.445  0.00  0.00    +0.000 A 
ATOM      4  C   UNL     1      45.484   7.939  11.911  0.00  0.00    +0.000 A 
ATOM      5  C   UNL     1      46.356   6.915  12.319  0.00  0.00    +0.000 A 
ATOM      6  C   UNL     1      45.867   5.595  12.266  0.00  0.00    +0.000 A 
ENDROOT
BRANCH   5   7
ATOM      7  C   UNL     1      47.750   7.203  12.719  0.00  0.00    +0.000 A 
ATOM      8  C   UNL     1      48.276   6.814  13.959  0.00  0.00    +0.000 A 
ATOM      9  N   UNL     1      49.559   7.009  14.364  0.00  0.00    +0.000 NA
ATOM     10  C   UNL     1      50.377   7.636  13.490  0.00  0.00    +0.000 A 
ATOM     11  C   UNL     1      49.964   8.070  12.246  0.00  0.00    +0.000 A 
ATOM     12  F   UNL     1      50.819   8.681  11.417  0.00  0.00    +0.000 F 
ATOM     13  C   UNL     1      48.648   7.853  11.857  0.00  0.00    +0.000 A 
ENDBRANCH   5   7
BRANCH   1  14
ATOM     14  C   UNL     1      44.164   3.850  11.579  0.00  0.00    +0.000 C 
BRANCH  14  15
ATOM     15  N   UNL     1      43.921   3.574  10.182  0.00  0.00    +0.000 N 
ATOM     16  H   UNL     1      43.189   4.102   9.716  0.00  0.00    +0.000 HD
BRANCH  15  20
ATOM     17  C   UNL     1      46.695   2.369   7.420  0.00  0.00    +0.000 A 
ATOM     18  C   UNL     1      46.296   3.687   7.553  0.00  0.00    +0.000 A 
ATOM     19  N   UNL     1      45.403   4.096   8.499  0.00  0.00    +0.000 NA
ATOM     20  C   UNL     1      44.886   3.144   9.304  0.00  0.00    +0.000 A 
ATOM     21  C   UNL     1      45.293   1.816   9.141  0.00  0.00    +0.000 A 
ATOM     22  N   UNL     1      46.203   1.397   8.220  0.00  0.00    +0.000 NA
BRANCH  17  24
ATOM     23  N   UNL     1      48.451   1.659   5.650  0.00  0.00    +0.000 NA
ATOM     24  C   UNL     1      47.650   1.980   6.424  0.00  0.00    +0.000 C 
ENDBRANCH  17  24
ENDBRANCH  15  20
ENDBRANCH  14  15
ENDBRANCH   1  14
TORSDOF 5
ENDMDL
MODEL 6
REMARK VINA RESULT:    -6.651      2.800      6.866
REMARK INTER + INTRA:          -9.179
REMARK INTER:                  -8.637
REMARK INTRA:                  -0.542
REMARK UNBOUND:                -0.584
REMARK  Name = 
REMARK  5 active torsions:
REMARK  status: ('A' for Active; 'I' for Inactive)
REMARK    1  A    between atoms: C_2  and  C_3
REMARK    2  A    between atoms: C_6  and  N_7
REMARK    3  A    between atoms: N_7  and  C_8
REMARK    4  A    between atoms: C_8  and  C_9
REMARK    5  A    between atoms: C_13  and  C_14
REMARK                            x       y       z     vdW  Elec       q    Type
REMARK                         _______ _______ _______ _____ _____    ______ ____
ROOT
ATOM      1  C   UNL     1      44.963   4.374  12.424  0.00  0.00    +0.000 A 
ATOM      2  C   UNL     1      43.827   3.640  12.781  0.00  0.00    +0.000 A 
ATOM      3  C   UNL     1      43.237   2.773  11.864  0.00  0.00    +0.000 A 
ATOM      4  C   UNL     1      43.786   2.616  10.588  0.00  0.00    +0.000 A 
ATOM      5  C   UNL     1      44.935   3.324  10.192  0.00  0.00    +0.000 A 
ATOM      6  C   UNL     1      45.491   4.219  11.125  0.00  0.00    +0.000 A 
ENDROOT
BRANCH   5   7
ATOM      7  C   UNL     1      45.572   3.086   8.879  0.00  0.00    +0.000 A 
ATOM      8  C   UNL     1      45.840   4.119   7.972  0.00  0.00    +0.000 A 
ATOM      9  N   UNL     1      46.464   3.970   6.773  0.00  0.00    +0.000 NA
ATOM     10  C   UNL     1      46.844   2.716   6.444  0.00  0.00    +0.000 A 
ATOM     11  C   UNL     1      46.622   1.622   7.257  0.00  0.00    +0.000 A 
ATOM     12  F   UNL     1      47.024   0.400   6.884  0.00  0.00    +0.000 F 
ATOM     13  C   UNL     1      45.986   1.805   8.479  0.00  0.00    +0.000 A 
ENDBRANCH   5   7
BRANCH   1  14
ATOM     14  C   UNL     1      45.696   5.216  13.446  0.00  0.00    +0.000 C 
BRANCH  14  15
ATOM     15  N   UNL     1      45.472   6.624  13.210  0.00  0.00    +0.000 N 
ATOM     16  H   UNL     1      44.773   7.092  13.779  0.00  0.00    +0.000 HD
BRANCH  15  20
ATOM     17  C   UNL     1      48.481   9.099  11.946  0.00  0.00    +0.000 A 
ATOM     18  C   UNL     1      48.448   7.748  11.647  0.00  0.00    +0.000 A 
ATOM     19  N   UNL     1      47.427   6.931  12.033  0.00  0.00    +0.000 NA
ATOM     20  C   UNL     1      46.436   7.491  12.758  0.00  0.00    +0.000 A 
ATOM     21  C   UNL     1      46.497   8.855  13.060  0.00  0.00    +0.000 A 
ATOM     22  N   UNL     1      47.496   9.688  12.660  0.00  0.00    +0.000 NA
BRANCH  17  24
ATOM     23  N   UNL     1      50.411  10.625  11.133  0.00  0.00    +0.000 NA
ATOM     24  C   UNL     1      49.564   9.929  11.508  0.00  0.00    +0.000 C 
ENDBRANCH  17  24
ENDBRANCH  15  20
ENDBRANCH  14  15
ENDBRANCH   1  14
TORSDOF 5
ENDMDL
MODEL 7
REMARK VINA RESULT:    -6.572      5.046      7.674
REMARK INTER + INTRA:          -9.077
REMARK INTER:                  -8.472
REMARK INTRA:                  -0.604
REMARK UNBOUND:                -0.584
REMARK  Name = 
REMARK  5 active torsions:
REMARK  status: ('A' for Active; 'I' for Inactive)
REMARK    1  A    between atoms: C_2  and  C_3
REMARK    2  A    between atoms: C_6  and  N_7
REMARK    3  A    between atoms: N_7  and  C_8
REMARK    4  A    between atoms: C_8  and  C_9
REMARK    5  A    between atoms: C_13  and  C_14
REMARK                            x       y       z     vdW  Elec       q    Type
REMARK                         _______ _______ _______ _____ _____    ______ ____
ROOT
ATOM      1  C   UNL     1      48.250   6.656  14.295  0.00  0.00    +0.000 A 
ATOM      2  C   UNL     1      48.857   7.581  13.438  0.00  0.00    +0.000 A 
ATOM      3  C   UNL     1      48.440   7.688  12.114  0.00  0.00    +0.000 A 
ATOM      4  C   UNL     1      47.399   6.886  11.636  0.00  0.00    +0.000 A 
ATOM      5  C   UNL     1      46.752   5.953  12.465  0.00  0.00    +0.000 A 
ATOM      6  C   UNL     1      47.216   5.841  13.790  0.00  0.00    +0.000 A 
ENDROOT
BRANCH   5   7
ATOM      7  C   UNL     1      45.589   5.175  11.988  0.00  0.00    +0.000 A 
ATOM      8  C   UNL     1      44.720   4.506  12.860  0.00  0.00    +0.000 A 
ATOM      9  N   UNL     1      43.610   3.814  12.486  0.00  0.00    +0.000 NA
ATOM     10  C   UNL     1      43.343   3.776  11.162  0.00  0.00    +0.000 A 
ATOM     11  C   UNL     1      44.136   4.391  10.213  0.00  0.00    +0.000 A 
ATOM     12  F   UNL     1      43.822   4.326   8.914  0.00  0.00    +0.000 F 
ATOM     13  C   UNL     1      45.261   5.095  10.625  0.00  0.00    +0.000 A 
ENDBRANCH   5   7
BRANCH   1  14
ATOM     14  C   UNL     1      48.595   6.619  15.768  0.00  0.00    +0.000 C 
BRANCH  14  15
ATOM     15  N   UNL     1      48.113   5.402  16.379  0.00  0.00    +0.000 N 
ATOM     16  H   UNL     1      47.165   5.107  16.162  0.00  0.00    +0.000 HD
BRANCH  15  20
ATOM     17  C   UNL     1      50.654   2.321  17.292  0.00  0.00    +0.000 A 
ATOM     18  C   UNL     1      50.955   3.645  17.562  0.00  0.00    +0.000 A 
ATOM     19  N   UNL     1      50.093   4.667  17.296  0.00  0.00    +0.000 NA
ATOM     20  C   UNL     1      48.917   4.342  16.720  0.00  0.00    +0.000 A 
ATOM     21  C   UNL     1      48.640   2.999  16.443  0.00  0.00    +0.000 A 
ATOM     22  N   UNL     1      49.479   1.965  16.727  0.00  0.00    +0.000 NA
BRANCH  17  24
ATOM     23  N   UNL     1      52.303   0.414  17.888  0.00  0.00    +0.000 NA
ATOM     24  C   UNL     1      51.579   1.272  17.603  0.00  0.00    +0.000 C 
ENDBRANCH  17  24
ENDBRANCH  15  20
ENDBRANCH  14  15
ENDBRANCH   1  14
TORSDOF 5
ENDMDL
MODEL 8
REMARK VINA RESULT:    -6.329      4.611      8.004
REMARK INTER + INTRA:          -8.764
REMARK INTER:                  -8.331
REMARK INTRA:                  -0.432
REMARK UNBOUND:                -0.584
REMARK  Name = 
REMARK  5 active torsions:
REMARK  status: ('A' for Active; 'I' for Inactive)
REMARK    1  A    between atoms: C_2  and  C_3
REMARK    2  A    between atoms: C_6  and  N_7
REMARK    3  A    between atoms: N_7  and  C_8
REMARK    4  A    between atoms: C_8  and  C_9
REMARK    5  A    between atoms: C_13  and  C_14
REMARK                            x       y       z     vdW  Elec       q    Type
REMARK                         _______ _______ _______ _____ _____    ______ ____
ROOT
ATOM      1  C   UNL     1      47.138   7.197  13.024  0.00  0.00    +0.000 A 
ATOM      2  C   UNL     1      46.320   8.331  13.059  0.00  0.00    +0.000 A 
ATOM      3  C   UNL     1      45.190   8.405  12.247  0.00  0.00    +0.000 A 
ATOM      4  C   UNL     1      44.855   7.340  11.407  0.00  0.00    +0.000 A 
ATOM      5  C   UNL     1      45.641   6.176  11.351  0.00  0.00    +0.000 A 
ATOM      6  C   UNL     1      46.796   6.140  12.155  0.00  0.00    +0.000 A 
ENDROOT
BRANCH   5   7
ATOM      7  C   UNL     1      45.235   5.010  10.536  0.00  0.00    +0.000 A 
ATOM      8  C   UNL     1      44.425   3.983  11.039  0.00  0.00    +0.000 A 
ATOM      9  N   UNL     1      43.982   2.913  10.327  0.00  0.00    +0.000 NA
ATOM     10  C   UNL     1      44.368   2.849   9.034  0.00  0.00    +0.000 A 
ATOM     11  C   UNL     1      45.172   3.799   8.437  0.00  0.00    +0.000 A 
ATOM     12  F   UNL     1      45.520   3.689   7.149  0.00  0.00    +0.000 F 
ATOM     13  C   UNL     1      45.607   4.885   9.187  0.00  0.00    +0.000 A 
ENDBRANCH   5   7
BRANCH   1  14
ATOM     14  C   UNL     1      48.289   7.040  13.994  0.00  0.00    +0.000 C 
BRANCH  14  15
ATOM     15  N   UNL     1      47.902   6.230  15.126  0.00  0.00    +0.000 N 
ATOM     16  H   UNL     1      47.137   5.575  14.998  0.00  0.00    +0.000 HD
BRANCH  15  20
ATOM     17  C   UNL     1      50.600   4.968  17.939  0.00  0.00    +0.000 A 
ATOM     18  C   UNL     1      50.930   5.857  16.930  0.00  0.00    +0.000 A 
ATOM     19  N   UNL     1      50.023   6.309  16.018  0.00  0.00    +0.000 NA
ATOM     20  C   UNL     1      48.766   5.828  16.115  0.00  0.00    +0.000 A 
ATOM     21  C   UNL     1      48.459   4.920  17.133  0.00  0.00    +0.000 A 
ATOM     22  N   UNL     1      49.346   4.480  18.067  0.00  0.00    +0.000 NA
BRANCH  17  24
ATOM     23  N   UNL     1      52.342   4.141  19.669  0.00  0.00    +0.000 NA
ATOM     24  C   UNL     1      51.577   4.529  18.890  0.00  0.00    +0.000 C 
ENDBRANCH  17  24
ENDBRANCH  15  20
ENDBRANCH  14  15
ENDBRANCH   1  14
TORSDOF 5
ENDMDL
MODEL 9
REMARK VINA RESULT:    -5.953      4.030      8.053
REMARK INTER + INTRA:          -8.278
REMARK INTER:                  -7.605
REMARK INTRA:                  -0.672
REMARK UNBOUND:                -0.584
REMARK  Name = 
REMARK  5 active torsions:
REMARK  status: ('A' for Active; 'I' for Inactive)
REMARK    1  A    between atoms: C_2  and  C_3
REMARK    2  A    between atoms: C_6  and  N_7
REMARK    3  A    between atoms: N_7  and  C_8
REMARK    4  A    between atoms: C_8  and  C_9
REMARK    5  A    between atoms: C_13  and  C_14
REMARK                            x       y       z     vdW  Elec       q    Type
REMARK                         _______ _______ _______ _____ _____    ______ ____
ROOT
ATOM      1  C   UNL     1      47.795   7.747  12.320  0.00  0.00    +0.000 A 
ATOM      2  C   UNL     1      47.083   8.949  12.253  0.00  0.00    +0.000 A 
ATOM      3  C   UNL     1      45.709   8.938  12.023  0.00  0.00    +0.000 A 
ATOM      4  C   UNL     1      45.029   7.725  11.877  0.00  0.00    +0.000 A 
ATOM      5  C   UNL     1      45.703   6.493  11.952  0.00  0.00    +0.000 A 
ATOM      6  C   UNL     1      47.096   6.534  12.150  0.00  0.00    +0.000 A 
ENDROOT
BRANCH   5   7
ATOM      7  C   UNL     1      44.970   5.210  11.896  0.00  0.00    +0.000 A 
ATOM      8  C   UNL     1      44.335   4.654  13.013  0.00  0.00    +0.000 A 
ATOM      9  N   UNL     1      43.609   3.504  13.013  0.00  0.00    +0.000 NA
ATOM     10  C   UNL     1      43.509   2.856  11.831  0.00  0.00    +0.000 A 
ATOM     11  C   UNL     1      44.102   3.308  10.669  0.00  0.00    +0.000 A 
ATOM     12  F   UNL     1      43.965   2.629   9.524  0.00  0.00    +0.000 F 
ATOM     13  C   UNL     1      44.834   4.489  10.698  0.00  0.00    +0.000 A 
ENDBRANCH   5   7
BRANCH   1  14
ATOM     14  C   UNL     1      49.259   7.732  12.702  0.00  0.00    +0.000 C 
BRANCH  14  15
ATOM     15  N   UNL     1      49.467   8.395  13.969  0.00  0.00    +0.000 N 
ATOM     16  H   UNL     1      49.359   9.404  13.997  0.00  0.00    +0.000 HD
BRANCH  15  20
ATOM     17  C   UNL     1      48.602   6.555  17.525  0.00  0.00    +0.000 A 
ATOM     18  C   UNL     1      48.997   5.856  16.397  0.00  0.00    +0.000 A 
ATOM     19  N   UNL     1      49.324   6.471  15.226  0.00  0.00    +0.000 NA
ATOM     20  C   UNL     1      49.222   7.816  15.190  0.00  0.00    +0.000 A 
ATOM     21  C   UNL     1      48.807   8.500  16.337  0.00  0.00    +0.000 A 
ATOM     22  N   UNL     1      48.503   7.903  17.522  0.00  0.00    +0.000 NA
BRANCH  17  24
ATOM     23  N   UNL     1      48.055   5.295  19.722  0.00  0.00    +0.000 NA
ATOM     24  C   UNL     1      48.283   5.875  18.745  0.00  0.00    +0.000 C 
ENDBRANCH  17  24
ENDBRANCH  15  20
ENDBRANCH  14  15
ENDBRANCH   1  14
TORSDOF 5
ENDMDL
