MODEL 1
REMARK VINA RESULT:    -7.910      0.000      0.000
REMARK INTER + INTRA:         -10.257
REMARK INTER:                 -10.453
REMARK INTRA:                   0.196
REMARK UNBOUND:                 0.196
REMARK  Name = 
REMARK  6 active torsions:
REMARK  status: ('A' for Active; 'I' for Inactive)
REMARK    1  A    between atoms: N_1  and  C_2
REMARK    2  A    between atoms: C_2  and  C_3
REMARK    3  A    between atoms: C_3  and  C_4
REMARK    4  A    between atoms: N_7  and  C_8
REMARK    5  A    between atoms: C_8  and  N_9
REMARK    6  A    between atoms: C_14  and  C_15
REMARK                            x       y       z     vdW  Elec       q    Type
REMARK                         _______ _______ _______ _____ _____    ______ ____
ROOT
ATOM      1  N   UNL     1      43.954   4.463  10.618  0.00  0.00    +0.000 N 
ATOM      2  C   UNL     1      43.404   3.366  11.239  0.00  0.00    +0.000 A 
ATOM      3  C   UNL     1      43.918   2.233  10.652  0.00  0.00    +0.000 A 
ATOM      4  C   UNL     1      44.815   2.643   9.629  0.00  0.00    +0.000 A 
ATOM      5  C   UNL     1      45.591   1.939   8.676  0.00  0.00    +0.000 A 
ATOM      6  C   UNL     1      46.381   2.648   7.759  0.00  0.00    +0.000 A 
ATOM      7  C   UNL     1      46.429   4.044   7.826  0.00  0.00    +0.000 A 
ATOM      8  C   UNL     1      45.694   4.757   8.779  0.00  0.00    +0.000 A 
ATOM      9  C   UNL     1      44.863   4.042   9.654  0.00  0.00    +0.000 A 
ENDROOT
BRANCH   6  10
ATOM     10  C   UNL     1      47.174   1.985   6.681  0.00  0.00    +0.000 C 
ATOM     11  N   UNL     1      47.908   2.760   5.829  0.00  0.00    +0.000 N 
ATOM     12  O   UNL     1      47.185   0.765   6.551  0.00  0.00    +0.000 OA
ATOM     13  H   UNL     1      47.960   3.766   5.854  0.00  0.00    +0.000 HD
ATOM     14  H   UNL     1      48.440   2.275   5.118  0.00  0.00    +0.000 HD
ENDBRANCH   6  10
BRANCH   1  15
ATOM     15  C   UNL     1      43.676   5.855  11.000  0.00  0.00    +0.000 C 
BRANCH  15  19
ATOM     16  C   UNL     1      46.516   5.357  12.668  0.00  0.00    +0.000 C 
ATOM     17  C   UNL     1      46.468   6.671  11.893  0.00  0.00    +0.000 C 
ATOM     18  C   UNL     1      45.159   7.276  12.362  0.00  0.00    +0.000 C 
ATOM     19  N   UNL     1      44.215   6.149  12.346  0.00  0.00    +0.000 NA
ATOM     20  C   UNL     1      45.024   5.000  12.842  0.00  0.00    +0.000 C 
BRANCH  16  21
ATOM     21  C   UNL     1      47.288   5.594  13.984  0.00  0.00    +0.000 C 
BRANCH  21  22
ATOM     22  C   UNL     1      47.131   4.523  15.060  0.00  0.00    +0.000 C 
BRANCH  22  23
ATOM     23  N   UNL     1      47.521   3.207  14.575  0.00  0.00    +0.000 NA
ATOM     24  H   UNL     1      47.051   3.027  13.687  0.00  0.00    +0.000 HD
ATOM     25  H   UNL     1      47.181   2.491  15.217  0.00  0.00    +0.000 HD
ENDBRANCH  22  23
ENDBRANCH  21  22
ENDBRANCH  16  21
ENDBRANCH  15  19
ENDBRANCH   1  15
TORSDOF 6
ENDMDL
MODEL 2
REMARK VINA RESULT:    -7.593      1.142      1.277
REMARK INTER + INTRA:          -9.839
REMARK INTER:                  -9.765
REMARK INTRA:                  -0.073
REMARK UNBOUND:                 0.196
REMARK  Name = 
REMARK  6 active torsions:
REMARK  status: ('A' for Active; 'I' for Inactive)
REMARK    1  A    between atoms: N_1  and  C_2
REMARK    2  A    between atoms: C_2  and  C_3
REMARK    3  A    between atoms: C_3  and  C_4
REMARK    4  A    between atoms: N_7  and  C_8
REMARK    5  A    between atoms: C_8  and  N_9
REMARK    6  A    between atoms: C_14  and  C_15
REMARK                            x       y       z     vdW  Elec       q    Type
REMARK                         _______ _______ _______ _____ _____    ______ ____
ROOT
ATOM      1  N   UNL     1      44.012   4.384  10.614  0.00  0.00    +0.000 N 
ATOM      2  C   UNL     1      43.516   3.239  11.194  0.00  0.00    +0.000 A 
ATOM      3  C   UNL     1      44.067   2.154  10.550  0.00  0.00    +0.000 A 
ATOM      4  C   UNL     1      44.931   2.645   9.535  0.00  0.00    +0.000 A 
ATOM      5  C   UNL     1      45.720   2.015   8.542  0.00  0.00    +0.000 A 
ATOM      6  C   UNL     1      46.467   2.795   7.646  0.00  0.00    +0.000 A 
ATOM      7  C   UNL     1      46.461   4.187   7.774  0.00  0.00    +0.000 A 
ATOM      8  C   UNL     1      45.711   4.828   8.767  0.00  0.00    +0.000 A 
ATOM      9  C   UNL     1      44.923   4.042   9.620  0.00  0.00    +0.000 A 
ENDROOT
BRANCH   6  10
ATOM     10  C   UNL     1      47.271   2.211   6.531  0.00  0.00    +0.000 C 
ATOM     11  N   UNL     1      47.430   2.936   5.383  0.00  0.00    +0.000 N 
ATOM     12  O   UNL     1      47.791   1.105   6.625  0.00  0.00    +0.000 OA
ATOM     13  H   UNL     1      47.041   3.848   5.210  0.00  0.00    +0.000 HD
ATOM     14  H   UNL     1      47.989   2.512   4.653  0.00  0.00    +0.000 HD
ENDBRANCH   6  10
BRANCH   1  15
ATOM     15  C   UNL     1      43.684   5.745  11.060  0.00  0.00    +0.000 C 
BRANCH  15  19
ATOM     16  C   UNL     1      46.717   5.737  12.437  0.00  0.00    +0.000 C 
ATOM     17  C   UNL     1      46.312   7.075  11.823  0.00  0.00    +0.000 C 
ATOM     18  C   UNL     1      44.958   7.325  12.458  0.00  0.00    +0.000 C 
ATOM     19  N   UNL     1      44.280   6.022  12.386  0.00  0.00    +0.000 NA
ATOM     20  C   UNL     1      45.361   5.042  12.683  0.00  0.00    +0.000 C 
BRANCH  16  21
ATOM     21  C   UNL     1      47.549   6.014  13.708  0.00  0.00    +0.000 C 
BRANCH  21  22
ATOM     22  C   UNL     1      48.448   7.247  13.670  0.00  0.00    +0.000 C 
BRANCH  22  23
ATOM     23  N   UNL     1      49.778   6.932  13.170  0.00  0.00    +0.000 NA
ATOM     24  H   UNL     1      49.802   7.100  12.163  0.00  0.00    +0.000 HD
ATOM     25  H   UNL     1      49.961   5.936  13.288  0.00  0.00    +0.000 HD
ENDBRANCH  22  23
ENDBRANCH  21  22
ENDBRANCH  16  21
ENDBRANCH  15  19
ENDBRANCH   1  15
TORSDOF 6
ENDMDL
MODEL 3
REMARK VINA RESULT:    -6.354      2.924      5.393
REMARK INTER + INTRA:          -8.200
REMARK INTER:                  -7.693
REMARK INTRA:                  -0.507
REMARK UNBOUND:                 0.196
REMARK  Name = 
REMARK  6 active torsions:
REMARK  status: ('A' for Active; 'I' for Inactive)
REMARK    1  A    between atoms: N_1  and  C_2
REMARK    2  A    between atoms: C_2  and  C_3
REMARK    3  A    between atoms: C_3  and  C_4
REMARK    4  A    between atoms: N_7  and  C_8
REMARK    5  A    between atoms: C_8  and  N_9
REMARK    6  A    between atoms: C_14  and  C_15
REMARK                            x       y       z     vdW  Elec       q    Type
REMARK                         _______ _______ _______ _____ _____    ______ ____
ROOT
ATOM      1  N   UNL     1      47.660   6.781  13.742  0.00  0.00    +0.000 N 
ATOM      2  C   UNL     1      48.328   7.596  12.857  0.00  0.00    +0.000 A 
ATOM      3  C   UNL     1      47.782   7.416  11.607  0.00  0.00    +0.000 A 
ATOM      4  C   UNL     1      46.743   6.453  11.721  0.00  0.00    +0.000 A 
ATOM      5  C   UNL     1      45.874   5.845  10.783  0.00  0.00    +0.000 A 
ATOM      6  C   UNL     1      44.944   4.887  11.214  0.00  0.00    +0.000 A 
ATOM      7  C   UNL     1      44.853   4.578  12.574  0.00  0.00    +0.000 A 
ATOM      8  C   UNL     1      45.682   5.189  13.521  0.00  0.00    +0.000 A 
ATOM      9  C   UNL     1      46.647   6.102  13.073  0.00  0.00    +0.000 A 
ENDROOT
BRANCH   6  10
ATOM     10  C   UNL     1      44.039   4.152  10.280  0.00  0.00    +0.000 C 
ATOM     11  N   UNL     1      44.062   4.470   8.951  0.00  0.00    +0.000 N 
ATOM     12  O   UNL     1      43.285   3.270  10.678  0.00  0.00    +0.000 OA
ATOM     13  H   UNL     1      44.642   5.178   8.531  0.00  0.00    +0.000 HD
ATOM     14  H   UNL     1      43.443   3.943   8.348  0.00  0.00    +0.000 HD
ENDBRANCH   6  10
BRANCH   1  15
ATOM     15  C   UNL     1      47.935   6.727  15.185  0.00  0.00    +0.000 C 
BRANCH  15  19
ATOM     16  C   UNL     1      49.145   5.288  17.934  0.00  0.00    +0.000 C 
ATOM     17  C   UNL     1      47.704   4.905  17.610  0.00  0.00    +0.000 C 
ATOM     18  C   UNL     1      47.803   4.468  16.162  0.00  0.00    +0.000 C 
ATOM     19  N   UNL     1      48.660   5.486  15.536  0.00  0.00    +0.000 NA
ATOM     20  C   UNL     1      49.694   5.766  16.572  0.00  0.00    +0.000 C 
BRANCH  16  21
ATOM     21  C   UNL     1      49.858   4.053  18.527  0.00  0.00    +0.000 C 
BRANCH  21  22
ATOM     22  C   UNL     1      50.987   3.459  17.689  0.00  0.00    +0.000 C 
BRANCH  22  23
ATOM     23  N   UNL     1      50.550   2.287  16.944  0.00  0.00    +0.000 NA
ATOM     24  H   UNL     1      51.337   1.645  16.844  0.00  0.00    +0.000 HD
ATOM     25  H   UNL     1      50.294   2.560  15.995  0.00  0.00    +0.000 HD
ENDBRANCH  22  23
ENDBRANCH  21  22
ENDBRANCH  16  21
ENDBRANCH  15  19
ENDBRANCH   1  15
TORSDOF 6
ENDMDL
MODEL 4
REMARK VINA RESULT:    -6.175      3.544      5.816
REMARK INTER + INTRA:          -7.965
REMARK INTER:                  -7.460
REMARK INTRA:                  -0.505
REMARK UNBOUND:                 0.196
REMARK  Name = 
REMARK  6 active torsions:
REMARK  status: ('A' for Active; 'I' for Inactive)
REMARK    1  A    between atoms: N_1  and  C_2
REMARK    2  A    between atoms: C_2  and  C_3
REMARK    3  A    between atoms: C_3  and  C_4
REMARK    4  A    between atoms: N_7  and  C_8
REMARK    5  A    between atoms: C_8  and  N_9
REMARK    6  A    between atoms: C_14  and  C_15
REMARK                            x       y       z     vdW  Elec       q    Type
REMARK                         _______ _______ _______ _____ _____    ______ ____
ROOT
ATOM      1  N   UNL     1      47.697   6.839  13.878  0.00  0.00    +0.000 N 
ATOM      2  C   UNL     1      47.150   8.048  13.514  0.00  0.00    +0.000 A 
ATOM      3  C   UNL     1      45.973   7.806  12.844  0.00  0.00    +0.000 A 
ATOM      4  C   UNL     1      45.787   6.398  12.787  0.00  0.00    +0.000 A 
ATOM      5  C   UNL     1      44.801   5.571  12.197  0.00  0.00    +0.000 A 
ATOM      6  C   UNL     1      44.910   4.175  12.298  0.00  0.00    +0.000 A 
ATOM      7  C   UNL     1      45.969   3.618  13.022  0.00  0.00    +0.000 A 
ATOM      8  C   UNL     1      46.937   4.418  13.637  0.00  0.00    +0.000 A 
ATOM      9  C   UNL     1      46.851   5.810  13.482  0.00  0.00    +0.000 A 
ENDROOT
BRANCH   6  10
ATOM     10  C   UNL     1      43.951   3.233  11.648  0.00  0.00    +0.000 C 
ATOM     11  N   UNL     1      43.600   2.089  12.308  0.00  0.00    +0.000 N 
ATOM     12  O   UNL     1      43.471   3.466  10.544  0.00  0.00    +0.000 OA
ATOM     13  H   UNL     1      43.942   1.810  13.213  0.00  0.00    +0.000 HD
ATOM     14  H   UNL     1      42.940   1.481  11.840  0.00  0.00    +0.000 HD
ENDBRANCH   6  10
BRANCH   1  15
ATOM     15  C   UNL     1      48.940   6.693  14.649  0.00  0.00    +0.000 C 
BRANCH  15  19
ATOM     16  C   UNL     1      49.959   5.134  17.409  0.00  0.00    +0.000 C 
ATOM     17  C   UNL     1      50.794   6.356  17.037  0.00  0.00    +0.000 C 
ATOM     18  C   UNL     1      49.737   7.428  16.861  0.00  0.00    +0.000 C 
ATOM     19  N   UNL     1      48.670   6.762  16.101  0.00  0.00    +0.000 NA
ATOM     20  C   UNL     1      48.620   5.391  16.684  0.00  0.00    +0.000 C 
BRANCH  16  21
ATOM     21  C   UNL     1      49.863   5.057  18.949  0.00  0.00    +0.000 C 
BRANCH  21  22
ATOM     22  C   UNL     1      48.469   4.830  19.526  0.00  0.00    +0.000 C 
BRANCH  22  23
ATOM     23  N   UNL     1      48.436   3.687  20.428  0.00  0.00    +0.000 NA
ATOM     24  H   UNL     1      48.811   3.970  21.335  0.00  0.00    +0.000 HD
ATOM     25  H   UNL     1      49.064   2.961  20.084  0.00  0.00    +0.000 HD
ENDBRANCH  22  23
ENDBRANCH  21  22
ENDBRANCH  16  21
ENDBRANCH  15  19
ENDBRANCH   1  15
TORSDOF 6
ENDMDL
MODEL 5
REMARK VINA RESULT:    -6.130      3.643      6.458
REMARK INTER + INTRA:          -7.906
REMARK INTER:                  -7.468
REMARK INTRA:                  -0.437
REMARK UNBOUND:                 0.196
REMARK  Name = 
REMARK  6 active torsions:
REMARK  status: ('A' for Active; 'I' for Inactive)
REMARK    1  A    between atoms: N_1  and  C_2
REMARK    2  A    between atoms: C_2  and  C_3
REMARK    3  A    between atoms: C_3  and  C_4
REMARK    4  A    between atoms: N_7  and  C_8
REMARK    5  A    between atoms: C_8  and  N_9
REMARK    6  A    between atoms: C_14  and  C_15
REMARK                            x       y       z     vdW  Elec       q    Type
REMARK                         _______ _______ _______ _____ _____    ______ ____
ROOT
ATOM      1  N   UNL     1      45.379   7.364  12.451  0.00  0.00    +0.000 N 
ATOM      2  C   UNL     1      44.900   8.606  12.102  0.00  0.00    +0.000 A 
ATOM      3  C   UNL     1      45.968   9.467  11.996  0.00  0.00    +0.000 A 
ATOM      4  C   UNL     1      47.148   8.734  12.295  0.00  0.00    +0.000 A 
ATOM      5  C   UNL     1      48.516   9.090  12.390  0.00  0.00    +0.000 A 
ATOM      6  C   UNL     1      49.467   8.118  12.735  0.00  0.00    +0.000 A 
ATOM      7  C   UNL     1      49.058   6.797  12.937  0.00  0.00    +0.000 A 
ATOM      8  C   UNL     1      47.717   6.418  12.819  0.00  0.00    +0.000 A 
ATOM      9  C   UNL     1      46.767   7.408  12.530  0.00  0.00    +0.000 A 
ENDROOT
BRANCH   6  10
ATOM     10  C   UNL     1      50.916   8.426  12.922  0.00  0.00    +0.000 C 
ATOM     11  N   UNL     1      51.815   7.951  12.008  0.00  0.00    +0.000 N 
ATOM     12  O   UNL     1      51.314   9.096  13.869  0.00  0.00    +0.000 OA
ATOM     13  H   UNL     1      51.587   7.392  11.202  0.00  0.00    +0.000 HD
ATOM     14  H   UNL     1      52.786   8.188  12.162  0.00  0.00    +0.000 HD
ENDBRANCH   6  10
BRANCH   1  15
ATOM     15  C   UNL     1      44.537   6.170  12.617  0.00  0.00    +0.000 C 
BRANCH  15  19
ATOM     16  C   UNL     1      44.807   3.417  10.764  0.00  0.00    +0.000 C 
ATOM     17  C   UNL     1      43.628   3.406  11.732  0.00  0.00    +0.000 C 
ATOM     18  C   UNL     1      42.943   4.722  11.421  0.00  0.00    +0.000 C 
ATOM     19  N   UNL     1      44.047   5.686  11.309  0.00  0.00    +0.000 NA
ATOM     20  C   UNL     1      45.116   4.921  10.606  0.00  0.00    +0.000 C 
BRANCH  16  21
ATOM     21  C   UNL     1      44.381   2.698   9.465  0.00  0.00    +0.000 C 
BRANCH  21  22
ATOM     22  C   UNL     1      45.477   2.477   8.426  0.00  0.00    +0.000 C 
BRANCH  22  23
ATOM     23  N   UNL     1      45.963   1.105   8.435  0.00  0.00    +0.000 NA
ATOM     24  H   UNL     1      45.173   0.473   8.304  0.00  0.00    +0.000 HD
ATOM     25  H   UNL     1      46.345   0.883   9.354  0.00  0.00    +0.000 HD
ENDBRANCH  22  23
ENDBRANCH  21  22
ENDBRANCH  16  21
ENDBRANCH  15  19
ENDBRANCH   1  15
TORSDOF 6
ENDMDL
MODEL 6
REMARK VINA RESULT:    -5.960      3.599      5.432
REMARK INTER + INTRA:          -7.680
REMARK INTER:                  -7.406
REMARK INTRA:                  -0.274
REMARK UNBOUND:                 0.196
REMARK  Name = 
REMARK  6 active torsions:
REMARK  status: ('A' for Active; 'I' for Inactive)
REMARK    1  A    between atoms: N_1  and  C_2
REMARK    2  A    between atoms: C_2  and  C_3
REMARK    3  A    between atoms: C_3  and  C_4
REMARK    4  A    between atoms: N_7  and  C_8
REMARK    5  A    between atoms: C_8  and  N_9
REMARK    6  A    between atoms: C_14  and  C_15
REMARK                            x       y       z     vdW  Elec       q    Type
REMARK                         _______ _______ _______ _____ _____    ______ ____
ROOT
ATOM      1  N   UNL     1      46.841   7.319  13.159  0.00  0.00    +0.000 N 
ATOM      2  C   UNL     1      46.247   8.359  12.482  0.00  0.00    +0.000 A 
ATOM      3  C   UNL     1      45.253   7.844  11.682  0.00  0.00    +0.000 A 
ATOM      4  C   UNL     1      45.234   6.435  11.868  0.00  0.00    +0.000 A 
ATOM      5  C   UNL     1      44.473   5.389  11.291  0.00  0.00    +0.000 A 
ATOM      6  C   UNL     1      44.710   4.060  11.675  0.00  0.00    +0.000 A 
ATOM      7  C   UNL     1      45.664   3.789  12.660  0.00  0.00    +0.000 A 
ATOM      8  C   UNL     1      46.405   4.810  13.265  0.00  0.00    +0.000 A 
ATOM      9  C   UNL     1      46.201   6.128  12.832  0.00  0.00    +0.000 A 
ENDROOT
BRANCH   6  10
ATOM     10  C   UNL     1      43.999   2.896  11.067  0.00  0.00    +0.000 C 
ATOM     11  N   UNL     1      44.539   2.297   9.963  0.00  0.00    +0.000 N 
ATOM     12  O   UNL     1      42.952   2.466  11.537  0.00  0.00    +0.000 OA
ATOM     13  H   UNL     1      45.389   2.579   9.504  0.00  0.00    +0.000 HD
ATOM     14  H   UNL     1      44.034   1.506   9.585  0.00  0.00    +0.000 HD
ENDBRANCH   6  10
BRANCH   1  15
ATOM     15  C   UNL     1      47.922   7.482  14.142  0.00  0.00    +0.000 C 
BRANCH  15  19
ATOM     16  C   UNL     1      50.322   8.620  12.134  0.00  0.00    +0.000 C 
ATOM     17  C   UNL     1      50.539   8.938  13.611  0.00  0.00    +0.000 C 
ATOM     18  C   UNL     1      50.381   7.578  14.261  0.00  0.00    +0.000 C 
ATOM     19  N   UNL     1      49.207   6.994  13.596  0.00  0.00    +0.000 NA
ATOM     20  C   UNL     1      49.359   7.415  12.174  0.00  0.00    +0.000 C 
BRANCH  16  21
ATOM     21  C   UNL     1      51.696   8.336  11.488  0.00  0.00    +0.000 C 
BRANCH  21  22
ATOM     22  C   UNL     1      51.709   7.315  10.354  0.00  0.00    +0.000 C 
BRANCH  22  23
ATOM     23  N   UNL     1      52.817   6.378  10.481  0.00  0.00    +0.000 NA
ATOM     24  H   UNL     1      52.992   5.947   9.572  0.00  0.00    +0.000 HD
ATOM     25  H   UNL     1      52.549   5.614  11.101  0.00  0.00    +0.000 HD
ENDBRANCH  22  23
ENDBRANCH  21  22
ENDBRANCH  16  21
ENDBRANCH  15  19
ENDBRANCH   1  15
TORSDOF 6
ENDMDL
MODEL 7
REMARK VINA RESULT:    -5.953      3.033      6.704
REMARK INTER + INTRA:          -7.671
REMARK INTER:                  -7.656
REMARK INTRA:                  -0.015
REMARK UNBOUND:                 0.196
REMARK  Name = 
REMARK  6 active torsions:
REMARK  status: ('A' for Active; 'I' for Inactive)
REMARK    1  A    between atoms: N_1  and  C_2
REMARK    2  A    between atoms: C_2  and  C_3
REMARK    3  A    between atoms: C_3  and  C_4
REMARK    4  A    between atoms: N_7  and  C_8
REMARK    5  A    between atoms: C_8  and  N_9
REMARK    6  A    between atoms: C_14  and  C_15
REMARK                            x       y       z     vdW  Elec       q    Type
REMARK                         _______ _______ _______ _____ _____    ______ ____
ROOT
ATOM      1  N   UNL     1      45.589   4.729  11.913  0.00  0.00    +0.000 N 
ATOM      2  C   UNL     1      46.715   4.656  12.700  0.00  0.00    +0.000 A 
ATOM      3  C   UNL     1      47.029   5.926  13.125  0.00  0.00    +0.000 A 
ATOM      4  C   UNL     1      46.067   6.817  12.578  0.00  0.00    +0.000 A 
ATOM      5  C   UNL     1      45.904   8.223  12.630  0.00  0.00    +0.000 A 
ATOM      6  C   UNL     1      44.836   8.827  11.949  0.00  0.00    +0.000 A 
ATOM      7  C   UNL     1      43.916   8.028  11.265  0.00  0.00    +0.000 A 
ATOM      8  C   UNL     1      44.041   6.635  11.227  0.00  0.00    +0.000 A 
ATOM      9  C   UNL     1      45.144   6.046  11.862  0.00  0.00    +0.000 A 
ENDROOT
BRANCH   6  10
ATOM     10  C   UNL     1      44.634  10.306  11.898  0.00  0.00    +0.000 C 
ATOM     11  N   UNL     1      43.378  10.808  12.098  0.00  0.00    +0.000 N 
ATOM     12  O   UNL     1      45.566  11.074  11.687  0.00  0.00    +0.000 OA
ATOM     13  H   UNL     1      42.552  10.259  12.274  0.00  0.00    +0.000 HD
ATOM     14  H   UNL     1      43.282  11.815  12.065  0.00  0.00    +0.000 HD
ENDBRANCH   6  10
BRANCH   1  15
ATOM     15  C   UNL     1      44.925   3.565  11.308  0.00  0.00    +0.000 C 
BRANCH  15  19
ATOM     16  C   UNL     1      46.312   3.038   8.326  0.00  0.00    +0.000 C 
ATOM     17  C   UNL     1      45.414   1.902   8.808  0.00  0.00    +0.000 C 
ATOM     18  C   UNL     1      44.135   2.631   9.169  0.00  0.00    +0.000 C 
ATOM     19  N   UNL     1      44.593   3.827   9.890  0.00  0.00    +0.000 NA
ATOM     20  C   UNL     1      45.811   4.249   9.142  0.00  0.00    +0.000 C 
BRANCH  16  21
ATOM     21  C   UNL     1      46.152   3.172   6.796  0.00  0.00    +0.000 C 
BRANCH  21  22
ATOM     22  C   UNL     1      47.335   2.706   5.952  0.00  0.00    +0.000 C 
BRANCH  22  23
ATOM     23  N   UNL     1      48.012   1.564   6.550  0.00  0.00    +0.000 NA
ATOM     24  H   UNL     1      47.318   0.852   6.782  0.00  0.00    +0.000 HD
ATOM     25  H   UNL     1      48.430   1.841   7.438  0.00  0.00    +0.000 HD
ENDBRANCH  22  23
ENDBRANCH  21  22
ENDBRANCH  16  21
ENDBRANCH  15  19
ENDBRANCH   1  15
TORSDOF 6
ENDMDL
MODEL 8
REMARK VINA RESULT:    -5.807      4.482      8.402
REMARK INTER + INTRA:          -7.478
REMARK INTER:                  -6.853
REMARK INTRA:                  -0.625
REMARK UNBOUND:                 0.196
REMARK  Name = 
REMARK  6 active torsions:
REMARK  status: ('A' for Active; 'I' for Inactive)
REMARK    1  A    between atoms: N_1  and  C_2
REMARK    2  A    between atoms: C_2  and  C_3
REMARK    3  A    between atoms: C_3  and  C_4
REMARK    4  A    between atoms: N_7  and  C_8
REMARK    5  A    between atoms: C_8  and  N_9
REMARK    6  A    between atoms: C_14  and  C_15
REMARK                            x       y       z     vdW  Elec       q    Type
REMARK                         _______ _______ _______ _____ _____    ______ ____
ROOT
ATOM      1  N   UNL     1      48.123   6.373  14.462  0.00  0.00    +0.000 N 
ATOM      2  C   UNL     1      48.573   7.672  14.502  0.00  0.00    +0.000 A 
ATOM      3  C   UNL     1      48.962   7.955  15.792  0.00  0.00    +0.000 A 
ATOM      4  C   UNL     1      48.740   6.792  16.577  0.00  0.00    +0.000 A 
ATOM      5  C   UNL     1      48.906   6.503  17.954  0.00  0.00    +0.000 A 
ATOM      6  C   UNL     1      48.569   5.232  18.444  0.00  0.00    +0.000 A 
ATOM      7  C   UNL     1      48.118   4.249  17.558  0.00  0.00    +0.000 A 
ATOM      8  C   UNL     1      47.977   4.505  16.190  0.00  0.00    +0.000 A 
ATOM      9  C   UNL     1      48.261   5.795  15.720  0.00  0.00    +0.000 A 
ENDROOT
BRANCH   6  10
ATOM     10  C   UNL     1      48.650   4.869  19.891  0.00  0.00    +0.000 C 
ATOM     11  N   UNL     1      48.470   3.564  20.255  0.00  0.00    +0.000 N 
ATOM     12  O   UNL     1      48.878   5.711  20.752  0.00  0.00    +0.000 OA
ATOM     13  H   UNL     1      48.274   2.804  19.624  0.00  0.00    +0.000 HD
ATOM     14  H   UNL     1      48.541   3.355  21.242  0.00  0.00    +0.000 HD
ENDBRANCH   6  10
BRANCH   1  15
ATOM     15  C   UNL     1      47.659   5.696  13.242  0.00  0.00    +0.000 C 
BRANCH  15  19
ATOM     16  C   UNL     1      45.280   4.560  11.208  0.00  0.00    +0.000 C 
ATOM     17  C   UNL     1      45.482   3.718  12.465  0.00  0.00    +0.000 C 
ATOM     18  C   UNL     1      45.404   4.758  13.566  0.00  0.00    +0.000 C 
ATOM     19  N   UNL     1      46.204   5.882  13.058  0.00  0.00    +0.000 NA
ATOM     20  C   UNL     1      45.867   5.931  11.607  0.00  0.00    +0.000 C 
BRANCH  16  21
ATOM     21  C   UNL     1      43.774   4.570  10.864  0.00  0.00    +0.000 C 
BRANCH  21  22
ATOM     22  C   UNL     1      43.055   5.907  11.026  0.00  0.00    +0.000 C 
BRANCH  22  23
ATOM     23  N   UNL     1      42.241   5.941  12.232  0.00  0.00    +0.000 NA
ATOM     24  H   UNL     1      41.541   6.678  12.139  0.00  0.00    +0.000 HD
ATOM     25  H   UNL     1      42.820   6.210  13.028  0.00  0.00    +0.000 HD
ENDBRANCH  22  23
ENDBRANCH  21  22
ENDBRANCH  16  21
ENDBRANCH  15  19
ENDBRANCH   1  15
TORSDOF 6
ENDMDL
MODEL 9
REMARK VINA RESULT:    -5.793      3.638      5.441
REMARK INTER + INTRA:          -7.460
REMARK INTER:                  -6.968
REMARK INTRA:                  -0.492
REMARK UNBOUND:                 0.196
REMARK  Name = 
REMARK  6 active torsions:
REMARK  status: ('A' for Active; 'I' for Inactive)
REMARK    1  A    between atoms: N_1  and  C_2
REMARK    2  A    between atoms: C_2  and  C_3
REMARK    3  A    between atoms: C_3  and  C_4
REMARK    4  A    between atoms: N_7  and  C_8
REMARK    5  A    between atoms: C_8  and  N_9
REMARK    6  A    between atoms: C_14  and  C_15
REMARK                            x       y       z     vdW  Elec       q    Type
REMARK                         _______ _______ _______ _____ _____    ______ ____
ROOT
ATOM      1  N   UNL     1      47.462   6.415  13.957  0.00  0.00    +0.000 N 
ATOM      2  C   UNL     1      47.751   5.586  15.017  0.00  0.00    +0.000 A 
ATOM      3  C   UNL     1      47.127   4.378  14.804  0.00  0.00    +0.000 A 
ATOM      4  C   UNL     1      46.423   4.464  13.572  0.00  0.00    +0.000 A 
ATOM      5  C   UNL     1      45.580   3.569  12.870  0.00  0.00    +0.000 A 
ATOM      6  C   UNL     1      45.001   3.965  11.655  0.00  0.00    +0.000 A 
ATOM      7  C   UNL     1      45.301   5.224  11.127  0.00  0.00    +0.000 A 
ATOM      8  C   UNL     1      46.156   6.111  11.789  0.00  0.00    +0.000 A 
ATOM      9  C   UNL     1      46.683   5.729  13.031  0.00  0.00    +0.000 A 
ENDROOT
BRANCH   6  10
ATOM     10  C   UNL     1      44.049   3.107  10.888  0.00  0.00    +0.000 C 
ATOM     11  N   UNL     1      43.386   2.108  11.543  0.00  0.00    +0.000 N 
ATOM     12  O   UNL     1      43.846   3.284   9.691  0.00  0.00    +0.000 OA
ATOM     13  H   UNL     1      43.487   1.884  12.520  0.00  0.00    +0.000 HD
ATOM     14  H   UNL     1      42.742   1.554  10.993  0.00  0.00    +0.000 HD
ENDBRANCH   6  10
BRANCH   1  15
ATOM     15  C   UNL     1      47.986   7.780  13.808  0.00  0.00    +0.000 C 
BRANCH  15  19
ATOM     16  C   UNL     1      50.119   8.270  11.299  0.00  0.00    +0.000 C 
ATOM     17  C   UNL     1      49.778   9.533  12.084  0.00  0.00    +0.000 C 
ATOM     18  C   UNL     1      50.043   9.104  13.514  0.00  0.00    +0.000 C 
ATOM     19  N   UNL     1      49.451   7.762  13.605  0.00  0.00    +0.000 NA
ATOM     20  C   UNL     1      49.784   7.138  12.293  0.00  0.00    +0.000 C 
BRANCH  16  21
ATOM     21  C   UNL     1      51.602   8.345  10.871  0.00  0.00    +0.000 C 
BRANCH  21  22
ATOM     22  C   UNL     1      52.092   7.240   9.940  0.00  0.00    +0.000 C 
BRANCH  22  23
ATOM     23  N   UNL     1      53.101   6.404  10.575  0.00  0.00    +0.000 NA
ATOM     24  H   UNL     1      52.728   6.045  11.455  0.00  0.00    +0.000 HD
ATOM     25  H   UNL     1      53.907   6.974  10.829  0.00  0.00    +0.000 HD
ENDBRANCH  22  23
ENDBRANCH  21  22
ENDBRANCH  16  21
ENDBRANCH  15  19
ENDBRANCH   1  15
TORSDOF 6
ENDMDL
