MODEL 1
REMARK VINA RESULT:    -9.049      0.000      0.000
REMARK INTER + INTRA:         -13.618
REMARK INTER:                 -12.752
REMARK INTRA:                  -0.866
REMARK UNBOUND:                -0.866
REMARK  Name = 
REMARK  8 active torsions:
REMARK  status: ('A' for Active; 'I' for Inactive)
REMARK    1  A    between atoms: C_1  and  C_2
REMARK    2  A    between atoms: C_4  and  C_5
REMARK    3  A    between atoms: C_10  and  N_11
REMARK    4  A    between atoms: N_11  and  C_12
REMARK    5  A    between atoms: C_12  and  C_13
REMARK    6  A    between atoms: C_17  and  C_18
REMARK    7  A    between atoms: C_21  and  O_22
REMARK    8  A    between atoms: O_22  and  C_23
REMARK                            x       y       z     vdW  Elec       q    Type
REMARK                         _______ _______ _______ _____ _____    ______ ____
ROOT
ATOM      1  C   UNL     1      44.092   5.025  11.478  0.00  0.00    +0.000 C 
ATOM      2  C   UNL     1      43.398   3.902  12.272  0.00  0.00    +0.000 C 
ATOM      3  C   UNL     1      42.957   5.299  12.461  0.00  0.00    +0.000 C 
ENDROOT
BRANCH   1   4
ATOM      4  C   UNL     1      45.469   5.454  11.990  0.00  0.00    +0.000 A 
ATOM      5  C   UNL     1      46.180   6.492  11.375  0.00  0.00    +0.000 A 
ATOM      6  C   UNL     1      47.371   6.964  11.918  0.00  0.00    +0.000 A 
ATOM      7  C   UNL     1      47.858   6.417  13.104  0.00  0.00    +0.000 A 
ATOM      8  C   UNL     1      47.163   5.396  13.779  0.00  0.00    +0.000 A 
ATOM      9  C   UNL     1      46.006   4.898  13.168  0.00  0.00    +0.000 A 
BRANCH   8  10
ATOM     10  C   UNL     1      47.557   4.961  15.135  0.00  0.00    +0.000 A 
ATOM     11  C   UNL     1      48.300   5.824  15.962  0.00  0.00    +0.000 A 
ATOM     12  C   UNL     1      48.629   5.486  17.275  0.00  0.00    +0.000 A 
ATOM     13  C   UNL     1      48.187   4.282  17.812  0.00  0.00    +0.000 A 
ATOM     14  C   UNL     1      47.467   3.399  17.009  0.00  0.00    +0.000 A 
ATOM     15  C   UNL     1      47.152   3.734  15.687  0.00  0.00    +0.000 A 
BRANCH  13  16
ATOM     16  O   UNL     1      48.412   3.863  19.091  0.00  0.00    +0.000 OA
BRANCH  16  17
ATOM     17  C   UNL     1      48.744   4.891  20.009  0.00  0.00    +0.000 C 
ATOM     18  F   UNL     1      47.582   5.469  20.404  0.00  0.00    +0.000 F 
ATOM     19  F   UNL     1      49.297   4.326  21.110  0.00  0.00    +0.000 F 
ENDBRANCH  16  17
ENDBRANCH  13  16
ENDBRANCH   8  10
ENDBRANCH   1   4
BRANCH   1  20
ATOM     20  N   UNL     1      44.084   4.789  10.023  0.00  0.00    +0.000 N 
ATOM     21  H   UNL     1      43.197   4.958   9.554  0.00  0.00    +0.000 HD
BRANCH  20  28
ATOM     22  C   UNL     1      44.106   1.700   9.712  0.00  0.00    +0.000 C 
ATOM     23  C   UNL     1      44.961   2.684   8.997  0.00  0.00    +0.000 A 
ATOM     24  C   UNL     1      45.932   2.141   8.139  0.00  0.00    +0.000 A 
ATOM     25  C   UNL     1      46.761   2.942   7.368  0.00  0.00    +0.000 A 
ATOM     26  C   UNL     1      46.569   4.301   7.498  0.00  0.00    +0.000 A 
ATOM     27  N   UNL     1      45.658   4.864   8.351  0.00  0.00    +0.000 NA
ATOM     28  C   UNL     1      44.866   4.067   9.124  0.00  0.00    +0.000 A 
BRANCH  25  29
ATOM     29  C   UNL     1      47.751   2.264   6.490  0.00  0.00    +0.000 C 
ATOM     30  N   UNL     1      48.128   2.839   5.314  0.00  0.00    +0.000 N 
ATOM     31  O   UNL     1      48.240   1.189   6.807  0.00  0.00    +0.000 OA
ATOM     32  H   UNL     1      47.809   3.727   4.954  0.00  0.00    +0.000 HD
ATOM     33  H   UNL     1      48.810   2.328   4.770  0.00  0.00    +0.000 HD
ENDBRANCH  25  29
ENDBRANCH  20  28
ENDBRANCH   1  20
TORSDOF 7
ENDMDL
MODEL 2
REMARK VINA RESULT:    -8.344      3.992      5.161
REMARK INTER + INTRA:         -12.624
REMARK INTER:                 -11.789
REMARK INTRA:                  -0.836
REMARK UNBOUND:                -0.866
REMARK  Name = 
REMARK  8 active torsions:
REMARK  status: ('A' for Active; 'I' for Inactive)
REMARK    1  A    between atoms: C_1  and  C_2
REMARK    2  A    between atoms: C_4  and  C_5
REMARK    3  A    between atoms: C_10  and  N_11
REMARK    4  A    between atoms: N_11  and  C_12
REMARK    5  A    between atoms: C_12  and  C_13
REMARK    6  A    between atoms: C_17  and  C_18
REMARK    7  A    between atoms: C_21  and  O_22
REMARK    8  A    between atoms: O_22  and  C_23
REMARK                            x       y       z     vdW  Elec       q    Type
REMARK                         _______ _______ _______ _____ _____    ______ ____
ROOT
ATOM      1  C   UNL     1      43.765   5.614  11.111  0.00  0.00    +0.000 C 
ATOM      2  C   UNL     1      42.553   4.918  11.759  0.00  0.00    +0.000 C 
ATOM      3  C   UNL     1      42.598   6.394  11.710  0.00  0.00    +0.000 C 
ENDROOT
BRANCH   1   4
ATOM      4  C   UNL     1      45.039   5.664  11.959  0.00  0.00    +0.000 A 
ATOM      5  C   UNL     1      45.416   4.582  12.765  0.00  0.00    +0.000 A 
ATOM      6  C   UNL     1      46.635   4.581  13.436  0.00  0.00    +0.000 A 
ATOM      7  C   UNL     1      47.510   5.656  13.288  0.00  0.00    +0.000 A 
ATOM      8  C   UNL     1      47.193   6.751  12.463  0.00  0.00    +0.000 A 
ATOM      9  C   UNL     1      45.929   6.752  11.860  0.00  0.00    +0.000 A 
BRANCH   8  10
ATOM     10  C   UNL     1      48.195   7.786  12.136  0.00  0.00    +0.000 A 
ATOM     11  C   UNL     1      49.516   7.413  11.826  0.00  0.00    +0.000 A 
ATOM     12  C   UNL     1      50.475   8.349  11.438  0.00  0.00    +0.000 A 
ATOM     13  C   UNL     1      50.125   9.688  11.313  0.00  0.00    +0.000 A 
ATOM     14  C   UNL     1      48.829  10.089  11.633  0.00  0.00    +0.000 A 
ATOM     15  C   UNL     1      47.873   9.150  12.037  0.00  0.00    +0.000 A 
BRANCH  13  16
ATOM     16  O   UNL     1      50.964  10.684  10.905  0.00  0.00    +0.000 OA
BRANCH  16  17
ATOM     17  C   UNL     1      51.950  11.064  11.850  0.00  0.00    +0.000 C 
ATOM     18  F   UNL     1      51.400  10.927  13.083  0.00  0.00    +0.000 F 
ATOM     19  F   UNL     1      52.980  10.186  11.779  0.00  0.00    +0.000 F 
ENDBRANCH  16  17
ENDBRANCH  13  16
ENDBRANCH   8  10
ENDBRANCH   1   4
BRANCH   1  20
ATOM     20  N   UNL     1      44.025   5.153   9.736  0.00  0.00    +0.000 N 
ATOM     21  H   UNL     1      43.421   5.547   9.018  0.00  0.00    +0.000 HD
BRANCH  20  28
ATOM     22  C   UNL     1      43.772   2.203  10.672  0.00  0.00    +0.000 C 
ATOM     23  C   UNL     1      44.629   2.731   9.578  0.00  0.00    +0.000 A 
ATOM     24  C   UNL     1      45.467   1.794   8.949  0.00  0.00    +0.000 A 
ATOM     25  C   UNL     1      46.278   2.136   7.879  0.00  0.00    +0.000 A 
ATOM     26  C   UNL     1      46.208   3.451   7.471  0.00  0.00    +0.000 A 
ATOM     27  N   UNL     1      45.432   4.398   8.083  0.00  0.00    +0.000 NA
ATOM     28  C   UNL     1      44.657   4.056   9.153  0.00  0.00    +0.000 A 
BRANCH  25  29
ATOM     29  C   UNL     1      47.122   1.065   7.285  0.00  0.00    +0.000 C 
ATOM     30  N   UNL     1      46.939  -0.233   7.657  0.00  0.00    +0.000 N 
ATOM     31  O   UNL     1      47.985   1.329   6.461  0.00  0.00    +0.000 OA
ATOM     32  H   UNL     1      46.251  -0.576   8.311  0.00  0.00    +0.000 HD
ATOM     33  H   UNL     1      47.542  -0.910   7.209  0.00  0.00    +0.000 HD
ENDBRANCH  25  29
ENDBRANCH  20  28
ENDBRANCH   1  20
TORSDOF 7
ENDMDL
MODEL 3
REMARK VINA RESULT:    -8.180      4.678      8.710
REMARK INTER + INTRA:         -12.394
REMARK INTER:                 -11.433
REMARK INTRA:                  -0.961
REMARK UNBOUND:                -0.866
REMARK  Name = 
REMARK  8 active torsions:
REMARK  status: ('A' for Active; 'I' for Inactive)
REMARK    1  A    between atoms: C_1  and  C_2
REMARK    2  A    between atoms: C_4  and  C_5
REMARK    3  A    between atoms: C_10  and  N_11
REMARK    4  A    between atoms: N_11  and  C_12
REMARK    5  A    between atoms: C_12  and  C_13
REMARK    6  A    between atoms: C_17  and  C_18
REMARK    7  A    between atoms: C_21  and  O_22
REMARK    8  A    between atoms: O_22  and  C_23
REMARK                            x       y       z     vdW  Elec       q    Type
REMARK                         _______ _______ _______ _____ _____    ______ ____
ROOT
ATOM      1  C   UNL     1      48.026   8.276  12.840  0.00  0.00    +0.000 C 
ATOM      2  C   UNL     1      48.965   8.982  11.842  0.00  0.00    +0.000 C 
ATOM      3  C   UNL     1      48.232   9.789  12.840  0.00  0.00    +0.000 C 
ENDROOT
BRANCH   1   4
ATOM      4  C   UNL     1      46.668   7.840  12.286  0.00  0.00    +0.000 A 
ATOM      5  C   UNL     1      45.596   8.738  12.204  0.00  0.00    +0.000 A 
ATOM      6  C   UNL     1      44.404   8.375  11.585  0.00  0.00    +0.000 A 
ATOM      7  C   UNL     1      44.275   7.109  11.015  0.00  0.00    +0.000 A 
ATOM      8  C   UNL     1      45.334   6.183  11.041  0.00  0.00    +0.000 A 
ATOM      9  C   UNL     1      46.493   6.556  11.732  0.00  0.00    +0.000 A 
BRANCH   8  10
ATOM     10  C   UNL     1      45.282   4.929  10.261  0.00  0.00    +0.000 A 
ATOM     11  C   UNL     1      45.778   4.900   8.944  0.00  0.00    +0.000 A 
ATOM     12  C   UNL     1      45.818   3.722   8.197  0.00  0.00    +0.000 A 
ATOM     13  C   UNL     1      45.394   2.526   8.766  0.00  0.00    +0.000 A 
ATOM     14  C   UNL     1      44.880   2.529  10.061  0.00  0.00    +0.000 A 
ATOM     15  C   UNL     1      44.826   3.715  10.802  0.00  0.00    +0.000 A 
BRANCH  13  16
ATOM     16  O   UNL     1      45.424   1.309   8.149  0.00  0.00    +0.000 OA
BRANCH  16  17
ATOM     17  C   UNL     1      46.702   0.900   7.692  0.00  0.00    +0.000 C 
ATOM     18  F   UNL     1      46.716  -0.457   7.696  0.00  0.00    +0.000 F 
ATOM     19  F   UNL     1      46.847   1.291   6.402  0.00  0.00    +0.000 F 
ENDBRANCH  16  17
ENDBRANCH  13  16
ENDBRANCH   8  10
ENDBRANCH   1   4
BRANCH   1  20
ATOM     20  N   UNL     1      48.694   7.203  13.597  0.00  0.00    +0.000 N 
ATOM     21  H   UNL     1      49.455   6.731  13.114  0.00  0.00    +0.000 HD
BRANCH  20  28
ATOM     22  C   UNL     1      49.390   7.797  16.564  0.00  0.00    +0.000 C 
ATOM     23  C   UNL     1      48.718   6.587  16.021  0.00  0.00    +0.000 A 
ATOM     24  C   UNL     1      48.434   5.574  16.953  0.00  0.00    +0.000 A 
ATOM     25  C   UNL     1      47.762   4.416  16.595  0.00  0.00    +0.000 A 
ATOM     26  C   UNL     1      47.390   4.324  15.271  0.00  0.00    +0.000 A 
ATOM     27  N   UNL     1      47.683   5.273  14.330  0.00  0.00    +0.000 NA
ATOM     28  C   UNL     1      48.368   6.398  14.687  0.00  0.00    +0.000 A 
BRANCH  25  29
ATOM     29  C   UNL     1      47.509   3.411  17.662  0.00  0.00    +0.000 C 
ATOM     30  N   UNL     1      48.406   3.249  18.674  0.00  0.00    +0.000 N 
ATOM     31  O   UNL     1      46.501   2.720  17.648  0.00  0.00    +0.000 OA
ATOM     32  H   UNL     1      49.262   3.769  18.803  0.00  0.00    +0.000 HD
ATOM     33  H   UNL     1      48.168   2.554  19.369  0.00  0.00    +0.000 HD
ENDBRANCH  25  29
ENDBRANCH  20  28
ENDBRANCH   1  20
TORSDOF 7
ENDMDL
MODEL 4
REMARK VINA RESULT:    -8.102      4.667      9.165
REMARK INTER + INTRA:         -12.283
REMARK INTER:                 -11.194
REMARK INTRA:                  -1.089
REMARK UNBOUND:                -0.866
REMARK  Name = 
REMARK  8 active torsions:
REMARK  status: ('A' for Active; 'I' for Inactive)
REMARK    1  A    between atoms: C_1  and  C_2
REMARK    2  A    between atoms: C_4  and  C_5
REMARK    3  A    between atoms: C_10  and  N_11
REMARK    4  A    between atoms: N_11  and  C_12
REMARK    5  A    between atoms: C_12  and  C_13
REMARK    6  A    between atoms: C_17  and  C_18
REMARK    7  A    between atoms: C_21  and  O_22
REMARK    8  A    between atoms: O_22  and  C_23
REMARK                            x       y       z     vdW  Elec       q    Type
REMARK                         _______ _______ _______ _____ _____    ______ ____
ROOT
ATOM      1  C   UNL     1      46.349   7.179  12.971  0.00  0.00    +0.000 C 
ATOM      2  C   UNL     1      46.806   8.407  12.160  0.00  0.00    +0.000 C 
ATOM      3  C   UNL     1      45.842   8.589  13.265  0.00  0.00    +0.000 C 
ENDROOT
BRANCH   1   4
ATOM      4  C   UNL     1      45.311   6.280  12.294  0.00  0.00    +0.000 A 
ATOM      5  C   UNL     1      43.939   6.477  12.500  0.00  0.00    +0.000 A 
ATOM      6  C   UNL     1      42.997   5.741  11.788  0.00  0.00    +0.000 A 
ATOM      7  C   UNL     1      43.415   4.812  10.837  0.00  0.00    +0.000 A 
ATOM      8  C   UNL     1      44.780   4.602  10.570  0.00  0.00    +0.000 A 
ATOM      9  C   UNL     1      45.701   5.307  11.353  0.00  0.00    +0.000 A 
BRANCH   8  10
ATOM     10  C   UNL     1      45.225   3.781   9.424  0.00  0.00    +0.000 A 
ATOM     11  C   UNL     1      45.684   4.404   8.249  0.00  0.00    +0.000 A 
ATOM     12  C   UNL     1      46.184   3.671   7.172  0.00  0.00    +0.000 A 
ATOM     13  C   UNL     1      46.272   2.286   7.259  0.00  0.00    +0.000 A 
ATOM     14  C   UNL     1      45.806   1.641   8.403  0.00  0.00    +0.000 A 
ATOM     15  C   UNL     1      45.291   2.378   9.475  0.00  0.00    +0.000 A 
BRANCH  13  16
ATOM     16  O   UNL     1      46.778   1.469   6.290  0.00  0.00    +0.000 OA
BRANCH  16  17
ATOM     17  C   UNL     1      48.057   1.838   5.802  0.00  0.00    +0.000 C 
ATOM     18  F   UNL     1      47.863   2.687   4.763  0.00  0.00    +0.000 F 
ATOM     19  F   UNL     1      48.704   2.538   6.766  0.00  0.00    +0.000 F 
ENDBRANCH  16  17
ENDBRANCH  13  16
ENDBRANCH   8  10
ENDBRANCH   1   4
BRANCH   1  20
ATOM     20  N   UNL     1      47.473   6.411  13.533  0.00  0.00    +0.000 N 
ATOM     21  H   UNL     1      47.988   5.834  12.872  0.00  0.00    +0.000 HD
BRANCH  20  28
ATOM     22  C   UNL     1      49.215   7.994  15.558  0.00  0.00    +0.000 C 
ATOM     23  C   UNL     1      48.682   6.615  15.714  0.00  0.00    +0.000 A 
ATOM     24  C   UNL     1      49.074   5.934  16.879  0.00  0.00    +0.000 A 
ATOM     25  C   UNL     1      48.607   4.664  17.179  0.00  0.00    +0.000 A 
ATOM     26  C   UNL     1      47.736   4.115  16.263  0.00  0.00    +0.000 A 
ATOM     27  N   UNL     1      47.362   4.733  15.100  0.00  0.00    +0.000 NA
ATOM     28  C   UNL     1      47.848   5.973  14.803  0.00  0.00    +0.000 A 
BRANCH  25  29
ATOM     29  C   UNL     1      49.082   4.037  18.441  0.00  0.00    +0.000 C 
ATOM     30  N   UNL     1      48.316   3.103  19.070  0.00  0.00    +0.000 N 
ATOM     31  O   UNL     1      50.159   4.346  18.930  0.00  0.00    +0.000 OA
ATOM     32  H   UNL     1      47.421   2.754  18.757  0.00  0.00    +0.000 HD
ATOM     33  H   UNL     1      48.702   2.711  19.918  0.00  0.00    +0.000 HD
ENDBRANCH  25  29
ENDBRANCH  20  28
ENDBRANCH   1  20
TORSDOF 7
ENDMDL
MODEL 5
REMARK VINA RESULT:    -7.948      5.649      9.076
REMARK INTER + INTRA:         -12.066
REMARK INTER:                 -10.819
REMARK INTRA:                  -1.247
REMARK UNBOUND:                -0.866
REMARK  Name = 
REMARK  8 active torsions:
REMARK  status: ('A' for Active; 'I' for Inactive)
REMARK    1  A    between atoms: C_1  and  C_2
REMARK    2  A    between atoms: C_4  and  C_5
REMARK    3  A    between atoms: C_10  and  N_11
REMARK    4  A    between atoms: N_11  and  C_12
REMARK    5  A    between atoms: C_12  and  C_13
REMARK    6  A    between atoms: C_17  and  C_18
REMARK    7  A    between atoms: C_21  and  O_22
REMARK    8  A    between atoms: O_22  and  C_23
REMARK                            x       y       z     vdW  Elec       q    Type
REMARK                         _______ _______ _______ _____ _____    ______ ____
ROOT
ATOM      1  C   UNL     1      48.760   5.248  17.466  0.00  0.00    +0.000 C 
ATOM      2  C   UNL     1      48.114   6.009  18.640  0.00  0.00    +0.000 C 
ATOM      3  C   UNL     1      47.452   4.798  18.111  0.00  0.00    +0.000 C 
ENDROOT
BRANCH   1   4
ATOM      4  C   UNL     1      48.580   5.877  16.082  0.00  0.00    +0.000 A 
ATOM      5  C   UNL     1      49.495   6.816  15.588  0.00  0.00    +0.000 A 
ATOM      6  C   UNL     1      49.399   7.291  14.284  0.00  0.00    +0.000 A 
ATOM      7  C   UNL     1      48.395   6.813  13.443  0.00  0.00    +0.000 A 
ATOM      8  C   UNL     1      47.472   5.845  13.881  0.00  0.00    +0.000 A 
ATOM      9  C   UNL     1      47.555   5.442  15.219  0.00  0.00    +0.000 A 
BRANCH   8  10
ATOM     10  C   UNL     1      46.545   5.181  12.941  0.00  0.00    +0.000 A 
ATOM     11  C   UNL     1      46.132   5.849  11.774  0.00  0.00    +0.000 A 
ATOM     12  C   UNL     1      45.318   5.234  10.821  0.00  0.00    +0.000 A 
ATOM     13  C   UNL     1      44.924   3.912  10.996  0.00  0.00    +0.000 A 
ATOM     14  C   UNL     1      45.303   3.233  12.153  0.00  0.00    +0.000 A 
ATOM     15  C   UNL     1      46.106   3.858  13.114  0.00  0.00    +0.000 A 
BRANCH  13  16
ATOM     16  O   UNL     1      44.166   3.196  10.116  0.00  0.00    +0.000 OA
BRANCH  16  17
ATOM     17  C   UNL     1      44.897   2.512   9.113  0.00  0.00    +0.000 C 
ATOM     18  F   UNL     1      44.393   1.255   9.033  0.00  0.00    +0.000 F 
ATOM     19  F   UNL     1      44.657   3.107   7.919  0.00  0.00    +0.000 F 
ENDBRANCH  16  17
ENDBRANCH  13  16
ENDBRANCH   8  10
ENDBRANCH   1   4
BRANCH   1  20
ATOM     20  N   UNL     1      50.158   4.865  17.730  0.00  0.00    +0.000 N 
ATOM     21  H   UNL     1      50.828   5.631  17.755  0.00  0.00    +0.000 HD
BRANCH  20  28
ATOM     22  C   UNL     1      49.145   2.147  16.622  0.00  0.00    +0.000 C 
ATOM     23  C   UNL     1      50.481   2.442  17.204  0.00  0.00    +0.000 A 
ATOM     24  C   UNL     1      51.351   1.344  17.327  0.00  0.00    +0.000 A 
ATOM     25  C   UNL     1      52.646   1.484  17.802  0.00  0.00    +0.000 A 
ATOM     26  C   UNL     1      53.023   2.765  18.143  0.00  0.00    +0.000 A 
ATOM     27  N   UNL     1      52.191   3.850  18.071  0.00  0.00    +0.000 NA
ATOM     28  C   UNL     1      50.910   3.696  17.627  0.00  0.00    +0.000 A 
BRANCH  25  29
ATOM     29  C   UNL     1      53.483   0.258  17.887  0.00  0.00    +0.000 C 
ATOM     30  N   UNL     1      53.873  -0.383  16.750  0.00  0.00    +0.000 N 
ATOM     31  O   UNL     1      53.833  -0.191  18.969  0.00  0.00    +0.000 OA
ATOM     32  H   UNL     1      53.663  -0.101  15.803  0.00  0.00    +0.000 HD
ATOM     33  H   UNL     1      54.447  -1.205  16.880  0.00  0.00    +0.000 HD
ENDBRANCH  25  29
ENDBRANCH  20  28
ENDBRANCH   1  20
TORSDOF 7
ENDMDL
MODEL 6
REMARK VINA RESULT:    -7.375      3.442      5.231
REMARK INTER + INTRA:         -11.260
REMARK INTER:                  -9.808
REMARK INTRA:                  -1.451
REMARK UNBOUND:                -0.866
REMARK  Name = 
REMARK  8 active torsions:
REMARK  status: ('A' for Active; 'I' for Inactive)
REMARK    1  A    between atoms: C_1  and  C_2
REMARK    2  A    between atoms: C_4  and  C_5
REMARK    3  A    between atoms: C_10  and  N_11
REMARK    4  A    between atoms: N_11  and  C_12
REMARK    5  A    between atoms: C_12  and  C_13
REMARK    6  A    between atoms: C_17  and  C_18
REMARK    7  A    between atoms: C_21  and  O_22
REMARK    8  A    between atoms: O_22  and  C_23
REMARK                            x       y       z     vdW  Elec       q    Type
REMARK                         _______ _______ _______ _____ _____    ______ ____
ROOT
ATOM      1  C   UNL     1      47.895   7.846  13.273  0.00  0.00    +0.000 C 
ATOM      2  C   UNL     1      48.079   9.082  12.371  0.00  0.00    +0.000 C 
ATOM      3  C   UNL     1      48.926   7.892  12.148  0.00  0.00    +0.000 C 
ENDROOT
BRANCH   1   4
ATOM      4  C   UNL     1      48.507   7.944  14.673  0.00  0.00    +0.000 A 
ATOM      5  C   UNL     1      48.128   8.960  15.560  0.00  0.00    +0.000 A 
ATOM      6  C   UNL     1      48.590   8.974  16.872  0.00  0.00    +0.000 A 
ATOM      7  C   UNL     1      49.422   7.952  17.326  0.00  0.00    +0.000 A 
ATOM      8  C   UNL     1      49.804   6.890  16.484  0.00  0.00    +0.000 A 
ATOM      9  C   UNL     1      49.378   6.945  15.152  0.00  0.00    +0.000 A 
BRANCH   8  10
ATOM     10  C   UNL     1      50.505   5.701  17.011  0.00  0.00    +0.000 A 
ATOM     11  C   UNL     1      49.779   4.537  17.322  0.00  0.00    +0.000 A 
ATOM     12  C   UNL     1      50.408   3.367  17.750  0.00  0.00    +0.000 A 
ATOM     13  C   UNL     1      51.794   3.321  17.845  0.00  0.00    +0.000 A 
ATOM     14  C   UNL     1      52.537   4.466  17.563  0.00  0.00    +0.000 A 
ATOM     15  C   UNL     1      51.902   5.642  17.149  0.00  0.00    +0.000 A 
BRANCH  13  16
ATOM     16  O   UNL     1      52.520   2.225  18.212  0.00  0.00    +0.000 OA
BRANCH  16  17
ATOM     17  C   UNL     1      52.279   1.060  17.442  0.00  0.00    +0.000 C 
ATOM     18  F   UNL     1      53.464   0.684  16.898  0.00  0.00    +0.000 F 
ATOM     19  F   UNL     1      51.894   0.062  18.274  0.00  0.00    +0.000 F 
ENDBRANCH  16  17
ENDBRANCH  13  16
ENDBRANCH   8  10
ENDBRANCH   1   4
BRANCH   1  20
ATOM     20  N   UNL     1      46.506   7.356  13.302  0.00  0.00    +0.000 N 
ATOM     21  H   UNL     1      45.894   7.806  13.979  0.00  0.00    +0.000 HD
BRANCH  20  28
ATOM     22  C   UNL     1      46.806   4.543  14.581  0.00  0.00    +0.000 C 
ATOM     23  C   UNL     1      46.000   4.908  13.387  0.00  0.00    +0.000 A 
ATOM     24  C   UNL     1      45.363   3.842  12.728  0.00  0.00    +0.000 A 
ATOM     25  C   UNL     1      44.537   4.044  11.635  0.00  0.00    +0.000 A 
ATOM     26  C   UNL     1      44.380   5.355  11.237  0.00  0.00    +0.000 A 
ATOM     27  N   UNL     1      45.014   6.413  11.831  0.00  0.00    +0.000 NA
ATOM     28  C   UNL     1      45.846   6.200  12.891  0.00  0.00    +0.000 A 
BRANCH  25  29
ATOM     29  C   UNL     1      43.909   2.846  11.016  0.00  0.00    +0.000 C 
ATOM     30  N   UNL     1      44.443   2.302   9.887  0.00  0.00    +0.000 N 
ATOM     31  O   UNL     1      42.914   2.334  11.507  0.00  0.00    +0.000 OA
ATOM     32  H   UNL     1      45.268   2.623   9.401  0.00  0.00    +0.000 HD
ATOM     33  H   UNL     1      43.972   1.484   9.524  0.00  0.00    +0.000 HD
ENDBRANCH  25  29
ENDBRANCH  20  28
ENDBRANCH   1  20
TORSDOF 7
ENDMDL
MODEL 7
REMARK VINA RESULT:    -7.140      5.099      8.673
REMARK INTER + INTRA:         -10.928
REMARK INTER:                  -9.253
REMARK INTRA:                  -1.675
REMARK UNBOUND:                -0.866
REMARK  Name = 
REMARK  8 active torsions:
REMARK  status: ('A' for Active; 'I' for Inactive)
REMARK    1  A    between atoms: C_1  and  C_2
REMARK    2  A    between atoms: C_4  and  C_5
REMARK    3  A    between atoms: C_10  and  N_11
REMARK    4  A    between atoms: N_11  and  C_12
REMARK    5  A    between atoms: C_12  and  C_13
REMARK    6  A    between atoms: C_17  and  C_18
REMARK    7  A    between atoms: C_21  and  O_22
REMARK    8  A    between atoms: O_22  and  C_23
REMARK                            x       y       z     vdW  Elec       q    Type
REMARK                         _______ _______ _______ _____ _____    ______ ____
ROOT
ATOM      1  C   UNL     1      48.902   8.644  17.402  0.00  0.00    +0.000 C 
ATOM      2  C   UNL     1      49.416   9.990  17.947  0.00  0.00    +0.000 C 
ATOM      3  C   UNL     1      47.981   9.840  17.631  0.00  0.00    +0.000 C 
ENDROOT
BRANCH   1   4
ATOM      4  C   UNL     1      49.194   8.365  15.925  0.00  0.00    +0.000 A 
ATOM      5  C   UNL     1      50.479   8.538  15.396  0.00  0.00    +0.000 A 
ATOM      6  C   UNL     1      50.770   8.165  14.087  0.00  0.00    +0.000 A 
ATOM      7  C   UNL     1      49.780   7.588  13.294  0.00  0.00    +0.000 A 
ATOM      8  C   UNL     1      48.483   7.362  13.790  0.00  0.00    +0.000 A 
ATOM      9  C   UNL     1      48.206   7.813  15.086  0.00  0.00    +0.000 A 
BRANCH   8  10
ATOM     10  C   UNL     1      47.495   6.563  13.034  0.00  0.00    +0.000 A 
ATOM     11  C   UNL     1      46.922   5.418  13.618  0.00  0.00    +0.000 A 
ATOM     12  C   UNL     1      45.932   4.678  12.972  0.00  0.00    +0.000 A 
ATOM     13  C   UNL     1      45.459   5.088  11.730  0.00  0.00    +0.000 A 
ATOM     14  C   UNL     1      46.023   6.207  11.119  0.00  0.00    +0.000 A 
ATOM     15  C   UNL     1      47.028   6.938  11.763  0.00  0.00    +0.000 A 
BRANCH  13  16
ATOM     16  O   UNL     1      44.469   4.470  11.023  0.00  0.00    +0.000 OA
BRANCH  16  17
ATOM     17  C   UNL     1      44.182   3.142  11.428  0.00  0.00    +0.000 C 
ATOM     18  F   UNL     1      42.991   3.167  12.077  0.00  0.00    +0.000 F 
ATOM     19  F   UNL     1      44.012   2.378  10.322  0.00  0.00    +0.000 F 
ENDBRANCH  16  17
ENDBRANCH  13  16
ENDBRANCH   8  10
ENDBRANCH   1   4
BRANCH   1  20
ATOM     20  N   UNL     1      49.250   7.503  18.267  0.00  0.00    +0.000 N 
ATOM     21  H   UNL     1      49.526   7.739  19.218  0.00  0.00    +0.000 HD
BRANCH  20  28
ATOM     22  C   UNL     1      52.173   6.499  17.971  0.00  0.00    +0.000 C 
ATOM     23  C   UNL     1      50.928   5.694  17.860  0.00  0.00    +0.000 A 
ATOM     24  C   UNL     1      51.101   4.344  17.513  0.00  0.00    +0.000 A 
ATOM     25  C   UNL     1      50.033   3.465  17.428  0.00  0.00    +0.000 A 
ATOM     26  C   UNL     1      48.794   4.001  17.707  0.00  0.00    +0.000 A 
ATOM     27  N   UNL     1      48.584   5.318  18.012  0.00  0.00    +0.000 NA
ATOM     28  C   UNL     1      49.640   6.180  18.067  0.00  0.00    +0.000 A 
BRANCH  25  29
ATOM     29  C   UNL     1      50.329   2.056  17.057  0.00  0.00    +0.000 C 
ATOM     30  N   UNL     1      51.225   1.332  17.784  0.00  0.00    +0.000 N 
ATOM     31  O   UNL     1      49.778   1.528  16.102  0.00  0.00    +0.000 OA
ATOM     32  H   UNL     1      51.729   1.650  18.600  0.00  0.00    +0.000 HD
ATOM     33  H   UNL     1      51.373   0.378  17.482  0.00  0.00    +0.000 HD
ENDBRANCH  25  29
ENDBRANCH  20  28
ENDBRANCH   1  20
TORSDOF 7
ENDMDL
MODEL 8
REMARK VINA RESULT:    -6.902      4.818      9.072
REMARK INTER + INTRA:         -10.593
REMARK INTER:                  -9.151
REMARK INTRA:                  -1.441
REMARK UNBOUND:                -0.866
REMARK  Name = 
REMARK  8 active torsions:
REMARK  status: ('A' for Active; 'I' for Inactive)
REMARK    1  A    between atoms: C_1  and  C_2
REMARK    2  A    between atoms: C_4  and  C_5
REMARK    3  A    between atoms: C_10  and  N_11
REMARK    4  A    between atoms: N_11  and  C_12
REMARK    5  A    between atoms: C_12  and  C_13
REMARK    6  A    between atoms: C_17  and  C_18
REMARK    7  A    between atoms: C_21  and  O_22
REMARK    8  A    between atoms: O_22  and  C_23
REMARK                            x       y       z     vdW  Elec       q    Type
REMARK                         _______ _______ _______ _____ _____    ______ ____
ROOT
ATOM      1  C   UNL     1      50.029   8.696  13.022  0.00  0.00    +0.000 C 
ATOM      2  C   UNL     1      50.938   8.114  11.922  0.00  0.00    +0.000 C 
ATOM      3  C   UNL     1      50.789   9.580  12.036  0.00  0.00    +0.000 C 
ENDROOT
BRANCH   1   4
ATOM      4  C   UNL     1      48.524   8.626  12.753  0.00  0.00    +0.000 A 
ATOM      5  C   UNL     1      47.757   9.790  12.622  0.00  0.00    +0.000 A 
ATOM      6  C   UNL     1      46.416   9.725  12.253  0.00  0.00    +0.000 A 
ATOM      7  C   UNL     1      45.829   8.490  11.985  0.00  0.00    +0.000 A 
ATOM      8  C   UNL     1      46.566   7.295  12.070  0.00  0.00    +0.000 A 
ATOM      9  C   UNL     1      47.891   7.390  12.511  0.00  0.00    +0.000 A 
BRANCH   8  10
ATOM     10  C   UNL     1      46.014   6.012  11.586  0.00  0.00    +0.000 A 
ATOM     11  C   UNL     1      45.793   4.957  12.491  0.00  0.00    +0.000 A 
ATOM     12  C   UNL     1      45.205   3.755  12.093  0.00  0.00    +0.000 A 
ATOM     13  C   UNL     1      44.786   3.591  10.777  0.00  0.00    +0.000 A 
ATOM     14  C   UNL     1      45.011   4.612   9.856  0.00  0.00    +0.000 A 
ATOM     15  C   UNL     1      45.615   5.810  10.254  0.00  0.00    +0.000 A 
BRANCH  13  16
ATOM     16  O   UNL     1      44.164   2.482  10.284  0.00  0.00    +0.000 OA
BRANCH  16  17
ATOM     17  C   UNL     1      44.666   2.015   9.042  0.00  0.00    +0.000 C 
ATOM     18  F   UNL     1      46.013   1.910   9.166  0.00  0.00    +0.000 F 
ATOM     19  F   UNL     1      44.192   0.764   8.825  0.00  0.00    +0.000 F 
ENDBRANCH  16  17
ENDBRANCH  13  16
ENDBRANCH   8  10
ENDBRANCH   1   4
BRANCH   1  20
ATOM     20  N   UNL     1      50.381   8.217  14.370  0.00  0.00    +0.000 N 
ATOM     21  H   UNL     1      51.326   7.856  14.477  0.00  0.00    +0.000 HD
BRANCH  20  28
ATOM     22  C   UNL     1      48.939  10.063  16.408  0.00  0.00    +0.000 C 
ATOM     23  C   UNL     1      49.075   8.584  16.471  0.00  0.00    +0.000 A 
ATOM     24  C   UNL     1      48.550   7.970  17.621  0.00  0.00    +0.000 A 
ATOM     25  C   UNL     1      48.558   6.594  17.786  0.00  0.00    +0.000 A 
ATOM     26  C   UNL     1      49.112   5.870  16.752  0.00  0.00    +0.000 A 
ATOM     27  N   UNL     1      49.666   6.437  15.636  0.00  0.00    +0.000 NA
ATOM     28  C   UNL     1      49.675   7.794  15.496  0.00  0.00    +0.000 A 
BRANCH  25  29
ATOM     29  C   UNL     1      47.973   6.048  19.040  0.00  0.00    +0.000 C 
ATOM     30  N   UNL     1      47.037   5.060  18.982  0.00  0.00    +0.000 N 
ATOM     31  O   UNL     1      48.319   6.472  20.133  0.00  0.00    +0.000 OA
ATOM     32  H   UNL     1      46.684   4.618  18.145  0.00  0.00    +0.000 HD
ATOM     33  H   UNL     1      46.686   4.730  19.872  0.00  0.00    +0.000 HD
ENDBRANCH  25  29
ENDBRANCH  20  28
ENDBRANCH   1  20
TORSDOF 7
ENDMDL
MODEL 9
REMARK VINA RESULT:    -6.529      5.667      9.551
REMARK INTER + INTRA:         -10.067
REMARK INTER:                  -9.179
REMARK INTRA:                  -0.888
REMARK UNBOUND:                -0.866
REMARK  Name = 
REMARK  8 active torsions:
REMARK  status: ('A' for Active; 'I' for Inactive)
REMARK    1  A    between atoms: C_1  and  C_2
REMARK    2  A    between atoms: C_4  and  C_5
REMARK    3  A    between atoms: C_10  and  N_11
REMARK    4  A    between atoms: N_11  and  C_12
REMARK    5  A    between atoms: C_12  and  C_13
REMARK    6  A    between atoms: C_17  and  C_18
REMARK    7  A    between atoms: C_21  and  O_22
REMARK    8  A    between atoms: O_22  and  C_23
REMARK                            x       y       z     vdW  Elec       q    Type
REMARK                         _______ _______ _______ _____ _____    ______ ____
ROOT
ATOM      1  C   UNL     1      48.400   3.959  16.945  0.00  0.00    +0.000 C 
ATOM      2  C   UNL     1      47.196   3.296  17.641  0.00  0.00    +0.000 C 
ATOM      3  C   UNL     1      47.937   2.544  16.608  0.00  0.00    +0.000 C 
ENDROOT
BRANCH   1   4
ATOM      4  C   UNL     1      48.064   4.990  15.865  0.00  0.00    +0.000 A 
ATOM      5  C   UNL     1      48.759   6.204  15.782  0.00  0.00    +0.000 A 
ATOM      6  C   UNL     1      48.538   7.083  14.726  0.00  0.00    +0.000 A 
ATOM      7  C   UNL     1      47.632   6.748  13.721  0.00  0.00    +0.000 A 
ATOM      8  C   UNL     1      46.934   5.526  13.742  0.00  0.00    +0.000 A 
ATOM      9  C   UNL     1      47.128   4.698  14.853  0.00  0.00    +0.000 A 
BRANCH   8  10
ATOM     10  C   UNL     1      46.139   5.072  12.582  0.00  0.00    +0.000 A 
ATOM     11  C   UNL     1      46.006   5.902  11.453  0.00  0.00    +0.000 A 
ATOM     12  C   UNL     1      45.328   5.485  10.307  0.00  0.00    +0.000 A 
ATOM     13  C   UNL     1      44.793   4.203  10.247  0.00  0.00    +0.000 A 
ATOM     14  C   UNL     1      44.892   3.367  11.358  0.00  0.00    +0.000 A 
ATOM     15  C   UNL     1      45.559   3.794  12.512  0.00  0.00    +0.000 A 
BRANCH  13  16
ATOM     16  O   UNL     1      44.147   3.672   9.169  0.00  0.00    +0.000 OA
BRANCH  16  17
ATOM     17  C   UNL     1      44.967   2.927   8.284  0.00  0.00    +0.000 C 
ATOM     18  F   UNL     1      46.196   3.503   8.293  0.00  0.00    +0.000 F 
ATOM     19  F   UNL     1      45.116   1.675   8.781  0.00  0.00    +0.000 F 
ENDBRANCH  16  17
ENDBRANCH  13  16
ENDBRANCH   8  10
ENDBRANCH   1   4
BRANCH   1  20
ATOM     20  N   UNL     1      49.413   4.451  17.894  0.00  0.00    +0.000 N 
ATOM     21  H   UNL     1      49.109   5.196  18.517  0.00  0.00    +0.000 HD
BRANCH  20  28
ATOM     22  C   UNL     1      51.212   1.970  17.392  0.00  0.00    +0.000 C 
ATOM     23  C   UNL     1      51.645   3.324  17.827  0.00  0.00    +0.000 A 
ATOM     24  C   UNL     1      53.015   3.468  18.107  0.00  0.00    +0.000 A 
ATOM     25  C   UNL     1      53.565   4.687  18.469  0.00  0.00    +0.000 A 
ATOM     26  C   UNL     1      52.685   5.746  18.535  0.00  0.00    +0.000 A 
ATOM     27  N   UNL     1      51.340   5.634  18.305  0.00  0.00    +0.000 NA
ATOM     28  C   UNL     1      50.805   4.424  17.975  0.00  0.00    +0.000 A 
BRANCH  25  29
ATOM     29  C   UNL     1      55.027   4.729  18.739  0.00  0.00    +0.000 C 
ATOM     30  N   UNL     1      55.774   5.779  18.297  0.00  0.00    +0.000 N 
ATOM     31  O   UNL     1      55.578   3.830  19.358  0.00  0.00    +0.000 OA
ATOM     32  H   UNL     1      55.432   6.585  17.794  0.00  0.00    +0.000 HD
ATOM     33  H   UNL     1      56.759   5.748  18.522  0.00  0.00    +0.000 HD
ENDBRANCH  25  29
ENDBRANCH  20  28
ENDBRANCH   1  20
TORSDOF 7
ENDMDL
