MODEL 1
REMARK VINA RESULT:    -8.295      0.000      0.000
REMARK INTER + INTRA:         -11.443
REMARK INTER:                 -10.719
REMARK INTRA:                  -0.724
REMARK UNBOUND:                -0.724
REMARK  Name = 
REMARK  5 active torsions:
REMARK  status: ('A' for Active; 'I' for Inactive)
REMARK    1  A    between atoms: C_2  and  C_20
REMARK    2  A    between atoms: N_3  and  C_4
REMARK    3  A    between atoms: C_4  and  C_5
REMARK    4  A    between atoms: C_8  and  C_9
REMARK    5  A    between atoms: C_9  and  N_10
REMARK                            x       y       z     vdW  Elec       q    Type
REMARK                         _______ _______ _______ _____ _____    ______ ____
ROOT
ATOM      1  C   UNL     1      47.910   7.030  14.260  0.00  0.00    +0.000 C 
ENDROOT
BRANCH   1   2
ATOM      2  C   UNL     1      46.930   6.421  13.293  0.00  0.00    +0.000 A 
ATOM      3  C   UNL     1      46.377   7.188  12.260  0.00  0.00    +0.000 A 
ATOM      4  C   UNL     1      45.474   6.620  11.353  0.00  0.00    +0.000 A 
ATOM      5  C   UNL     1      45.093   5.276  11.469  0.00  0.00    +0.000 A 
ATOM      6  C   UNL     1      45.658   4.507  12.494  0.00  0.00    +0.000 A 
ATOM      7  C   UNL     1      46.557   5.075  13.403  0.00  0.00    +0.000 A 
BRANCH   5   8
ATOM      8  C   UNL     1      44.085   4.672  10.521  0.00  0.00    +0.000 C 
BRANCH   8   9
ATOM      9  N   UNL     1      44.659   3.619   9.712  0.00  0.00    +0.000 N 
ATOM     10  C   UNL     1      45.460   3.946   8.646  0.00  0.00    +0.000 C 
ATOM     11  O   UNL     1      45.655   5.107   8.300  0.00  0.00    +0.000 OA
ATOM     12  N   UNL     1      46.026   2.876   7.995  0.00  0.00    +0.000 N 
ATOM     13  C   UNL     1      45.770   1.463   8.192  0.00  0.00    +0.000 C 
ATOM     14  C   UNL     1      47.044   0.814   7.683  0.00  0.00    +0.000 C 
ATOM     15  C   UNL     1      47.427   1.685   6.492  0.00  0.00    +0.000 C 
ATOM     16  C   UNL     1      46.899   3.075   6.848  0.00  0.00    +0.000 C 
ATOM     17  H   UNL     1      44.931   2.793  10.215  0.00  0.00    +0.000 HD
ENDBRANCH   8   9
ENDBRANCH   5   8
ENDBRANCH   1   2
BRANCH   1  20
ATOM     18  O   UNL     1      50.313   6.609  15.541  0.00  0.00    +0.000 OA
ATOM     19  C   UNL     1      49.308   6.110  16.037  0.00  0.00    +0.000 C 
ATOM     20  N   UNL     1      48.061   6.263  15.468  0.00  0.00    +0.000 N 
ATOM     21  H   UNL     1      47.276   5.808  15.924  0.00  0.00    +0.000 HD
BRANCH  19  22
ATOM     22  C   UNL     1      49.329   5.302  17.267  0.00  0.00    +0.000 A 
ATOM     23  N   UNL     1      49.941   4.090  17.311  0.00  0.00    +0.000 NA
ATOM     24  N   UNL     1      49.773   3.684  18.593  0.00  0.00    +0.000 N 
ATOM     25  C   UNL     1      49.075   4.572  19.355  0.00  0.00    +0.000 A 
ATOM     26  N   UNL     1      48.769   4.416  20.663  0.00  0.00    +0.000 NA
ATOM     27  C   UNL     1      48.099   5.419  21.138  0.00  0.00    +0.000 A 
ATOM     28  N   UNL     1      47.720   6.535  20.418  0.00  0.00    +0.000 N 
ATOM     29  C   UNL     1      48.003   6.710  19.075  0.00  0.00    +0.000 A 
ATOM     30  O   UNL     1      47.603   7.695  18.467  0.00  0.00    +0.000 OA
ATOM     31  C   UNL     1      48.765   5.620  18.524  0.00  0.00    +0.000 A 
ATOM     32  H   UNL     1      50.157   2.793  18.887  0.00  0.00    +0.000 HD
ATOM     33  H   UNL     1      47.185   7.273  20.846  0.00  0.00    +0.000 HD
ENDBRANCH  19  22
ENDBRANCH   1  20
TORSDOF 5
ENDMDL
MODEL 2
REMARK VINA RESULT:    -8.154      1.231      2.030
REMARK INTER + INTRA:         -11.262
REMARK INTER:                 -10.797
REMARK INTRA:                  -0.464
REMARK UNBOUND:                -0.724
REMARK  Name = 
REMARK  5 active torsions:
REMARK  status: ('A' for Active; 'I' for Inactive)
REMARK    1  A    between atoms: C_2  and  C_20
REMARK    2  A    between atoms: N_3  and  C_4
REMARK    3  A    between atoms: C_4  and  C_5
REMARK    4  A    between atoms: C_8  and  C_9
REMARK    5  A    between atoms: C_9  and  N_10
REMARK                            x       y       z     vdW  Elec       q    Type
REMARK                         _______ _______ _______ _____ _____    ______ ____
ROOT
ATOM      1  C   UNL     1      47.975   7.300  13.755  0.00  0.00    +0.000 C 
ENDROOT
BRANCH   1   2
ATOM      2  C   UNL     1      47.051   6.314  13.092  0.00  0.00    +0.000 A 
ATOM      3  C   UNL     1      46.888   5.025  13.614  0.00  0.00    +0.000 A 
ATOM      4  C   UNL     1      46.019   4.111  13.006  0.00  0.00    +0.000 A 
ATOM      5  C   UNL     1      45.307   4.462  11.851  0.00  0.00    +0.000 A 
ATOM      6  C   UNL     1      45.459   5.756  11.337  0.00  0.00    +0.000 A 
ATOM      7  C   UNL     1      46.330   6.669  11.943  0.00  0.00    +0.000 A 
BRANCH   5   8
ATOM      8  C   UNL     1      44.404   3.465  11.164  0.00  0.00    +0.000 C 
BRANCH   8   9
ATOM      9  N   UNL     1      45.077   2.767  10.090  0.00  0.00    +0.000 N 
ATOM     10  C   UNL     1      45.165   3.355   8.853  0.00  0.00    +0.000 C 
ATOM     11  O   UNL     1      44.628   4.428   8.594  0.00  0.00    +0.000 OA
ATOM     12  N   UNL     1      45.897   2.653   7.927  0.00  0.00    +0.000 N 
ATOM     13  C   UNL     1      46.453   1.319   8.041  0.00  0.00    +0.000 C 
ATOM     14  C   UNL     1      47.595   1.342   7.041  0.00  0.00    +0.000 C 
ATOM     15  C   UNL     1      47.041   2.185   5.898  0.00  0.00    +0.000 C 
ATOM     16  C   UNL     1      46.075   3.159   6.574  0.00  0.00    +0.000 C 
ATOM     17  H   UNL     1      45.878   2.229  10.367  0.00  0.00    +0.000 HD
ENDBRANCH   8   9
ENDBRANCH   5   8
ENDBRANCH   1   2
BRANCH   1  20
ATOM     18  O   UNL     1      50.125   6.697  15.370  0.00  0.00    +0.000 OA
ATOM     19  C   UNL     1      49.053   6.937  15.915  0.00  0.00    +0.000 C 
ATOM     20  N   UNL     1      47.920   7.247  15.192  0.00  0.00    +0.000 N 
ATOM     21  H   UNL     1      47.063   7.418  15.708  0.00  0.00    +0.000 HD
BRANCH  19  22
ATOM     22  C   UNL     1      48.864   6.913  17.374  0.00  0.00    +0.000 A 
ATOM     23  N   UNL     1      48.622   8.049  18.079  0.00  0.00    +0.000 NA
ATOM     24  N   UNL     1      48.480   7.619  19.356  0.00  0.00    +0.000 N 
ATOM     25  C   UNL     1      48.631   6.272  19.494  0.00  0.00    +0.000 A 
ATOM     26  N   UNL     1      48.538   5.585  20.655  0.00  0.00    +0.000 NA
ATOM     27  C   UNL     1      48.724   4.312  20.494  0.00  0.00    +0.000 A 
ATOM     28  N   UNL     1      48.993   3.694  19.287  0.00  0.00    +0.000 N 
ATOM     29  C   UNL     1      49.114   4.376  18.090  0.00  0.00    +0.000 A 
ATOM     30  O   UNL     1      49.402   3.790  17.054  0.00  0.00    +0.000 OA
ATOM     31  C   UNL     1      48.892   5.791  18.234  0.00  0.00    +0.000 A 
ATOM     32  H   UNL     1      48.280   8.291  20.087  0.00  0.00    +0.000 HD
ATOM     33  H   UNL     1      49.143   2.699  19.235  0.00  0.00    +0.000 HD
ENDBRANCH  19  22
ENDBRANCH   1  20
TORSDOF 5
ENDMDL
MODEL 3
REMARK VINA RESULT:    -8.075      1.588      9.893
REMARK INTER + INTRA:         -11.160
REMARK INTER:                 -10.360
REMARK INTRA:                  -0.800
REMARK UNBOUND:                -0.724
REMARK  Name = 
REMARK  5 active torsions:
REMARK  status: ('A' for Active; 'I' for Inactive)
REMARK    1  A    between atoms: C_2  and  C_20
REMARK    2  A    between atoms: N_3  and  C_4
REMARK    3  A    between atoms: C_4  and  C_5
REMARK    4  A    between atoms: C_8  and  C_9
REMARK    5  A    between atoms: C_9  and  N_10
REMARK                            x       y       z     vdW  Elec       q    Type
REMARK                         _______ _______ _______ _____ _____    ______ ____
ROOT
ATOM      1  C   UNL     1      45.023   6.486  11.004  0.00  0.00    +0.000 C 
ENDROOT
BRANCH   1   2
ATOM      2  C   UNL     1      45.978   6.900  12.091  0.00  0.00    +0.000 A 
ATOM      3  C   UNL     1      46.962   6.016  12.551  0.00  0.00    +0.000 A 
ATOM      4  C   UNL     1      47.859   6.404  13.554  0.00  0.00    +0.000 A 
ATOM      5  C   UNL     1      47.780   7.679  14.130  0.00  0.00    +0.000 A 
ATOM      6  C   UNL     1      46.804   8.567  13.659  0.00  0.00    +0.000 A 
ATOM      7  C   UNL     1      45.906   8.179  12.659  0.00  0.00    +0.000 A 
BRANCH   5   8
ATOM      8  C   UNL     1      48.715   8.086  15.244  0.00  0.00    +0.000 C 
BRANCH   8   9
ATOM      9  N   UNL     1      48.341   7.501  16.513  0.00  0.00    +0.000 N 
ATOM     10  C   UNL     1      49.037   6.419  16.990  0.00  0.00    +0.000 C 
ATOM     11  O   UNL     1      49.928   5.872  16.345  0.00  0.00    +0.000 OA
ATOM     12  N   UNL     1      48.663   5.992  18.241  0.00  0.00    +0.000 N 
ATOM     13  C   UNL     1      47.543   6.436  19.047  0.00  0.00    +0.000 C 
ATOM     14  C   UNL     1      47.985   6.094  20.458  0.00  0.00    +0.000 C 
ATOM     15  C   UNL     1      48.730   4.776  20.281  0.00  0.00    +0.000 C 
ATOM     16  C   UNL     1      49.318   4.855  18.871  0.00  0.00    +0.000 C 
ATOM     17  H   UNL     1      48.035   8.155  17.211  0.00  0.00    +0.000 HD
ENDBRANCH   8   9
ENDBRANCH   5   8
ENDBRANCH   1   2
BRANCH   1  20
ATOM     18  O   UNL     1      43.234   4.597  10.094  0.00  0.00    +0.000 OA
ATOM     19  C   UNL     1      44.430   4.373   9.936  0.00  0.00    +0.000 C 
ATOM     20  N   UNL     1      45.400   5.257  10.359  0.00  0.00    +0.000 N 
ATOM     21  H   UNL     1      46.370   4.998  10.210  0.00  0.00    +0.000 HD
BRANCH  19  22
ATOM     22  C   UNL     1      44.945   3.153   9.295  0.00  0.00    +0.000 A 
ATOM     23  N   UNL     1      44.461   1.924   9.612  0.00  0.00    +0.000 NA
ATOM     24  N   UNL     1      45.151   1.081   8.806  0.00  0.00    +0.000 N 
ATOM     25  C   UNL     1      46.054   1.715   8.007  0.00  0.00    +0.000 A 
ATOM     26  N   UNL     1      46.870   1.113   7.111  0.00  0.00    +0.000 NA
ATOM     27  C   UNL     1      47.627   1.959   6.484  0.00  0.00    +0.000 A 
ATOM     28  N   UNL     1      47.630   3.325   6.686  0.00  0.00    +0.000 N 
ATOM     29  C   UNL     1      46.821   3.963   7.611  0.00  0.00    +0.000 A 
ATOM     30  O   UNL     1      46.894   5.172   7.788  0.00  0.00    +0.000 OA
ATOM     31  C   UNL     1      45.953   3.051   8.309  0.00  0.00    +0.000 A 
ATOM     32  H   UNL     1      44.961   0.086   8.847  0.00  0.00    +0.000 HD
ATOM     33  H   UNL     1      48.257   3.925   6.175  0.00  0.00    +0.000 HD
ENDBRANCH  19  22
ENDBRANCH   1  20
TORSDOF 5
ENDMDL
MODEL 4
REMARK VINA RESULT:    -7.792      3.488      8.920
REMARK INTER + INTRA:         -10.794
REMARK INTER:                  -9.834
REMARK INTRA:                  -0.960
REMARK UNBOUND:                -0.724
REMARK  Name = 
REMARK  5 active torsions:
REMARK  status: ('A' for Active; 'I' for Inactive)
REMARK    1  A    between atoms: C_2  and  C_20
REMARK    2  A    between atoms: N_3  and  C_4
REMARK    3  A    between atoms: C_4  and  C_5
REMARK    4  A    between atoms: C_8  and  C_9
REMARK    5  A    between atoms: C_9  and  N_10
REMARK                            x       y       z     vdW  Elec       q    Type
REMARK                         _______ _______ _______ _____ _____    ______ ____
ROOT
ATOM      1  C   UNL     1      48.163   7.189  14.393  0.00  0.00    +0.000 C 
ENDROOT
BRANCH   1   2
ATOM      2  C   UNL     1      48.693   6.276  15.465  0.00  0.00    +0.000 A 
ATOM      3  C   UNL     1      47.949   5.170  15.894  0.00  0.00    +0.000 A 
ATOM      4  C   UNL     1      48.446   4.313  16.883  0.00  0.00    +0.000 A 
ATOM      5  C   UNL     1      49.692   4.554  17.478  0.00  0.00    +0.000 A 
ATOM      6  C   UNL     1      50.442   5.652  17.038  0.00  0.00    +0.000 A 
ATOM      7  C   UNL     1      49.944   6.511  16.052  0.00  0.00    +0.000 A 
BRANCH   5   8
ATOM      8  C   UNL     1      50.212   3.659  18.577  0.00  0.00    +0.000 C 
BRANCH   8   9
ATOM      9  N   UNL     1      51.585   3.260  18.355  0.00  0.00    +0.000 N 
ATOM     10  C   UNL     1      51.849   2.042  17.779  0.00  0.00    +0.000 C 
ATOM     11  O   UNL     1      50.965   1.235  17.508  0.00  0.00    +0.000 OA
ATOM     12  N   UNL     1      53.177   1.794  17.530  0.00  0.00    +0.000 N 
ATOM     13  C   UNL     1      54.331   2.576  17.929  0.00  0.00    +0.000 C 
ATOM     14  C   UNL     1      55.379   2.179  16.906  0.00  0.00    +0.000 C 
ATOM     15  C   UNL     1      55.107   0.695  16.686  0.00  0.00    +0.000 C 
ATOM     16  C   UNL     1      53.604   0.543  16.921  0.00  0.00    +0.000 C 
ATOM     17  H   UNL     1      52.208   4.002  18.093  0.00  0.00    +0.000 HD
ENDBRANCH   8   9
ENDBRANCH   5   8
ENDBRANCH   1   2
BRANCH   1  20
ATOM     18  O   UNL     1      47.734   7.072  11.673  0.00  0.00    +0.000 OA
ATOM     19  C   UNL     1      46.834   6.680  12.409  0.00  0.00    +0.000 C 
ATOM     20  N   UNL     1      46.954   6.701  13.783  0.00  0.00    +0.000 N 
ATOM     21  H   UNL     1      46.163   6.377  14.330  0.00  0.00    +0.000 HD
BRANCH  19  22
ATOM     22  C   UNL     1      45.550   6.162  11.911  0.00  0.00    +0.000 A 
ATOM     23  N   UNL     1      44.685   6.950  11.221  0.00  0.00    +0.000 NA
ATOM     24  N   UNL     1      43.658   6.121  10.917  0.00  0.00    +0.000 N 
ATOM     25  C   UNL     1      43.825   4.854  11.389  0.00  0.00    +0.000 A 
ATOM     26  N   UNL     1      42.954   3.832  11.226  0.00  0.00    +0.000 NA
ATOM     27  C   UNL     1      43.369   2.735  11.779  0.00  0.00    +0.000 A 
ATOM     28  N   UNL     1      44.558   2.592  12.468  0.00  0.00    +0.000 N 
ATOM     29  C   UNL     1      45.456   3.626  12.667  0.00  0.00    +0.000 A 
ATOM     30  O   UNL     1      46.474   3.462  13.327  0.00  0.00    +0.000 OA
ATOM     31  C   UNL     1      45.031   4.854  12.046  0.00  0.00    +0.000 A 
ATOM     32  H   UNL     1      42.872   6.477  10.384  0.00  0.00    +0.000 HD
ATOM     33  H   UNL     1      44.813   1.713  12.889  0.00  0.00    +0.000 HD
ENDBRANCH  19  22
ENDBRANCH   1  20
TORSDOF 5
ENDMDL
MODEL 5
REMARK VINA RESULT:    -7.580      4.565      9.329
REMARK INTER + INTRA:         -10.520
REMARK INTER:                  -9.711
REMARK INTRA:                  -0.809
REMARK UNBOUND:                -0.724
REMARK  Name = 
REMARK  5 active torsions:
REMARK  status: ('A' for Active; 'I' for Inactive)
REMARK    1  A    between atoms: C_2  and  C_20
REMARK    2  A    between atoms: N_3  and  C_4
REMARK    3  A    between atoms: C_4  and  C_5
REMARK    4  A    between atoms: C_8  and  C_9
REMARK    5  A    between atoms: C_9  and  N_10
REMARK                            x       y       z     vdW  Elec       q    Type
REMARK                         _______ _______ _______ _____ _____    ______ ____
ROOT
ATOM      1  C   UNL     1      44.330   3.339  12.015  0.00  0.00    +0.000 C 
ENDROOT
BRANCH   1   2
ATOM      2  C   UNL     1      44.907   4.696  12.313  0.00  0.00    +0.000 A 
ATOM      3  C   UNL     1      44.239   5.860  11.913  0.00  0.00    +0.000 A 
ATOM      4  C   UNL     1      44.768   7.124  12.199  0.00  0.00    +0.000 A 
ATOM      5  C   UNL     1      45.988   7.251  12.879  0.00  0.00    +0.000 A 
ATOM      6  C   UNL     1      46.648   6.086  13.291  0.00  0.00    +0.000 A 
ATOM      7  C   UNL     1      46.121   4.823  13.002  0.00  0.00    +0.000 A 
BRANCH   5   8
ATOM      8  C   UNL     1      46.586   8.610  13.150  0.00  0.00    +0.000 C 
BRANCH   8   9
ATOM      9  N   UNL     1      47.976   8.684  12.760  0.00  0.00    +0.000 N 
ATOM     10  C   UNL     1      48.389   9.686  11.917  0.00  0.00    +0.000 C 
ATOM     11  O   UNL     1      47.608  10.490  11.416  0.00  0.00    +0.000 OA
ATOM     12  N   UNL     1      49.741   9.722  11.676  0.00  0.00    +0.000 N 
ATOM     13  C   UNL     1      50.753   8.762  12.070  0.00  0.00    +0.000 C 
ATOM     14  C   UNL     1      52.024   9.592  12.077  0.00  0.00    +0.000 C 
ATOM     15  C   UNL     1      51.833  10.532  10.892  0.00  0.00    +0.000 C 
ATOM     16  C   UNL     1      50.319  10.733  10.803  0.00  0.00    +0.000 C 
ATOM     17  H   UNL     1      48.635   8.425  13.472  0.00  0.00    +0.000 HD
ENDBRANCH   8   9
ENDBRANCH   5   8
ENDBRANCH   1   2
BRANCH   1  20
ATOM     18  O   UNL     1      43.798   3.482   9.314  0.00  0.00    +0.000 OA
ATOM     19  C   UNL     1      44.722   2.761   9.676  0.00  0.00    +0.000 C 
ATOM     20  N   UNL     1      45.063   2.623  11.005  0.00  0.00    +0.000 N 
ATOM     21  H   UNL     1      45.829   1.996  11.232  0.00  0.00    +0.000 HD
BRANCH  19  22
ATOM     22  C   UNL     1      45.546   1.974   8.744  0.00  0.00    +0.000 A 
ATOM     23  N   UNL     1      45.548   0.616   8.769  0.00  0.00    +0.000 NA
ATOM     24  N   UNL     1      46.387   0.270   7.764  0.00  0.00    +0.000 N 
ATOM     25  C   UNL     1      46.924   1.340   7.114  0.00  0.00    +0.000 A 
ATOM     26  N   UNL     1      47.789   1.277   6.076  0.00  0.00    +0.000 NA
ATOM     27  C   UNL     1      48.137   2.452   5.649  0.00  0.00    +0.000 A 
ATOM     28  N   UNL     1      47.697   3.651   6.175  0.00  0.00    +0.000 N 
ATOM     29  C   UNL     1      46.830   3.743   7.249  0.00  0.00    +0.000 A 
ATOM     30  O   UNL     1      46.507   4.830   7.711  0.00  0.00    +0.000 OA
ATOM     31  C   UNL     1      46.410   2.453   7.732  0.00  0.00    +0.000 A 
ATOM     32  H   UNL     1      46.553  -0.711   7.569  0.00  0.00    +0.000 HD
ATOM     33  H   UNL     1      48.021   4.530   5.805  0.00  0.00    +0.000 HD
ENDBRANCH  19  22
ENDBRANCH   1  20
TORSDOF 5
ENDMDL
MODEL 6
REMARK VINA RESULT:    -7.537      2.276      3.301
REMARK INTER + INTRA:         -10.465
REMARK INTER:                  -9.556
REMARK INTRA:                  -0.909
REMARK UNBOUND:                -0.724
REMARK  Name = 
REMARK  5 active torsions:
REMARK  status: ('A' for Active; 'I' for Inactive)
REMARK    1  A    between atoms: C_2  and  C_20
REMARK    2  A    between atoms: N_3  and  C_4
REMARK    3  A    between atoms: C_4  and  C_5
REMARK    4  A    between atoms: C_8  and  C_9
REMARK    5  A    between atoms: C_9  and  N_10
REMARK                            x       y       z     vdW  Elec       q    Type
REMARK                         _______ _______ _______ _____ _____    ______ ____
ROOT
ATOM      1  C   UNL     1      48.170   5.653  14.993  0.00  0.00    +0.000 C 
ENDROOT
BRANCH   1   2
ATOM      2  C   UNL     1      47.184   5.331  13.903  0.00  0.00    +0.000 A 
ATOM      3  C   UNL     1      46.675   4.034  13.762  0.00  0.00    +0.000 A 
ATOM      4  C   UNL     1      45.748   3.735  12.756  0.00  0.00    +0.000 A 
ATOM      5  C   UNL     1      45.324   4.724  11.857  0.00  0.00    +0.000 A 
ATOM      6  C   UNL     1      45.824   6.024  12.008  0.00  0.00    +0.000 A 
ATOM      7  C   UNL     1      46.752   6.322  13.012  0.00  0.00    +0.000 A 
BRANCH   5   8
ATOM      8  C   UNL     1      44.360   4.396  10.742  0.00  0.00    +0.000 C 
BRANCH   8   9
ATOM      9  N   UNL     1      44.912   3.442   9.805  0.00  0.00    +0.000 N 
ATOM     10  C   UNL     1      45.568   3.895   8.687  0.00  0.00    +0.000 C 
ATOM     11  O   UNL     1      45.644   5.087   8.406  0.00  0.00    +0.000 OA
ATOM     12  N   UNL     1      46.131   2.914   7.907  0.00  0.00    +0.000 N 
ATOM     13  C   UNL     1      45.995   1.476   8.029  0.00  0.00    +0.000 C 
ATOM     14  C   UNL     1      47.247   0.958   7.346  0.00  0.00    +0.000 C 
ATOM     15  C   UNL     1      47.438   1.928   6.185  0.00  0.00    +0.000 C 
ATOM     16  C   UNL     1      46.858   3.250   6.692  0.00  0.00    +0.000 C 
ATOM     17  H   UNL     1      45.294   2.610  10.218  0.00  0.00    +0.000 HD
ENDBRANCH   8   9
ENDBRANCH   5   8
ENDBRANCH   1   2
BRANCH   1  20
ATOM     18  O   UNL     1      50.183   7.499  15.360  0.00  0.00    +0.000 OA
ATOM     19  C   UNL     1      49.049   7.817  15.703  0.00  0.00    +0.000 C 
ATOM     20  N   UNL     1      47.977   6.961  15.561  0.00  0.00    +0.000 N 
ATOM     21  H   UNL     1      47.070   7.284  15.882  0.00  0.00    +0.000 HD
BRANCH  19  22
ATOM     22  C   UNL     1      48.720   9.121  16.299  0.00  0.00    +0.000 A 
ATOM     23  N   UNL     1      48.998  10.287  15.658  0.00  0.00    +0.000 NA
ATOM     24  N   UNL     1      48.528  11.242  16.495  0.00  0.00    +0.000 N 
ATOM     25  C   UNL     1      47.980  10.740  17.637  0.00  0.00    +0.000 A 
ATOM     26  N   UNL     1      47.438  11.471  18.637  0.00  0.00    +0.000 NA
ATOM     27  C   UNL     1      46.988  10.733  19.603  0.00  0.00    +0.000 A 
ATOM     28  N   UNL     1      47.042   9.353  19.641  0.00  0.00    +0.000 N 
ATOM     29  C   UNL     1      47.609   8.583  18.641  0.00  0.00    +0.000 A 
ATOM     30  O   UNL     1      47.678   7.365  18.743  0.00  0.00    +0.000 OA
ATOM     31  C   UNL     1      48.100   9.375  17.544  0.00  0.00    +0.000 A 
ATOM     32  H   UNL     1      48.610  12.218  16.233  0.00  0.00    +0.000 HD
ATOM     33  H   UNL     1      46.687   8.840  20.432  0.00  0.00    +0.000 HD
ENDBRANCH  19  22
ENDBRANCH   1  20
TORSDOF 5
ENDMDL
MODEL 7
REMARK VINA RESULT:    -7.537      4.538      9.525
REMARK INTER + INTRA:         -10.464
REMARK INTER:                  -9.793
REMARK INTRA:                  -0.671
REMARK UNBOUND:                -0.724
REMARK  Name = 
REMARK  5 active torsions:
REMARK  status: ('A' for Active; 'I' for Inactive)
REMARK    1  A    between atoms: C_2  and  C_20
REMARK    2  A    between atoms: N_3  and  C_4
REMARK    3  A    between atoms: C_4  and  C_5
REMARK    4  A    between atoms: C_8  and  C_9
REMARK    5  A    between atoms: C_9  and  N_10
REMARK                            x       y       z     vdW  Elec       q    Type
REMARK                         _______ _______ _______ _____ _____    ______ ____
ROOT
ATOM      1  C   UNL     1      47.238   3.376  16.839  0.00  0.00    +0.000 C 
ENDROOT
BRANCH   1   2
ATOM      2  C   UNL     1      48.711   3.465  17.134  0.00  0.00    +0.000 A 
ATOM      3  C   UNL     1      49.298   4.691  17.471  0.00  0.00    +0.000 A 
ATOM      4  C   UNL     1      50.666   4.775  17.757  0.00  0.00    +0.000 A 
ATOM      5  C   UNL     1      51.480   3.635  17.696  0.00  0.00    +0.000 A 
ATOM      6  C   UNL     1      50.889   2.407  17.373  0.00  0.00    +0.000 A 
ATOM      7  C   UNL     1      49.523   2.324  17.083  0.00  0.00    +0.000 A 
BRANCH   5   8
ATOM      8  C   UNL     1      52.964   3.728  17.959  0.00  0.00    +0.000 C 
BRANCH   8   9
ATOM      9  N   UNL     1      53.671   2.542  17.529  0.00  0.00    +0.000 N 
ATOM     10  C   UNL     1      54.166   1.672  18.468  0.00  0.00    +0.000 C 
ATOM     11  O   UNL     1      54.098   1.895  19.673  0.00  0.00    +0.000 OA
ATOM     12  N   UNL     1      54.743   0.534  17.960  0.00  0.00    +0.000 N 
ATOM     13  C   UNL     1      55.028   0.208  16.576  0.00  0.00    +0.000 C 
ATOM     14  C   UNL     1      55.070  -1.309  16.586  0.00  0.00    +0.000 C 
ATOM     15  C   UNL     1      55.723  -1.630  17.925  0.00  0.00    +0.000 C 
ATOM     16  C   UNL     1      55.307  -0.478  18.841  0.00  0.00    +0.000 C 
ATOM     17  H   UNL     1      53.317   2.113  16.692  0.00  0.00    +0.000 HD
ENDBRANCH   8   9
ENDBRANCH   5   8
ENDBRANCH   1   2
BRANCH   1  20
ATOM     18  O   UNL     1      47.275   3.034  14.105  0.00  0.00    +0.000 OA
ATOM     19  C   UNL     1      46.847   4.098  14.541  0.00  0.00    +0.000 C 
ATOM     20  N   UNL     1      46.791   4.363  15.893  0.00  0.00    +0.000 N 
ATOM     21  H   UNL     1      46.440   5.271  16.181  0.00  0.00    +0.000 HD
BRANCH  19  22
ATOM     22  C   UNL     1      46.363   5.188  13.679  0.00  0.00    +0.000 A 
ATOM     23  N   UNL     1      47.101   6.309  13.468  0.00  0.00    +0.000 NA
ATOM     24  N   UNL     1      46.347   7.043  12.616  0.00  0.00    +0.000 N 
ATOM     25  C   UNL     1      45.165   6.449  12.288  0.00  0.00    +0.000 A 
ATOM     26  N   UNL     1      44.230   6.964  11.458  0.00  0.00    +0.000 NA
ATOM     27  C   UNL     1      43.203   6.183  11.324  0.00  0.00    +0.000 A 
ATOM     28  N   UNL     1      43.048   4.959  11.946  0.00  0.00    +0.000 N 
ATOM     29  C   UNL     1      43.981   4.420  12.815  0.00  0.00    +0.000 A 
ATOM     30  O   UNL     1      43.776   3.354  13.381  0.00  0.00    +0.000 OA
ATOM     31  C   UNL     1      45.142   5.256  12.969  0.00  0.00    +0.000 A 
ATOM     32  H   UNL     1      46.692   7.940  12.293  0.00  0.00    +0.000 HD
ATOM     33  H   UNL     1      42.216   4.408  11.810  0.00  0.00    +0.000 HD
ENDBRANCH  19  22
ENDBRANCH   1  20
TORSDOF 5
ENDMDL
MODEL 8
REMARK VINA RESULT:    -7.481      1.871      2.690
REMARK INTER + INTRA:         -10.393
REMARK INTER:                  -9.884
REMARK INTRA:                  -0.509
REMARK UNBOUND:                -0.724
REMARK  Name = 
REMARK  5 active torsions:
REMARK  status: ('A' for Active; 'I' for Inactive)
REMARK    1  A    between atoms: C_2  and  C_20
REMARK    2  A    between atoms: N_3  and  C_4
REMARK    3  A    between atoms: C_4  and  C_5
REMARK    4  A    between atoms: C_8  and  C_9
REMARK    5  A    between atoms: C_9  and  N_10
REMARK                            x       y       z     vdW  Elec       q    Type
REMARK                         _______ _______ _______ _____ _____    ______ ____
ROOT
ATOM      1  C   UNL     1      46.119   8.238  12.954  0.00  0.00    +0.000 C 
ENDROOT
BRANCH   1   2
ATOM      2  C   UNL     1      45.535   6.956  12.427  0.00  0.00    +0.000 A 
ATOM      3  C   UNL     1      44.220   6.914  11.946  0.00  0.00    +0.000 A 
ATOM      4  C   UNL     1      43.680   5.724  11.444  0.00  0.00    +0.000 A 
ATOM      5  C   UNL     1      44.438   4.545  11.427  0.00  0.00    +0.000 A 
ATOM      6  C   UNL     1      45.757   4.591  11.896  0.00  0.00    +0.000 A 
ATOM      7  C   UNL     1      46.297   5.779  12.401  0.00  0.00    +0.000 A 
BRANCH   5   8
ATOM      8  C   UNL     1      43.844   3.249  10.930  0.00  0.00    +0.000 C 
BRANCH   8   9
ATOM      9  N   UNL     1      44.679   2.611   9.935  0.00  0.00    +0.000 N 
ATOM     10  C   UNL     1      44.901   3.241   8.735  0.00  0.00    +0.000 C 
ATOM     11  O   UNL     1      44.356   4.299   8.436  0.00  0.00    +0.000 OA
ATOM     12  N   UNL     1      45.776   2.596   7.894  0.00  0.00    +0.000 N 
ATOM     13  C   UNL     1      46.369   1.283   8.046  0.00  0.00    +0.000 C 
ATOM     14  C   UNL     1      47.629   1.381   7.204  0.00  0.00    +0.000 C 
ATOM     15  C   UNL     1      47.191   2.236   6.021  0.00  0.00    +0.000 C 
ATOM     16  C   UNL     1      46.105   3.150   6.590  0.00  0.00    +0.000 C 
ATOM     17  H   UNL     1      45.460   2.096  10.299  0.00  0.00    +0.000 HD
ENDBRANCH   8   9
ENDBRANCH   5   8
ENDBRANCH   1   2
BRANCH   1  20
ATOM     18  O   UNL     1      48.860   8.513  12.887  0.00  0.00    +0.000 OA
ATOM     19  C   UNL     1      48.344   8.204  13.956  0.00  0.00    +0.000 C 
ATOM     20  N   UNL     1      46.982   8.042  14.089  0.00  0.00    +0.000 N 
ATOM     21  H   UNL     1      46.626   7.769  15.000  0.00  0.00    +0.000 HD
BRANCH  19  22
ATOM     22  C   UNL     1      49.115   7.972  15.188  0.00  0.00    +0.000 A 
ATOM     23  N   UNL     1      49.969   8.907  15.680  0.00  0.00    +0.000 NA
ATOM     24  N   UNL     1      50.453   8.345  16.813  0.00  0.00    +0.000 N 
ATOM     25  C   UNL     1      49.958   7.099  17.055  0.00  0.00    +0.000 A 
ATOM     26  N   UNL     1      50.273   6.319  18.114  0.00  0.00    +0.000 NA
ATOM     27  C   UNL     1      49.652   5.181  18.093  0.00  0.00    +0.000 A 
ATOM     28  N   UNL     1      48.765   4.777  17.114  0.00  0.00    +0.000 N 
ATOM     29  C   UNL     1      48.442   5.547  16.011  0.00  0.00    +0.000 A 
ATOM     30  O   UNL     1      47.688   5.125  15.144  0.00  0.00    +0.000 OA
ATOM     31  C   UNL     1      49.102   6.826  16.016  0.00  0.00    +0.000 A 
ATOM     32  H   UNL     1      51.117   8.861  17.380  0.00  0.00    +0.000 HD
ATOM     33  H   UNL     1      48.328   3.870  17.151  0.00  0.00    +0.000 HD
ENDBRANCH  19  22
ENDBRANCH   1  20
TORSDOF 5
ENDMDL
MODEL 9
REMARK VINA RESULT:    -7.333      4.825      7.337
REMARK INTER + INTRA:         -10.201
REMARK INTER:                  -9.440
REMARK INTRA:                  -0.761
REMARK UNBOUND:                -0.724
REMARK  Name = 
REMARK  5 active torsions:
REMARK  status: ('A' for Active; 'I' for Inactive)
REMARK    1  A    between atoms: C_2  and  C_20
REMARK    2  A    between atoms: N_3  and  C_4
REMARK    3  A    between atoms: C_4  and  C_5
REMARK    4  A    between atoms: C_8  and  C_9
REMARK    5  A    between atoms: C_9  and  N_10
REMARK                            x       y       z     vdW  Elec       q    Type
REMARK                         _______ _______ _______ _____ _____    ______ ____
ROOT
ATOM      1  C   UNL     1      48.541   7.048  14.347  0.00  0.00    +0.000 C 
ENDROOT
BRANCH   1   2
ATOM      2  C   UNL     1      49.605   7.540  13.404  0.00  0.00    +0.000 A 
ATOM      3  C   UNL     1      49.466   7.375  12.020  0.00  0.00    +0.000 A 
ATOM      4  C   UNL     1      50.450   7.842  11.141  0.00  0.00    +0.000 A 
ATOM      5  C   UNL     1      51.603   8.472  11.628  0.00  0.00    +0.000 A 
ATOM      6  C   UNL     1      51.735   8.650  13.011  0.00  0.00    +0.000 A 
ATOM      7  C   UNL     1      50.754   8.179  13.891  0.00  0.00    +0.000 A 
BRANCH   5   8
ATOM      8  C   UNL     1      52.689   8.937  10.687  0.00  0.00    +0.000 C 
BRANCH   8   9
ATOM      9  N   UNL     1      52.907   8.005   9.602  0.00  0.00    +0.000 N 
ATOM     10  C   UNL     1      53.896   7.060   9.712  0.00  0.00    +0.000 C 
ATOM     11  O   UNL     1      54.661   7.015  10.671  0.00  0.00    +0.000 OA
ATOM     12  N   UNL     1      53.966   6.169   8.669  0.00  0.00    +0.000 N 
ATOM     13  C   UNL     1      53.241   6.190   7.414  0.00  0.00    +0.000 C 
ATOM     14  C   UNL     1      53.262   4.734   6.985  0.00  0.00    +0.000 C 
ATOM     15  C   UNL     1      54.643   4.262   7.423  0.00  0.00    +0.000 C 
ATOM     16  C   UNL     1      54.966   5.111   8.654  0.00  0.00    +0.000 C 
ATOM     17  H   UNL     1      52.077   7.704   9.124  0.00  0.00    +0.000 HD
ENDBRANCH   8   9
ENDBRANCH   5   8
ENDBRANCH   1   2
BRANCH   1  20
ATOM     18  O   UNL     1      47.711   4.541  15.134  0.00  0.00    +0.000 OA
ATOM     19  C   UNL     1      47.161   5.043  14.159  0.00  0.00    +0.000 C 
ATOM     20  N   UNL     1      47.509   6.292  13.688  0.00  0.00    +0.000 N 
ATOM     21  H   UNL     1      47.024   6.638  12.867  0.00  0.00    +0.000 HD
BRANCH  19  22
ATOM     22  C   UNL     1      46.096   4.373  13.397  0.00  0.00    +0.000 A 
ATOM     23  N   UNL     1      46.092   3.027  13.212  0.00  0.00    +0.000 NA
ATOM     24  N   UNL     1      44.961   2.796  12.504  0.00  0.00    +0.000 N 
ATOM     25  C   UNL     1      44.258   3.928  12.222  0.00  0.00    +0.000 A 
ATOM     26  N   UNL     1      43.096   3.980  11.532  0.00  0.00    +0.000 NA
ATOM     27  C   UNL     1      42.644   5.190  11.413  0.00  0.00    +0.000 A 
ATOM     28  N   UNL     1      43.257   6.321  11.918  0.00  0.00    +0.000 N 
ATOM     29  C   UNL     1      44.456   6.296  12.608  0.00  0.00    +0.000 A 
ATOM     30  O   UNL     1      44.985   7.331  12.994  0.00  0.00    +0.000 OA
ATOM     31  C   UNL     1      44.972   4.963  12.774  0.00  0.00    +0.000 A 
ATOM     32  H   UNL     1      44.723   1.845  12.244  0.00  0.00    +0.000 HD
ATOM     33  H   UNL     1      42.859   7.235  11.775  0.00  0.00    +0.000 HD
ENDBRANCH  19  22
ENDBRANCH   1  20
TORSDOF 5
ENDMDL
