MODEL 1
REMARK VINA RESULT:    -7.415      0.000      0.000
REMARK INTER + INTRA:         -12.037
REMARK INTER:                 -10.883
REMARK INTRA:                  -1.155
REMARK UNBOUND:                -1.155
REMARK  Name = 
REMARK  10 active torsions:
REMARK  status: ('A' for Active; 'I' for Inactive)
REMARK    1  A    between atoms: C_1  and  O_2
REMARK    2  A    between atoms: O_2  and  C_3
REMARK    3  A    between atoms: C_10  and  C_11
REMARK    4  A    between atoms: N_13  and  C_14
REMARK    5  A    between atoms: C_14  and  C_15
REMARK    6  A    between atoms: C_18  and  N_19
REMARK    7  A    between atoms: N_19  and  C_20
REMARK    8  A    between atoms: C_20  and  C_21
REMARK    9  A    between atoms: C_21  and  N_22
REMARK   10  A    between atoms: N_25  and  C_26
REMARK                            x       y       z     vdW  Elec       q    Type
REMARK                         _______ _______ _______ _____ _____    ______ ____
ROOT
ATOM      1  C   UNL     1      46.947   6.202  12.901  0.00  0.00    +0.000 A 
ATOM      2  C   UNL     1      46.983   5.014  13.640  0.00  0.00    +0.000 A 
ATOM      3  C   UNL     1      46.234   3.900  13.239  0.00  0.00    +0.000 A 
ATOM      4  C   UNL     1      45.421   3.948  12.102  0.00  0.00    +0.000 A 
ATOM      5  C   UNL     1      45.472   5.101  11.313  0.00  0.00    +0.000 A 
ATOM      6  C   UNL     1      46.208   6.223  11.713  0.00  0.00    +0.000 A 
ENDROOT
BRANCH   4   7
ATOM      7  N   UNL     1      44.648   2.875  11.648  0.00  0.00    +0.000 N 
ATOM      8  H   UNL     1      43.981   2.563  12.357  0.00  0.00    +0.000 HD
BRANCH   7   9
ATOM      9  C   UNL     1      43.975   3.030  10.354  0.00  0.00    +0.000 C 
BRANCH   9  10
ATOM     10  C   UNL     1      44.488   1.968   9.353  0.00  0.00    +0.000 C 
BRANCH  10  11
ATOM     11  N   UNL     1      45.781   2.306   8.723  0.00  0.00    +0.000 NA
ATOM     12  C   UNL     1      46.312   1.217   7.884  0.00  0.00    +0.000 C 
ATOM     13  C   UNL     1      47.655   1.605   7.228  0.00  0.00    +0.000 C 
ATOM     14  N   UNL     1      47.618   2.841   6.423  0.00  0.00    +0.000 NA
ATOM     15  C   UNL     1      46.923   2.634   5.156  0.00  0.00    +0.000 C 
ATOM     16  C   UNL     1      46.992   3.917   7.222  0.00  0.00    +0.000 C 
ATOM     17  C   UNL     1      45.658   3.535   7.909  0.00  0.00    +0.000 C 
ENDBRANCH  10  11
ENDBRANCH   9  10
ENDBRANCH   7   9
ENDBRANCH   4   7
BRANCH   1  18
ATOM     18  C   UNL     1      47.730   7.411  13.346  0.00  0.00    +0.000 C 
BRANCH  18  21
ATOM     19  C   UNL     1      49.007   7.244  15.443  0.00  0.00    +0.000 C 
ATOM     20  O   UNL     1      50.045   7.002  14.832  0.00  0.00    +0.000 OA
ATOM     21  N   UNL     1      47.830   7.463  14.783  0.00  0.00    +0.000 N 
ATOM     22  H   UNL     1      46.991   7.683  15.298  0.00  0.00    +0.000 HD
BRANCH  19  30
ATOM     23  C   UNL     1      48.917   4.816  17.886  0.00  0.00    +0.000 A 
ATOM     24  N   UNL     1      48.945   4.092  19.023  0.00  0.00    +0.000 NA
ATOM     25  C   UNL     1      48.991   4.749  20.185  0.00  0.00    +0.000 A 
ATOM     26  N   UNL     1      49.000   6.067  20.360  0.00  0.00    +0.000 NA
ATOM     27  C   UNL     1      48.979   6.751  19.205  0.00  0.00    +0.000 A 
ATOM     28  S   UNL     1      48.975   8.448  19.237  0.00  0.00    +0.000 S 
ATOM     29  C   UNL     1      48.965   8.531  17.541  0.00  0.00    +0.000 A 
ATOM     30  C   UNL     1      48.974   7.287  16.916  0.00  0.00    +0.000 A 
ATOM     31  C   UNL     1      48.953   6.222  17.918  0.00  0.00    +0.000 A 
BRANCH  23  33
ATOM     32  C   UNL     1      47.899   3.074  16.669  0.00  0.00    +0.000 C 
ATOM     33  O   UNL     1      48.836   4.149  16.681  0.00  0.00    +0.000 OA
ENDBRANCH  23  33
ENDBRANCH  19  30
ENDBRANCH  18  21
ENDBRANCH   1  18
TORSDOF 8
ENDMDL
MODEL 2
REMARK VINA RESULT:    -6.487      1.607      2.259
REMARK INTER + INTRA:         -10.676
REMARK INTER:                  -9.664
REMARK INTRA:                  -1.011
REMARK UNBOUND:                -1.155
REMARK  Name = 
REMARK  10 active torsions:
REMARK  status: ('A' for Active; 'I' for Inactive)
REMARK    1  A    between atoms: C_1  and  O_2
REMARK    2  A    between atoms: O_2  and  C_3
REMARK    3  A    between atoms: C_10  and  C_11
REMARK    4  A    between atoms: N_13  and  C_14
REMARK    5  A    between atoms: C_14  and  C_15
REMARK    6  A    between atoms: C_18  and  N_19
REMARK    7  A    between atoms: N_19  and  C_20
REMARK    8  A    between atoms: C_20  and  C_21
REMARK    9  A    between atoms: C_21  and  N_22
REMARK   10  A    between atoms: N_25  and  C_26
REMARK                            x       y       z     vdW  Elec       q    Type
REMARK                         _______ _______ _______ _____ _____    ______ ____
ROOT
ATOM      1  C   UNL     1      46.745   7.850  12.889  0.00  0.00    +0.000 A 
ATOM      2  C   UNL     1      47.363   6.905  12.062  0.00  0.00    +0.000 A 
ATOM      3  C   UNL     1      46.618   6.180  11.124  0.00  0.00    +0.000 A 
ATOM      4  C   UNL     1      45.238   6.367  10.998  0.00  0.00    +0.000 A 
ATOM      5  C   UNL     1      44.647   7.384  11.753  0.00  0.00    +0.000 A 
ATOM      6  C   UNL     1      45.381   8.105  12.702  0.00  0.00    +0.000 A 
ENDROOT
BRANCH   4   7
ATOM      7  N   UNL     1      44.435   5.675  10.084  0.00  0.00    +0.000 N 
ATOM      8  H   UNL     1      44.872   5.624   9.162  0.00  0.00    +0.000 HD
BRANCH   7   9
ATOM      9  C   UNL     1      43.945   4.352  10.484  0.00  0.00    +0.000 C 
BRANCH   9  10
ATOM     10  C   UNL     1      45.038   3.283  10.250  0.00  0.00    +0.000 C 
BRANCH  10  11
ATOM     11  N   UNL     1      45.217   2.903   8.833  0.00  0.00    +0.000 NA
ATOM     12  C   UNL     1      45.958   3.914   8.057  0.00  0.00    +0.000 C 
ATOM     13  C   UNL     1      46.143   3.482   6.585  0.00  0.00    +0.000 C 
ATOM     14  N   UNL     1      46.802   2.175   6.402  0.00  0.00    +0.000 NA
ATOM     15  C   UNL     1      48.232   2.253   6.682  0.00  0.00    +0.000 C 
ATOM     16  C   UNL     1      46.129   1.172   7.256  0.00  0.00    +0.000 C 
ATOM     17  C   UNL     1      45.912   1.602   8.728  0.00  0.00    +0.000 C 
ENDBRANCH  10  11
ENDBRANCH   9  10
ENDBRANCH   7   9
ENDBRANCH   4   7
BRANCH   1  18
ATOM     18  C   UNL     1      47.539   8.612  13.919  0.00  0.00    +0.000 C 
BRANCH  18  21
ATOM     19  C   UNL     1      49.109   7.250  15.237  0.00  0.00    +0.000 C 
ATOM     20  O   UNL     1      50.024   7.482  14.451  0.00  0.00    +0.000 OA
ATOM     21  N   UNL     1      47.861   7.775  15.047  0.00  0.00    +0.000 N 
ATOM     22  H   UNL     1      47.126   7.594  15.715  0.00  0.00    +0.000 HD
BRANCH  19  30
ATOM     23  C   UNL     1      47.637   4.315  16.282  0.00  0.00    +0.000 A 
ATOM     24  N   UNL     1      47.289   3.159  16.881  0.00  0.00    +0.000 NA
ATOM     25  C   UNL     1      47.934   2.810  17.998  0.00  0.00    +0.000 A 
ATOM     26  N   UNL     1      48.898   3.491  18.611  0.00  0.00    +0.000 NA
ATOM     27  C   UNL     1      49.220   4.631  17.980  0.00  0.00    +0.000 A 
ATOM     28  S   UNL     1      50.425   5.636  18.630  0.00  0.00    +0.000 S 
ATOM     29  C   UNL     1      50.260   6.744  17.354  0.00  0.00    +0.000 A 
ATOM     30  C   UNL     1      49.304   6.378  16.410  0.00  0.00    +0.000 A 
ATOM     31  C   UNL     1      48.663   5.124  16.804  0.00  0.00    +0.000 A 
BRANCH  23  33
ATOM     32  C   UNL     1      47.010   3.757  14.081  0.00  0.00    +0.000 C 
ATOM     33  O   UNL     1      46.955   4.702  15.147  0.00  0.00    +0.000 OA
ENDBRANCH  23  33
ENDBRANCH  19  30
ENDBRANCH  18  21
ENDBRANCH   1  18
TORSDOF 8
ENDMDL
MODEL 3
REMARK VINA RESULT:    -6.449      2.387      3.146
REMARK INTER + INTRA:         -10.620
REMARK INTER:                  -9.380
REMARK INTRA:                  -1.241
REMARK UNBOUND:                -1.155
REMARK  Name = 
REMARK  10 active torsions:
REMARK  status: ('A' for Active; 'I' for Inactive)
REMARK    1  A    between atoms: C_1  and  O_2
REMARK    2  A    between atoms: O_2  and  C_3
REMARK    3  A    between atoms: C_10  and  C_11
REMARK    4  A    between atoms: N_13  and  C_14
REMARK    5  A    between atoms: C_14  and  C_15
REMARK    6  A    between atoms: C_18  and  N_19
REMARK    7  A    between atoms: N_19  and  C_20
REMARK    8  A    between atoms: C_20  and  C_21
REMARK    9  A    between atoms: C_21  and  N_22
REMARK   10  A    between atoms: N_25  and  C_26
REMARK                            x       y       z     vdW  Elec       q    Type
REMARK                         _______ _______ _______ _____ _____    ______ ____
ROOT
ATOM      1  C   UNL     1      46.255   6.718  12.709  0.00  0.00    +0.000 A 
ATOM      2  C   UNL     1      45.631   6.565  11.467  0.00  0.00    +0.000 A 
ATOM      3  C   UNL     1      45.136   5.317  11.064  0.00  0.00    +0.000 A 
ATOM      4  C   UNL     1      45.267   4.191  11.883  0.00  0.00    +0.000 A 
ATOM      5  C   UNL     1      45.798   4.374  13.163  0.00  0.00    +0.000 A 
ATOM      6  C   UNL     1      46.305   5.614  13.569  0.00  0.00    +0.000 A 
ENDROOT
BRANCH   4   7
ATOM      7  N   UNL     1      44.799   2.918  11.542  0.00  0.00    +0.000 N 
ATOM      8  H   UNL     1      44.378   2.443  12.343  0.00  0.00    +0.000 HD
BRANCH   7   9
ATOM      9  C   UNL     1      43.917   2.815  10.375  0.00  0.00    +0.000 C 
BRANCH   9  10
ATOM     10  C   UNL     1      44.493   1.804   9.356  0.00  0.00    +0.000 C 
BRANCH  10  11
ATOM     11  N   UNL     1      45.771   2.224   8.743  0.00  0.00    +0.000 NA
ATOM     12  C   UNL     1      46.368   1.180   7.891  0.00  0.00    +0.000 C 
ATOM     13  C   UNL     1      47.693   1.653   7.253  0.00  0.00    +0.000 C 
ATOM     14  N   UNL     1      47.593   2.899   6.468  0.00  0.00    +0.000 NA
ATOM     15  C   UNL     1      46.921   2.674   5.192  0.00  0.00    +0.000 C 
ATOM     16  C   UNL     1      46.901   3.924   7.279  0.00  0.00    +0.000 C 
ATOM     17  C   UNL     1      45.585   3.457   7.948  0.00  0.00    +0.000 C 
ENDBRANCH  10  11
ENDBRANCH   9  10
ENDBRANCH   7   9
ENDBRANCH   4   7
BRANCH   1  18
ATOM     18  C   UNL     1      46.813   8.053  13.134  0.00  0.00    +0.000 C 
BRANCH  18  21
ATOM     19  C   UNL     1      49.020   9.023  13.626  0.00  0.00    +0.000 C 
ATOM     20  O   UNL     1      48.607  10.160  13.410  0.00  0.00    +0.000 OA
ATOM     21  N   UNL     1      48.197   7.937  13.517  0.00  0.00    +0.000 N 
ATOM     22  H   UNL     1      48.546   7.012  13.720  0.00  0.00    +0.000 HD
BRANCH  19  30
ATOM     23  C   UNL     1      50.548   6.909  15.878  0.00  0.00    +0.000 A 
ATOM     24  N   UNL     1      51.392   6.157  16.612  0.00  0.00    +0.000 NA
ATOM     25  C   UNL     1      52.705   6.338  16.442  0.00  0.00    +0.000 A 
ATOM     26  N   UNL     1      53.294   7.203  15.622  0.00  0.00    +0.000 NA
ATOM     27  C   UNL     1      52.420   7.927  14.905  0.00  0.00    +0.000 A 
ATOM     28  S   UNL     1      52.996   9.092  13.812  0.00  0.00    +0.000 S 
ATOM     29  C   UNL     1      51.417   9.506  13.342  0.00  0.00    +0.000 A 
ATOM     30  C   UNL     1      50.427   8.772  13.989  0.00  0.00    +0.000 A 
ATOM     31  C   UNL     1      51.031   7.846  14.946  0.00  0.00    +0.000 A 
BRANCH  23  33
ATOM     32  C   UNL     1      48.697   7.351  17.266  0.00  0.00    +0.000 C 
ATOM     33  O   UNL     1      49.190   6.755  16.069  0.00  0.00    +0.000 OA
ENDBRANCH  23  33
ENDBRANCH  19  30
ENDBRANCH  18  21
ENDBRANCH   1  18
TORSDOF 8
ENDMDL
MODEL 4
REMARK VINA RESULT:    -5.943      1.421      2.317
REMARK INTER + INTRA:          -9.877
REMARK INTER:                  -8.957
REMARK INTRA:                  -0.921
REMARK UNBOUND:                -1.155
REMARK  Name = 
REMARK  10 active torsions:
REMARK  status: ('A' for Active; 'I' for Inactive)
REMARK    1  A    between atoms: C_1  and  O_2
REMARK    2  A    between atoms: O_2  and  C_3
REMARK    3  A    between atoms: C_10  and  C_11
REMARK    4  A    between atoms: N_13  and  C_14
REMARK    5  A    between atoms: C_14  and  C_15
REMARK    6  A    between atoms: C_18  and  N_19
REMARK    7  A    between atoms: N_19  and  C_20
REMARK    8  A    between atoms: C_20  and  C_21
REMARK    9  A    between atoms: C_21  and  N_22
REMARK   10  A    between atoms: N_25  and  C_26
REMARK                            x       y       z     vdW  Elec       q    Type
REMARK                         _______ _______ _______ _____ _____    ______ ____
ROOT
ATOM      1  C   UNL     1      46.516   5.774  13.173  0.00  0.00    +0.000 A 
ATOM      2  C   UNL     1      46.719   4.391  13.217  0.00  0.00    +0.000 A 
ATOM      3  C   UNL     1      45.826   3.516  12.585  0.00  0.00    +0.000 A 
ATOM      4  C   UNL     1      44.701   3.998  11.909  0.00  0.00    +0.000 A 
ATOM      5  C   UNL     1      44.561   5.383  11.781  0.00  0.00    +0.000 A 
ATOM      6  C   UNL     1      45.442   6.265  12.419  0.00  0.00    +0.000 A 
ENDROOT
BRANCH   4   7
ATOM      7  N   UNL     1      43.769   3.181  11.259  0.00  0.00    +0.000 N 
ATOM      8  H   UNL     1      42.815   3.375  11.572  0.00  0.00    +0.000 HD
BRANCH   7   9
ATOM      9  C   UNL     1      43.821   3.134   9.795  0.00  0.00    +0.000 C 
BRANCH   9  10
ATOM     10  C   UNL     1      44.633   1.903   9.328  0.00  0.00    +0.000 C 
BRANCH  10  11
ATOM     11  N   UNL     1      45.925   2.237   8.691  0.00  0.00    +0.000 NA
ATOM     12  C   UNL     1      46.427   1.161   7.817  0.00  0.00    +0.000 C 
ATOM     13  C   UNL     1      47.769   1.546   7.155  0.00  0.00    +0.000 C 
ATOM     14  N   UNL     1      47.742   2.802   6.383  0.00  0.00    +0.000 NA
ATOM     15  C   UNL     1      47.029   2.639   5.119  0.00  0.00    +0.000 C 
ATOM     16  C   UNL     1      47.143   3.867   7.216  0.00  0.00    +0.000 C 
ATOM     17  C   UNL     1      45.811   3.488   7.910  0.00  0.00    +0.000 C 
ENDBRANCH  10  11
ENDBRANCH   9  10
ENDBRANCH   7   9
ENDBRANCH   4   7
BRANCH   1  18
ATOM     18  C   UNL     1      47.460   6.716  13.875  0.00  0.00    +0.000 C 
BRANCH  18  21
ATOM     19  C   UNL     1      49.000   6.230  15.732  0.00  0.00    +0.000 C 
ATOM     20  O   UNL     1      49.970   6.590  15.068  0.00  0.00    +0.000 OA
ATOM     21  N   UNL     1      47.734   6.269  15.217  0.00  0.00    +0.000 N 
ATOM     22  H   UNL     1      46.946   5.991  15.784  0.00  0.00    +0.000 HD
BRANCH  19  30
ATOM     23  C   UNL     1      50.209   7.599  18.654  0.00  0.00    +0.000 A 
ATOM     24  N   UNL     1      50.557   7.896  19.922  0.00  0.00    +0.000 NA
ATOM     25  C   UNL     1      50.385   6.958  20.857  0.00  0.00    +0.000 A 
ATOM     26  N   UNL     1      49.909   5.729  20.681  0.00  0.00    +0.000 NA
ATOM     27  C   UNL     1      49.567   5.475  19.407  0.00  0.00    +0.000 A 
ATOM     28  S   UNL     1      48.950   3.949  18.994  0.00  0.00    +0.000 S 
ATOM     29  C   UNL     1      48.767   4.406  17.368  0.00  0.00    +0.000 A 
ATOM     30  C   UNL     1      49.156   5.716  17.105  0.00  0.00    +0.000 A 
ATOM     31  C   UNL     1      49.662   6.345  18.325  0.00  0.00    +0.000 A 
BRANCH  23  33
ATOM     32  C   UNL     1      50.376   9.893  18.146  0.00  0.00    +0.000 C 
ATOM     33  O   UNL     1      50.413   8.549  17.674  0.00  0.00    +0.000 OA
ENDBRANCH  23  33
ENDBRANCH  19  30
ENDBRANCH  18  21
ENDBRANCH   1  18
TORSDOF 8
ENDMDL
MODEL 5
REMARK VINA RESULT:    -5.922      3.643      4.991
REMARK INTER + INTRA:          -9.846
REMARK INTER:                  -8.854
REMARK INTRA:                  -0.992
REMARK UNBOUND:                -1.155
REMARK  Name = 
REMARK  10 active torsions:
REMARK  status: ('A' for Active; 'I' for Inactive)
REMARK    1  A    between atoms: C_1  and  O_2
REMARK    2  A    between atoms: O_2  and  C_3
REMARK    3  A    between atoms: C_10  and  C_11
REMARK    4  A    between atoms: N_13  and  C_14
REMARK    5  A    between atoms: C_14  and  C_15
REMARK    6  A    between atoms: C_18  and  N_19
REMARK    7  A    between atoms: N_19  and  C_20
REMARK    8  A    between atoms: C_20  and  C_21
REMARK    9  A    between atoms: C_21  and  N_22
REMARK   10  A    between atoms: N_25  and  C_26
REMARK                            x       y       z     vdW  Elec       q    Type
REMARK                         _______ _______ _______ _____ _____    ______ ____
ROOT
ATOM      1  C   UNL     1      45.367   7.016  12.312  0.00  0.00    +0.000 A 
ATOM      2  C   UNL     1      44.953   6.098  13.284  0.00  0.00    +0.000 A 
ATOM      3  C   UNL     1      44.702   4.762  12.944  0.00  0.00    +0.000 A 
ATOM      4  C   UNL     1      44.841   4.314  11.627  0.00  0.00    +0.000 A 
ATOM      5  C   UNL     1      45.354   5.210  10.684  0.00  0.00    +0.000 A 
ATOM      6  C   UNL     1      45.596   6.550  11.012  0.00  0.00    +0.000 A 
ENDROOT
BRANCH   4   7
ATOM      7  N   UNL     1      44.605   2.997  11.220  0.00  0.00    +0.000 N 
ATOM      8  H   UNL     1      44.098   2.467  11.931  0.00  0.00    +0.000 HD
BRANCH   7   9
ATOM      9  C   UNL     1      43.985   2.799   9.906  0.00  0.00    +0.000 C 
BRANCH   9  10
ATOM     10  C   UNL     1      44.699   1.659   9.143  0.00  0.00    +0.000 C 
BRANCH  10  11
ATOM     11  N   UNL     1      45.975   2.060   8.512  0.00  0.00    +0.000 NA
ATOM     12  C   UNL     1      46.535   1.014   7.638  0.00  0.00    +0.000 C 
ATOM     13  C   UNL     1      47.858   1.467   6.982  0.00  0.00    +0.000 C 
ATOM     14  N   UNL     1      47.770   2.723   6.213  0.00  0.00    +0.000 NA
ATOM     15  C   UNL     1      47.071   2.527   4.946  0.00  0.00    +0.000 C 
ATOM     16  C   UNL     1      47.114   3.753   7.047  0.00  0.00    +0.000 C 
ATOM     17  C   UNL     1      45.800   3.305   7.734  0.00  0.00    +0.000 C 
ENDBRANCH  10  11
ENDBRANCH   9  10
ENDBRANCH   7   9
ENDBRANCH   4   7
BRANCH   1  18
ATOM     18  C   UNL     1      45.611   8.460  12.669  0.00  0.00    +0.000 C 
BRANCH  18  21
ATOM     19  C   UNL     1      47.234  10.080  11.776  0.00  0.00    +0.000 C 
ATOM     20  O   UNL     1      46.348  10.905  11.566  0.00  0.00    +0.000 OA
ATOM     21  N   UNL     1      46.952   8.859  12.322  0.00  0.00    +0.000 N 
ATOM     22  H   UNL     1      47.695   8.202  12.509  0.00  0.00    +0.000 HD
BRANCH  19  30
ATOM     23  C   UNL     1      50.244   8.824  12.886  0.00  0.00    +0.000 A 
ATOM     24  N   UNL     1      51.531   8.473  13.083  0.00  0.00    +0.000 NA
ATOM     25  C   UNL     1      52.467   9.074  12.344  0.00  0.00    +0.000 A 
ATOM     26  N   UNL     1      52.277  10.011  11.419  0.00  0.00    +0.000 NA
ATOM     27  C   UNL     1      50.983  10.328  11.248  0.00  0.00    +0.000 A 
ATOM     28  S   UNL     1      50.554  11.516  10.115  0.00  0.00    +0.000 S 
ATOM     29  C   UNL     1      48.903  11.324  10.461  0.00  0.00    +0.000 A 
ATOM     30  C   UNL     1      48.640  10.357  11.428  0.00  0.00    +0.000 A 
ATOM     31  C   UNL     1      49.892   9.782  11.918  0.00  0.00    +0.000 A 
BRANCH  23  33
ATOM     32  C   UNL     1      49.780   7.523  14.794  0.00  0.00    +0.000 C 
ATOM     33  O   UNL     1      49.272   8.234  13.667  0.00  0.00    +0.000 OA
ENDBRANCH  23  33
ENDBRANCH  19  30
ENDBRANCH  18  21
ENDBRANCH   1  18
TORSDOF 8
ENDMDL
MODEL 6
REMARK VINA RESULT:    -5.917      2.857      4.952
REMARK INTER + INTRA:          -9.840
REMARK INTER:                  -8.652
REMARK INTRA:                  -1.188
REMARK UNBOUND:                -1.155
REMARK  Name = 
REMARK  10 active torsions:
REMARK  status: ('A' for Active; 'I' for Inactive)
REMARK    1  A    between atoms: C_1  and  O_2
REMARK    2  A    between atoms: O_2  and  C_3
REMARK    3  A    between atoms: C_10  and  C_11
REMARK    4  A    between atoms: N_13  and  C_14
REMARK    5  A    between atoms: C_14  and  C_15
REMARK    6  A    between atoms: C_18  and  N_19
REMARK    7  A    between atoms: N_19  and  C_20
REMARK    8  A    between atoms: C_20  and  C_21
REMARK    9  A    between atoms: C_21  and  N_22
REMARK   10  A    between atoms: N_25  and  C_26
REMARK                            x       y       z     vdW  Elec       q    Type
REMARK                         _______ _______ _______ _____ _____    ______ ____
ROOT
ATOM      1  C   UNL     1      48.669   7.577  16.501  0.00  0.00    +0.000 A 
ATOM      2  C   UNL     1      48.651   6.486  15.626  0.00  0.00    +0.000 A 
ATOM      3  C   UNL     1      48.307   6.655  14.279  0.00  0.00    +0.000 A 
ATOM      4  C   UNL     1      47.957   7.913  13.776  0.00  0.00    +0.000 A 
ATOM      5  C   UNL     1      48.078   9.013  14.630  0.00  0.00    +0.000 A 
ATOM      6  C   UNL     1      48.410   8.851  15.981  0.00  0.00    +0.000 A 
ENDROOT
BRANCH   4   7
ATOM      7  N   UNL     1      47.601   8.151  12.445  0.00  0.00    +0.000 N 
ATOM      8  H   UNL     1      48.419   8.354  11.867  0.00  0.00    +0.000 HD
BRANCH   7   9
ATOM      9  C   UNL     1      46.752   7.154  11.785  0.00  0.00    +0.000 C 
BRANCH   9  10
ATOM     10  C   UNL     1      45.324   7.193  12.377  0.00  0.00    +0.000 C 
BRANCH  10  11
ATOM     11  N   UNL     1      44.670   5.870  12.466  0.00  0.00    +0.000 NA
ATOM     12  C   UNL     1      43.651   5.663  11.421  0.00  0.00    +0.000 C 
ATOM     13  C   UNL     1      42.997   4.268  11.531  0.00  0.00    +0.000 C 
ATOM     14  N   UNL     1      43.943   3.136  11.493  0.00  0.00    +0.000 NA
ATOM     15  C   UNL     1      44.463   2.917  10.147  0.00  0.00    +0.000 C 
ATOM     16  C   UNL     1      45.028   3.383  12.467  0.00  0.00    +0.000 C 
ATOM     17  C   UNL     1      45.675   4.788  12.389  0.00  0.00    +0.000 C 
ENDBRANCH  10  11
ENDBRANCH   9  10
ENDBRANCH   7   9
ENDBRANCH   4   7
BRANCH   1  18
ATOM     18  C   UNL     1      49.013   7.393  17.958  0.00  0.00    +0.000 C 
BRANCH  18  21
ATOM     19  C   UNL     1      51.233   6.335  18.039  0.00  0.00    +0.000 C 
ATOM     20  O   UNL     1      51.789   7.401  17.786  0.00  0.00    +0.000 OA
ATOM     21  N   UNL     1      49.873   6.252  18.146  0.00  0.00    +0.000 N 
ATOM     22  H   UNL     1      49.433   5.373  18.378  0.00  0.00    +0.000 HD
BRANCH  19  30
ATOM     23  C   UNL     1      50.574   3.022  17.359  0.00  0.00    +0.000 A 
ATOM     24  N   UNL     1      50.607   1.692  17.142  0.00  0.00    +0.000 NA
ATOM     25  C   UNL     1      51.721   1.029  17.468  0.00  0.00    +0.000 A 
ATOM     26  N   UNL     1      52.827   1.537  18.005  0.00  0.00    +0.000 NA
ATOM     27  C   UNL     1      52.756   2.864  18.198  0.00  0.00    +0.000 A 
ATOM     28  S   UNL     1      54.076   3.681  18.887  0.00  0.00    +0.000 S 
ATOM     29  C   UNL     1      53.273   5.173  18.780  0.00  0.00    +0.000 A 
ATOM     30  C   UNL     1      52.002   5.090  18.217  0.00  0.00    +0.000 A 
ATOM     31  C   UNL     1      51.685   3.700  17.895  0.00  0.00    +0.000 A 
BRANCH  23  33
ATOM     32  C   UNL     1      48.315   2.878  16.710  0.00  0.00    +0.000 C 
ATOM     33  O   UNL     1      49.418   3.711  17.058  0.00  0.00    +0.000 OA
ENDBRANCH  23  33
ENDBRANCH  19  30
ENDBRANCH  18  21
ENDBRANCH   1  18
TORSDOF 8
ENDMDL
MODEL 7
REMARK VINA RESULT:    -5.878      3.036      8.978
REMARK INTER + INTRA:          -9.783
REMARK INTER:                  -8.617
REMARK INTRA:                  -1.165
REMARK UNBOUND:                -1.155
REMARK  Name = 
REMARK  10 active torsions:
REMARK  status: ('A' for Active; 'I' for Inactive)
REMARK    1  A    between atoms: C_1  and  O_2
REMARK    2  A    between atoms: O_2  and  C_3
REMARK    3  A    between atoms: C_10  and  C_11
REMARK    4  A    between atoms: N_13  and  C_14
REMARK    5  A    between atoms: C_14  and  C_15
REMARK    6  A    between atoms: C_18  and  N_19
REMARK    7  A    between atoms: N_19  and  C_20
REMARK    8  A    between atoms: C_20  and  C_21
REMARK    9  A    between atoms: C_21  and  N_22
REMARK   10  A    between atoms: N_25  and  C_26
REMARK                            x       y       z     vdW  Elec       q    Type
REMARK                         _______ _______ _______ _____ _____    ______ ____
ROOT
ATOM      1  C   UNL     1      48.629   8.131  13.123  0.00  0.00    +0.000 A 
ATOM      2  C   UNL     1      49.778   7.446  13.534  0.00  0.00    +0.000 A 
ATOM      3  C   UNL     1      50.350   7.697  14.787  0.00  0.00    +0.000 A 
ATOM      4  C   UNL     1      49.801   8.647  15.654  0.00  0.00    +0.000 A 
ATOM      5  C   UNL     1      48.597   9.250  15.281  0.00  0.00    +0.000 A 
ATOM      6  C   UNL     1      48.024   9.015  14.025  0.00  0.00    +0.000 A 
ENDROOT
BRANCH   4   7
ATOM      7  N   UNL     1      50.323   8.947  16.917  0.00  0.00    +0.000 N 
ATOM      8  H   UNL     1      49.689   9.541  17.455  0.00  0.00    +0.000 HD
BRANCH   7   9
ATOM      9  C   UNL     1      50.783   7.824  17.740  0.00  0.00    +0.000 C 
BRANCH   9  10
ATOM     10  C   UNL     1      49.589   7.183  18.486  0.00  0.00    +0.000 C 
BRANCH  10  11
ATOM     11  N   UNL     1      49.669   5.712  18.604  0.00  0.00    +0.000 NA
ATOM     12  C   UNL     1      48.347   5.077  18.756  0.00  0.00    +0.000 C 
ATOM     13  C   UNL     1      48.461   3.540  18.862  0.00  0.00    +0.000 C 
ATOM     14  N   UNL     1      49.165   2.893  17.739  0.00  0.00    +0.000 NA
ATOM     15  C   UNL     1      48.342   2.868  16.534  0.00  0.00    +0.000 C 
ATOM     16  C   UNL     1      50.450   3.589  17.510  0.00  0.00    +0.000 C 
ATOM     17  C   UNL     1      50.356   5.133  17.430  0.00  0.00    +0.000 C 
ENDBRANCH  10  11
ENDBRANCH   9  10
ENDBRANCH   7   9
ENDBRANCH   4   7
BRANCH   1  18
ATOM     18  C   UNL     1      48.026   7.883  11.763  0.00  0.00    +0.000 C 
BRANCH  18  21
ATOM     19  C   UNL     1      45.802   6.842  11.603  0.00  0.00    +0.000 C 
ATOM     20  O   UNL     1      45.269   7.930  11.399  0.00  0.00    +0.000 OA
ATOM     21  N   UNL     1      47.153   6.737  11.786  0.00  0.00    +0.000 N 
ATOM     22  H   UNL     1      47.578   5.833  11.930  0.00  0.00    +0.000 HD
BRANCH  19  30
ATOM     23  C   UNL     1      45.271   4.218   9.435  0.00  0.00    +0.000 A 
ATOM     24  N   UNL     1      44.948   3.059   8.826  0.00  0.00    +0.000 NA
ATOM     25  C   UNL     1      44.178   2.193   9.490  0.00  0.00    +0.000 A 
ATOM     26  N   UNL     1      43.670   2.346  10.710  0.00  0.00    +0.000 NA
ATOM     27  C   UNL     1      44.020   3.507  11.284  0.00  0.00    +0.000 A 
ATOM     28  S   UNL     1      43.452   3.877  12.840  0.00  0.00    +0.000 S 
ATOM     29  C   UNL     1      44.282   5.359  12.847  0.00  0.00    +0.000 A 
ATOM     30  C   UNL     1      45.010   5.601  11.686  0.00  0.00    +0.000 A 
ATOM     31  C   UNL     1      44.828   4.502  10.740  0.00  0.00    +0.000 A 
BRANCH  23  33
ATOM     32  C   UNL     1      46.741   4.588   7.632  0.00  0.00    +0.000 C 
ATOM     33  O   UNL     1      46.037   5.135   8.745  0.00  0.00    +0.000 OA
ENDBRANCH  23  33
ENDBRANCH  19  30
ENDBRANCH  18  21
ENDBRANCH   1  18
TORSDOF 8
ENDMDL
MODEL 8
REMARK VINA RESULT:    -5.519      5.796      8.919
REMARK INTER + INTRA:          -9.255
REMARK INTER:                  -8.278
REMARK INTRA:                  -0.977
REMARK UNBOUND:                -1.155
REMARK  Name = 
REMARK  10 active torsions:
REMARK  status: ('A' for Active; 'I' for Inactive)
REMARK    1  A    between atoms: C_1  and  O_2
REMARK    2  A    between atoms: O_2  and  C_3
REMARK    3  A    between atoms: C_10  and  C_11
REMARK    4  A    between atoms: N_13  and  C_14
REMARK    5  A    between atoms: C_14  and  C_15
REMARK    6  A    between atoms: C_18  and  N_19
REMARK    7  A    between atoms: N_19  and  C_20
REMARK    8  A    between atoms: C_20  and  C_21
REMARK    9  A    between atoms: C_21  and  N_22
REMARK   10  A    between atoms: N_25  and  C_26
REMARK                            x       y       z     vdW  Elec       q    Type
REMARK                         _______ _______ _______ _____ _____    ______ ____
ROOT
ATOM      1  C   UNL     1      50.592   9.023  11.517  0.00  0.00    +0.000 A 
ATOM      2  C   UNL     1      49.815   7.894  11.798  0.00  0.00    +0.000 A 
ATOM      3  C   UNL     1      48.432   8.007  11.989  0.00  0.00    +0.000 A 
ATOM      4  C   UNL     1      47.794   9.249  11.920  0.00  0.00    +0.000 A 
ATOM      5  C   UNL     1      48.559  10.355  11.536  0.00  0.00    +0.000 A 
ATOM      6  C   UNL     1      49.944  10.253  11.356  0.00  0.00    +0.000 A 
ENDROOT
BRANCH   4   7
ATOM      7  N   UNL     1      46.419   9.433  12.101  0.00  0.00    +0.000 N 
ATOM      8  H   UNL     1      45.935   9.565  11.211  0.00  0.00    +0.000 HD
BRANCH   7   9
ATOM      9  C   UNL     1      45.710   8.445  12.920  0.00  0.00    +0.000 C 
BRANCH   9  10
ATOM     10  C   UNL     1      45.006   7.407  12.014  0.00  0.00    +0.000 C 
BRANCH  10  11
ATOM     11  N   UNL     1      44.804   6.088  12.651  0.00  0.00    +0.000 NA
ATOM     12  C   UNL     1      43.392   5.665  12.656  0.00  0.00    +0.000 C 
ATOM     13  C   UNL     1      43.215   4.278  13.313  0.00  0.00    +0.000 C 
ATOM     14  N   UNL     1      44.025   3.200  12.713  0.00  0.00    +0.000 NA
ATOM     15  C   UNL     1      43.491   2.787  11.419  0.00  0.00    +0.000 C 
ATOM     16  C   UNL     1      45.428   3.654  12.608  0.00  0.00    +0.000 C 
ATOM     17  C   UNL     1      45.621   5.056  11.976  0.00  0.00    +0.000 C 
ENDBRANCH  10  11
ENDBRANCH   9  10
ENDBRANCH   7   9
ENDBRANCH   4   7
BRANCH   1  18
ATOM     18  C   UNL     1      52.085   8.908  11.339  0.00  0.00    +0.000 C 
BRANCH  18  21
ATOM     19  C   UNL     1      53.344   8.921   9.225  0.00  0.00    +0.000 C 
ATOM     20  O   UNL     1      53.962   9.930   9.559  0.00  0.00    +0.000 OA
ATOM     21  N   UNL     1      52.411   8.356  10.048  0.00  0.00    +0.000 N 
ATOM     22  H   UNL     1      51.929   7.514   9.768  0.00  0.00    +0.000 HD
BRANCH  19  30
ATOM     23  C   UNL     1      53.751   5.654   8.210  0.00  0.00    +0.000 A 
ATOM     24  N   UNL     1      53.869   4.489   7.542  0.00  0.00    +0.000 NA
ATOM     25  C   UNL     1      53.967   4.535   6.210  0.00  0.00    +0.000 A 
ATOM     26  N   UNL     1      53.973   5.623   5.445  0.00  0.00    +0.000 NA
ATOM     27  C   UNL     1      53.847   6.760   6.147  0.00  0.00    +0.000 A 
ATOM     28  S   UNL     1      53.847   8.250   5.333  0.00  0.00    +0.000 S 
ATOM     29  C   UNL     1      53.643   9.103   6.788  0.00  0.00    +0.000 A 
ATOM     30  C   UNL     1      53.562   8.286   7.913  0.00  0.00    +0.000 A 
ATOM     31  C   UNL     1      53.713   6.883   7.527  0.00  0.00    +0.000 A 
BRANCH  23  33
ATOM     32  C   UNL     1      54.879   5.172  10.221  0.00  0.00    +0.000 C 
ATOM     33  O   UNL     1      53.683   5.620   9.587  0.00  0.00    +0.000 OA
ENDBRANCH  23  33
ENDBRANCH  19  30
ENDBRANCH  18  21
ENDBRANCH   1  18
TORSDOF 8
ENDMDL
MODEL 9
REMARK VINA RESULT:    -5.455      3.696      9.048
REMARK INTER + INTRA:          -9.161
REMARK INTER:                  -7.592
REMARK INTRA:                  -1.568
REMARK UNBOUND:                -1.155
REMARK  Name = 
REMARK  10 active torsions:
REMARK  status: ('A' for Active; 'I' for Inactive)
REMARK    1  A    between atoms: C_1  and  O_2
REMARK    2  A    between atoms: O_2  and  C_3
REMARK    3  A    between atoms: C_10  and  C_11
REMARK    4  A    between atoms: N_13  and  C_14
REMARK    5  A    between atoms: C_14  and  C_15
REMARK    6  A    between atoms: C_18  and  N_19
REMARK    7  A    between atoms: N_19  and  C_20
REMARK    8  A    between atoms: C_20  and  C_21
REMARK    9  A    between atoms: C_21  and  N_22
REMARK   10  A    between atoms: N_25  and  C_26
REMARK                            x       y       z     vdW  Elec       q    Type
REMARK                         _______ _______ _______ _____ _____    ______ ____
ROOT
ATOM      1  C   UNL     1      49.362   8.988  16.029  0.00  0.00    +0.000 A 
ATOM      2  C   UNL     1      50.477   8.950  16.873  0.00  0.00    +0.000 A 
ATOM      3  C   UNL     1      50.352   9.248  18.236  0.00  0.00    +0.000 A 
ATOM      4  C   UNL     1      49.118   9.607  18.786  0.00  0.00    +0.000 A 
ATOM      5  C   UNL     1      47.993   9.542  17.959  0.00  0.00    +0.000 A 
ATOM      6  C   UNL     1      48.109   9.256  16.593  0.00  0.00    +0.000 A 
ENDROOT
BRANCH   4   7
ATOM      7  N   UNL     1      48.924   9.919  20.136  0.00  0.00    +0.000 N 
ATOM      8  H   UNL     1      47.999  10.319  20.301  0.00  0.00    +0.000 HD
BRANCH   7   9
ATOM      9  C   UNL     1      49.201   8.864  21.117  0.00  0.00    +0.000 C 
BRANCH   9  10
ATOM     10  C   UNL     1      48.047   7.834  21.134  0.00  0.00    +0.000 C 
BRANCH  10  11
ATOM     11  N   UNL     1      48.429   6.492  20.646  0.00  0.00    +0.000 NA
ATOM     12  C   UNL     1      47.783   6.143  19.367  0.00  0.00    +0.000 C 
ATOM     13  C   UNL     1      48.212   4.743  18.875  0.00  0.00    +0.000 C 
ATOM     14  N   UNL     1      49.668   4.556  18.731  0.00  0.00    +0.000 NA
ATOM     15  C   UNL     1      50.185   5.256  17.559  0.00  0.00    +0.000 C 
ATOM     16  C   UNL     1      50.336   5.000  19.974  0.00  0.00    +0.000 C 
ATOM     17  C   UNL     1      49.896   6.391  20.496  0.00  0.00    +0.000 C 
ENDBRANCH  10  11
ENDBRANCH   9  10
ENDBRANCH   7   9
ENDBRANCH   4   7
BRANCH   1  18
ATOM     18  C   UNL     1      49.498   8.694  14.556  0.00  0.00    +0.000 C 
BRANCH  18  21
ATOM     19  C   UNL     1      48.108   7.167  13.217  0.00  0.00    +0.000 C 
ATOM     20  O   UNL     1      49.072   6.445  12.976  0.00  0.00    +0.000 OA
ATOM     21  N   UNL     1      48.236   8.287  13.991  0.00  0.00    +0.000 N 
ATOM     22  H   UNL     1      47.430   8.857  14.199  0.00  0.00    +0.000 HD
BRANCH  19  30
ATOM     23  C   UNL     1      46.083   4.379  13.251  0.00  0.00    +0.000 A 
ATOM     24  N   UNL     1      45.084   3.478  13.168  0.00  0.00    +0.000 NA
ATOM     25  C   UNL     1      43.957   3.844  12.550  0.00  0.00    +0.000 A 
ATOM     26  N   UNL     1      43.700   5.019  11.983  0.00  0.00    +0.000 NA
ATOM     27  C   UNL     1      44.716   5.890  12.093  0.00  0.00    +0.000 A 
ATOM     28  S   UNL     1      44.569   7.439  11.416  0.00  0.00    +0.000 S 
ATOM     29  C   UNL     1      46.117   7.880  11.957  0.00  0.00    +0.000 A 
ATOM     30  C   UNL     1      46.772   6.876  12.666  0.00  0.00    +0.000 A 
ATOM     31  C   UNL     1      45.940   5.675  12.721  0.00  0.00    +0.000 A 
BRANCH  23  33
ATOM     32  C   UNL     1      47.268   4.155  15.275  0.00  0.00    +0.000 C 
ATOM     33  O   UNL     1      47.263   4.002  13.857  0.00  0.00    +0.000 OA
ENDBRANCH  23  33
ENDBRANCH  19  30
ENDBRANCH  18  21
ENDBRANCH   1  18
TORSDOF 8
ENDMDL
