MODEL 1
REMARK VINA RESULT:    -8.654      0.000      0.000
REMARK INTER + INTRA:         -11.884
REMARK INTER:                 -11.184
REMARK INTRA:                  -0.700
REMARK UNBOUND:                -0.700
REMARK  Name = 
REMARK  5 active torsions:
REMARK  status: ('A' for Active; 'I' for Inactive)
REMARK    1  A    between atoms: C_2  and  C_4
REMARK    2  A    between atoms: C_7  and  O_8
REMARK    3  A    between atoms: O_8  and  C_9
REMARK    4  A    between atoms: C_9  and  C_10
REMARK    5  A    between atoms: C_12  and  C_13
REMARK                            x       y       z     vdW  Elec       q    Type
REMARK                         _______ _______ _______ _____ _____    ______ ____
ROOT
ATOM      1  C   UNL     1      43.683   3.541  11.660  0.00  0.00    +0.000 C 
ENDROOT
BRANCH   1   2
ATOM      2  C   UNL     1      44.938   4.178  12.213  0.00  0.00    +0.000 A 
ATOM      3  C   UNL     1      45.228   5.521  11.974  0.00  0.00    +0.000 A 
ATOM      4  C   UNL     1      46.358   6.120  12.553  0.00  0.00    +0.000 A 
ATOM      5  C   UNL     1      47.157   5.305  13.365  0.00  0.00    +0.000 A 
ATOM      6  C   UNL     1      46.804   3.978  13.555  0.00  0.00    +0.000 A 
ATOM      7  N   UNL     1      45.715   3.404  13.010  0.00  0.00    +0.000 NA
BRANCH   4   8
ATOM      8  C   UNL     1      46.678   7.544  12.316  0.00  0.00    +0.000 A 
ATOM      9  C   UNL     1      47.995   7.996  12.132  0.00  0.00    +0.000 A 
ATOM     10  C   UNL     1      48.266   9.347  11.921  0.00  0.00    +0.000 A 
ATOM     11  C   UNL     1      47.203  10.230  11.884  0.00  0.00    +0.000 A 
ATOM     12  N   UNL     1      45.920   9.857  12.050  0.00  0.00    +0.000 NA
ATOM     13  C   UNL     1      45.693   8.537  12.265  0.00  0.00    +0.000 A 
ENDBRANCH   4   8
ENDBRANCH   1   2
BRANCH   1  14
ATOM     14  O   UNL     1      43.516   3.852  10.273  0.00  0.00    +0.000 OA
BRANCH  14  18
ATOM     15  C   UNL     1      46.416   2.564   7.570  0.00  0.00    +0.000 A 
ATOM     16  C   UNL     1      45.846   1.625   8.434  0.00  0.00    +0.000 A 
ATOM     17  C   UNL     1      44.862   2.014   9.350  0.00  0.00    +0.000 A 
ATOM     18  C   UNL     1      44.447   3.346   9.411  0.00  0.00    +0.000 A 
ATOM     19  C   UNL     1      45.017   4.283   8.544  0.00  0.00    +0.000 A 
ATOM     20  C   UNL     1      46.001   3.898   7.630  0.00  0.00    +0.000 A 
BRANCH  15  22
ATOM     21  N   UNL     1      47.526   2.861   5.421  0.00  0.00    +0.000 N 
ATOM     22  C   UNL     1      47.492   2.193   6.613  0.00  0.00    +0.000 C 
ATOM     23  O   UNL     1      48.331   1.346   6.887  0.00  0.00    +0.000 OA
ATOM     24  H   UNL     1      48.309   2.655   4.814  0.00  0.00    +0.000 HD
ATOM     25  H   UNL     1      47.019   3.718   5.259  0.00  0.00    +0.000 HD
ENDBRANCH  15  22
ENDBRANCH  14  18
ENDBRANCH   1  14
TORSDOF 5
ENDMDL
MODEL 2
REMARK VINA RESULT:    -8.564      0.709      1.244
REMARK INTER + INTRA:         -11.768
REMARK INTER:                 -11.140
REMARK INTRA:                  -0.629
REMARK UNBOUND:                -0.700
REMARK  Name = 
REMARK  5 active torsions:
REMARK  status: ('A' for Active; 'I' for Inactive)
REMARK    1  A    between atoms: C_2  and  C_4
REMARK    2  A    between atoms: C_7  and  O_8
REMARK    3  A    between atoms: O_8  and  C_9
REMARK    4  A    between atoms: C_9  and  C_10
REMARK    5  A    between atoms: C_12  and  C_13
REMARK                            x       y       z     vdW  Elec       q    Type
REMARK                         _______ _______ _______ _____ _____    ______ ____
ROOT
ATOM      1  C   UNL     1      43.464   4.408  10.978  0.00  0.00    +0.000 C 
ENDROOT
BRANCH   1   2
ATOM      2  C   UNL     1      44.707   4.744  11.771  0.00  0.00    +0.000 A 
ATOM      3  C   UNL     1      45.399   5.935  11.553  0.00  0.00    +0.000 A 
ATOM      4  C   UNL     1      46.509   6.270  12.345  0.00  0.00    +0.000 A 
ATOM      5  C   UNL     1      46.870   5.355  13.343  0.00  0.00    +0.000 A 
ATOM      6  C   UNL     1      46.133   4.192  13.499  0.00  0.00    +0.000 A 
ATOM      7  N   UNL     1      45.061   3.873  12.748  0.00  0.00    +0.000 NA
BRANCH   4   8
ATOM      8  C   UNL     1      47.250   7.531  12.132  0.00  0.00    +0.000 A 
ATOM      9  C   UNL     1      48.588   7.551  11.706  0.00  0.00    +0.000 A 
ATOM     10  C   UNL     1      49.264   8.756  11.524  0.00  0.00    +0.000 A 
ATOM     11  C   UNL     1      48.581   9.934  11.763  0.00  0.00    +0.000 A 
ATOM     12  N   UNL     1      47.298   9.979  12.169  0.00  0.00    +0.000 NA
ATOM     13  C   UNL     1      46.673   8.787  12.347  0.00  0.00    +0.000 A 
ENDBRANCH   4   8
ENDBRANCH   1   2
BRANCH   1  14
ATOM     14  O   UNL     1      43.597   3.144  10.322  0.00  0.00    +0.000 OA
BRANCH  14  18
ATOM     15  C   UNL     1      46.492   2.605   7.370  0.00  0.00    +0.000 A 
ATOM     16  C   UNL     1      45.891   3.861   7.494  0.00  0.00    +0.000 A 
ATOM     17  C   UNL     1      44.922   4.087   8.477  0.00  0.00    +0.000 A 
ATOM     18  C   UNL     1      44.543   3.056   9.340  0.00  0.00    +0.000 A 
ATOM     19  C   UNL     1      45.147   1.801   9.216  0.00  0.00    +0.000 A 
ATOM     20  C   UNL     1      46.114   1.572   8.233  0.00  0.00    +0.000 A 
BRANCH  15  22
ATOM     21  N   UNL     1      47.438   3.080   5.175  0.00  0.00    +0.000 N 
ATOM     22  C   UNL     1      47.495   2.320   6.310  0.00  0.00    +0.000 C 
ATOM     23  O   UNL     1      48.352   1.459   6.452  0.00  0.00    +0.000 OA
ATOM     24  H   UNL     1      48.175   2.929   4.498  0.00  0.00    +0.000 HD
ATOM     25  H   UNL     1      46.919   3.944   5.121  0.00  0.00    +0.000 HD
ENDBRANCH  15  22
ENDBRANCH  14  18
ENDBRANCH   1  14
TORSDOF 5
ENDMDL
MODEL 3
REMARK VINA RESULT:    -8.105      2.147      3.742
REMARK INTER + INTRA:         -11.174
REMARK INTER:                 -10.643
REMARK INTRA:                  -0.531
REMARK UNBOUND:                -0.700
REMARK  Name = 
REMARK  5 active torsions:
REMARK  status: ('A' for Active; 'I' for Inactive)
REMARK    1  A    between atoms: C_2  and  C_4
REMARK    2  A    between atoms: C_7  and  O_8
REMARK    3  A    between atoms: O_8  and  C_9
REMARK    4  A    between atoms: C_9  and  C_10
REMARK    5  A    between atoms: C_12  and  C_13
REMARK                            x       y       z     vdW  Elec       q    Type
REMARK                         _______ _______ _______ _____ _____    ______ ____
ROOT
ATOM      1  C   UNL     1      44.074   4.161  11.758  0.00  0.00    +0.000 C 
ENDROOT
BRANCH   1   2
ATOM      2  C   UNL     1      45.200   4.930  12.412  0.00  0.00    +0.000 A 
ATOM      3  C   UNL     1      45.803   4.465  13.580  0.00  0.00    +0.000 A 
ATOM      4  C   UNL     1      46.896   5.148  14.138  0.00  0.00    +0.000 A 
ATOM      5  C   UNL     1      47.331   6.297  13.466  0.00  0.00    +0.000 A 
ATOM      6  C   UNL     1      46.679   6.697  12.310  0.00  0.00    +0.000 A 
ATOM      7  N   UNL     1      45.638   6.038  11.766  0.00  0.00    +0.000 NA
BRANCH   4   8
ATOM      8  C   UNL     1      47.553   4.666  15.372  0.00  0.00    +0.000 A 
ATOM      9  C   UNL     1      47.475   3.328  15.789  0.00  0.00    +0.000 A 
ATOM     10  C   UNL     1      48.097   2.906  16.963  0.00  0.00    +0.000 A 
ATOM     11  C   UNL     1      48.803   3.836  17.702  0.00  0.00    +0.000 A 
ATOM     12  N   UNL     1      48.917   5.132  17.352  0.00  0.00    +0.000 NA
ATOM     13  C   UNL     1      48.289   5.511  16.210  0.00  0.00    +0.000 A 
ENDBRANCH   4   8
ENDBRANCH   1   2
BRANCH   1  14
ATOM     14  O   UNL     1      43.979   4.471  10.364  0.00  0.00    +0.000 OA
BRANCH  14  18
ATOM     15  C   UNL     1      46.482   2.473   7.695  0.00  0.00    +0.000 A 
ATOM     16  C   UNL     1      45.723   1.716   8.592  0.00  0.00    +0.000 A 
ATOM     17  C   UNL     1      44.864   2.346   9.498  0.00  0.00    +0.000 A 
ATOM     18  C   UNL     1      44.762   3.739   9.517  0.00  0.00    +0.000 A 
ATOM     19  C   UNL     1      45.520   4.494   8.617  0.00  0.00    +0.000 A 
ATOM     20  C   UNL     1      46.380   3.867   7.712  0.00  0.00    +0.000 A 
BRANCH  15  22
ATOM     21  N   UNL     1      48.535   2.564   6.385  0.00  0.00    +0.000 N 
ATOM     22  C   UNL     1      47.435   1.837   6.747  0.00  0.00    +0.000 C 
ATOM     23  O   UNL     1      47.262   0.702   6.326  0.00  0.00    +0.000 OA
ATOM     24  H   UNL     1      49.214   2.090   5.804  0.00  0.00    +0.000 HD
ATOM     25  H   UNL     1      48.838   3.385   6.889  0.00  0.00    +0.000 HD
ENDBRANCH  15  22
ENDBRANCH  14  18
ENDBRANCH   1  14
TORSDOF 5
ENDMDL
MODEL 4
REMARK VINA RESULT:    -7.594      2.577      6.585
REMARK INTER + INTRA:         -10.514
REMARK INTER:                  -9.675
REMARK INTRA:                  -0.839
REMARK UNBOUND:                -0.700
REMARK  Name = 
REMARK  5 active torsions:
REMARK  status: ('A' for Active; 'I' for Inactive)
REMARK    1  A    between atoms: C_2  and  C_4
REMARK    2  A    between atoms: C_7  and  O_8
REMARK    3  A    between atoms: O_8  and  C_9
REMARK    4  A    between atoms: C_9  and  C_10
REMARK    5  A    between atoms: C_12  and  C_13
REMARK                            x       y       z     vdW  Elec       q    Type
REMARK                         _______ _______ _______ _____ _____    ______ ____
ROOT
ATOM      1  C   UNL     1      43.694   6.086  11.273  0.00  0.00    +0.000 C 
ENDROOT
BRANCH   1   2
ATOM      2  C   UNL     1      43.866   4.658  10.807  0.00  0.00    +0.000 A 
ATOM      3  C   UNL     1      44.691   4.349   9.726  0.00  0.00    +0.000 A 
ATOM      4  C   UNL     1      44.901   3.013   9.348  0.00  0.00    +0.000 A 
ATOM      5  C   UNL     1      44.245   2.034  10.105  0.00  0.00    +0.000 A 
ATOM      6  C   UNL     1      43.441   2.419  11.166  0.00  0.00    +0.000 A 
ATOM      7  N   UNL     1      43.247   3.699  11.538  0.00  0.00    +0.000 NA
BRANCH   4   8
ATOM      8  C   UNL     1      45.777   2.667   8.208  0.00  0.00    +0.000 A 
ATOM      9  C   UNL     1      46.053   3.574   7.173  0.00  0.00    +0.000 A 
ATOM     10  C   UNL     1      46.875   3.215   6.106  0.00  0.00    +0.000 A 
ATOM     11  C   UNL     1      47.423   1.945   6.099  0.00  0.00    +0.000 A 
ATOM     12  N   UNL     1      47.199   1.034   7.064  0.00  0.00    +0.000 NA
ATOM     13  C   UNL     1      46.384   1.413   8.082  0.00  0.00    +0.000 A 
ENDBRANCH   4   8
ENDBRANCH   1   2
BRANCH   1  14
ATOM     14  O   UNL     1      44.222   6.265  12.591  0.00  0.00    +0.000 OA
BRANCH  14  18
ATOM     15  C   UNL     1      48.302   7.102  12.782  0.00  0.00    +0.000 A 
ATOM     16  C   UNL     1      47.819   5.976  13.456  0.00  0.00    +0.000 A 
ATOM     17  C   UNL     1      46.459   5.654  13.409  0.00  0.00    +0.000 A 
ATOM     18  C   UNL     1      45.570   6.460  12.694  0.00  0.00    +0.000 A 
ATOM     19  C   UNL     1      46.055   7.584  12.019  0.00  0.00    +0.000 A 
ATOM     20  C   UNL     1      47.414   7.909  12.064  0.00  0.00    +0.000 A 
BRANCH  15  22
ATOM     21  N   UNL     1      50.477   7.331  11.709  0.00  0.00    +0.000 N 
ATOM     22  C   UNL     1      49.734   7.496  12.844  0.00  0.00    +0.000 C 
ATOM     23  O   UNL     1      50.226   7.972  13.858  0.00  0.00    +0.000 OA
ATOM     24  H   UNL     1      51.427   7.677  11.741  0.00  0.00    +0.000 HD
ATOM     25  H   UNL     1      50.063   7.180  10.800  0.00  0.00    +0.000 HD
ENDBRANCH  15  22
ENDBRANCH  14  18
ENDBRANCH   1  14
TORSDOF 5
ENDMDL
MODEL 5
REMARK VINA RESULT:    -7.361      2.786      7.266
REMARK INTER + INTRA:         -10.212
REMARK INTER:                  -9.866
REMARK INTRA:                  -0.346
REMARK UNBOUND:                -0.700
REMARK  Name = 
REMARK  5 active torsions:
REMARK  status: ('A' for Active; 'I' for Inactive)
REMARK    1  A    between atoms: C_2  and  C_4
REMARK    2  A    between atoms: C_7  and  O_8
REMARK    3  A    between atoms: O_8  and  C_9
REMARK    4  A    between atoms: C_9  and  C_10
REMARK    5  A    between atoms: C_12  and  C_13
REMARK                            x       y       z     vdW  Elec       q    Type
REMARK                         _______ _______ _______ _____ _____    ______ ____
ROOT
ATOM      1  C   UNL     1      44.961   6.595  11.210  0.00  0.00    +0.000 C 
ENDROOT
BRANCH   1   2
ATOM      2  C   UNL     1      44.691   5.205  10.681  0.00  0.00    +0.000 A 
ATOM      3  C   UNL     1      45.418   4.692   9.607  0.00  0.00    +0.000 A 
ATOM      4  C   UNL     1      45.210   3.374   9.171  0.00  0.00    +0.000 A 
ATOM      5  C   UNL     1      44.250   2.625   9.863  0.00  0.00    +0.000 A 
ATOM      6  C   UNL     1      43.567   3.205  10.920  0.00  0.00    +0.000 A 
ATOM      7  N   UNL     1      43.773   4.465  11.349  0.00  0.00    +0.000 NA
BRANCH   4   8
ATOM      8  C   UNL     1      45.976   2.810   8.038  0.00  0.00    +0.000 A 
ATOM      9  C   UNL     1      46.273   3.560   6.888  0.00  0.00    +0.000 A 
ATOM     10  C   UNL     1      46.989   2.998   5.832  0.00  0.00    +0.000 A 
ATOM     11  C   UNL     1      47.409   1.686   5.950  0.00  0.00    +0.000 A 
ATOM     12  N   UNL     1      47.158   0.919   7.028  0.00  0.00    +0.000 NA
ATOM     13  C   UNL     1      46.449   1.494   8.032  0.00  0.00    +0.000 A 
ENDBRANCH   4   8
ENDBRANCH   1   2
BRANCH   1  14
ATOM     14  O   UNL     1      46.358   6.795  11.447  0.00  0.00    +0.000 OA
BRANCH  14  18
ATOM     15  C   UNL     1      47.970   5.738  15.144  0.00  0.00    +0.000 A 
ATOM     16  C   UNL     1      47.032   4.884  14.556  0.00  0.00    +0.000 A 
ATOM     17  C   UNL     1      46.474   5.197  13.312  0.00  0.00    +0.000 A 
ATOM     18  C   UNL     1      46.846   6.369  12.650  0.00  0.00    +0.000 A 
ATOM     19  C   UNL     1      47.785   7.220  13.239  0.00  0.00    +0.000 A 
ATOM     20  C   UNL     1      48.344   6.912  14.482  0.00  0.00    +0.000 A 
BRANCH  15  22
ATOM     21  N   UNL     1      47.679   5.293  17.522  0.00  0.00    +0.000 N 
ATOM     22  C   UNL     1      48.552   5.457  16.483  0.00  0.00    +0.000 C 
ATOM     23  O   UNL     1      49.759   5.350  16.649  0.00  0.00    +0.000 OA
ATOM     24  H   UNL     1      48.083   5.024  18.409  0.00  0.00    +0.000 HD
ATOM     25  H   UNL     1      46.692   5.130  17.386  0.00  0.00    +0.000 HD
ENDBRANCH  15  22
ENDBRANCH  14  18
ENDBRANCH   1  14
TORSDOF 5
ENDMDL
MODEL 6
REMARK VINA RESULT:    -7.005      2.482      6.707
REMARK INTER + INTRA:          -9.753
REMARK INTER:                  -9.020
REMARK INTRA:                  -0.732
REMARK UNBOUND:                -0.700
REMARK  Name = 
REMARK  5 active torsions:
REMARK  status: ('A' for Active; 'I' for Inactive)
REMARK    1  A    between atoms: C_2  and  C_4
REMARK    2  A    between atoms: C_7  and  O_8
REMARK    3  A    between atoms: O_8  and  C_9
REMARK    4  A    between atoms: C_9  and  C_10
REMARK    5  A    between atoms: C_12  and  C_13
REMARK                            x       y       z     vdW  Elec       q    Type
REMARK                         _______ _______ _______ _____ _____    ______ ____
ROOT
ATOM      1  C   UNL     1      44.262   6.131  12.484  0.00  0.00    +0.000 C 
ENDROOT
BRANCH   1   2
ATOM      2  C   UNL     1      44.145   4.820  11.739  0.00  0.00    +0.000 A 
ATOM      3  C   UNL     1      44.880   4.586  10.577  0.00  0.00    +0.000 A 
ATOM      4  C   UNL     1      44.820   3.339   9.935  0.00  0.00    +0.000 A 
ATOM      5  C   UNL     1      43.996   2.369  10.519  0.00  0.00    +0.000 A 
ATOM      6  C   UNL     1      43.296   2.676  11.675  0.00  0.00    +0.000 A 
ATOM      7  N   UNL     1      43.360   3.868  12.299  0.00  0.00    +0.000 NA
BRANCH   4   8
ATOM      8  C   UNL     1      45.597   3.071   8.706  0.00  0.00    +0.000 A 
ATOM      9  C   UNL     1      46.065   1.787   8.380  0.00  0.00    +0.000 A 
ATOM     10  C   UNL     1      46.804   1.568   7.219  0.00  0.00    +0.000 A 
ATOM     11  C   UNL     1      47.055   2.644   6.389  0.00  0.00    +0.000 A 
ATOM     12  N   UNL     1      46.631   3.895   6.645  0.00  0.00    +0.000 NA
ATOM     13  C   UNL     1      45.924   4.076   7.790  0.00  0.00    +0.000 A 
ENDBRANCH   4   8
ENDBRANCH   1   2
BRANCH   1  14
ATOM     14  O   UNL     1      45.497   6.208  13.202  0.00  0.00    +0.000 OA
BRANCH  14  18
ATOM     15  C   UNL     1      48.370   8.931  11.893  0.00  0.00    +0.000 A 
ATOM     16  C   UNL     1      47.122   9.418  12.294  0.00  0.00    +0.000 A 
ATOM     17  C   UNL     1      46.133   8.540  12.749  0.00  0.00    +0.000 A 
ATOM     18  C   UNL     1      46.384   7.167  12.800  0.00  0.00    +0.000 A 
ATOM     19  C   UNL     1      47.633   6.682  12.402  0.00  0.00    +0.000 A 
ATOM     20  C   UNL     1      48.622   7.557  11.945  0.00  0.00    +0.000 A 
BRANCH  15  22
ATOM     21  N   UNL     1      49.055  11.102  11.024  0.00  0.00    +0.000 N 
ATOM     22  C   UNL     1      49.429   9.832  11.366  0.00  0.00    +0.000 C 
ATOM     23  O   UNL     1      50.592   9.467  11.266  0.00  0.00    +0.000 OA
ATOM     24  H   UNL     1      49.799  11.728  10.743  0.00  0.00    +0.000 HD
ATOM     25  H   UNL     1      48.181  11.513  11.317  0.00  0.00    +0.000 HD
ENDBRANCH  15  22
ENDBRANCH  14  18
ENDBRANCH   1  14
TORSDOF 5
ENDMDL
MODEL 7
REMARK VINA RESULT:    -6.258      3.264      5.896
REMARK INTER + INTRA:          -8.788
REMARK INTER:                  -8.051
REMARK INTRA:                  -0.737
REMARK UNBOUND:                -0.700
REMARK  Name = 
REMARK  5 active torsions:
REMARK  status: ('A' for Active; 'I' for Inactive)
REMARK    1  A    between atoms: C_2  and  C_4
REMARK    2  A    between atoms: C_7  and  O_8
REMARK    3  A    between atoms: O_8  and  C_9
REMARK    4  A    between atoms: C_9  and  C_10
REMARK    5  A    between atoms: C_12  and  C_13
REMARK                            x       y       z     vdW  Elec       q    Type
REMARK                         _______ _______ _______ _____ _____    ______ ____
ROOT
ATOM      1  C   UNL     1      47.707   7.715  12.240  0.00  0.00    +0.000 C 
ENDROOT
BRANCH   1   2
ATOM      2  C   UNL     1      48.324   7.664  13.619  0.00  0.00    +0.000 A 
ATOM      3  C   UNL     1      48.137   6.560  14.450  0.00  0.00    +0.000 A 
ATOM      4  C   UNL     1      48.774   6.491  15.699  0.00  0.00    +0.000 A 
ATOM      5  C   UNL     1      49.587   7.575  16.052  0.00  0.00    +0.000 A 
ATOM      6  C   UNL     1      49.723   8.638  15.173  0.00  0.00    +0.000 A 
ATOM      7  N   UNL     1      49.123   8.702  13.969  0.00  0.00    +0.000 NA
BRANCH   4   8
ATOM      8  C   UNL     1      48.593   5.324  16.590  0.00  0.00    +0.000 A 
ATOM      9  C   UNL     1      47.543   4.408  16.420  0.00  0.00    +0.000 A 
ATOM     10  C   UNL     1      47.392   3.323  17.282  0.00  0.00    +0.000 A 
ATOM     11  C   UNL     1      48.311   3.165  18.303  0.00  0.00    +0.000 A 
ATOM     12  N   UNL     1      49.340   4.007  18.514  0.00  0.00    +0.000 NA
ATOM     13  C   UNL     1      49.450   5.059  17.663  0.00  0.00    +0.000 A 
ENDBRANCH   4   8
ENDBRANCH   1   2
BRANCH   1  14
ATOM     14  O   UNL     1      46.278   7.735  12.314  0.00  0.00    +0.000 OA
BRANCH  14  18
ATOM     15  C   UNL     1      44.441   4.112  11.375  0.00  0.00    +0.000 A 
ATOM     16  C   UNL     1      44.274   4.631  12.662  0.00  0.00    +0.000 A 
ATOM     17  C   UNL     1      44.866   5.848  13.015  0.00  0.00    +0.000 A 
ATOM     18  C   UNL     1      45.633   6.552  12.085  0.00  0.00    +0.000 A 
ATOM     19  C   UNL     1      45.797   6.033  10.798  0.00  0.00    +0.000 A 
ATOM     20  C   UNL     1      45.209   4.816  10.442  0.00  0.00    +0.000 A 
BRANCH  15  22
ATOM     21  N   UNL     1      44.425   2.167   9.907  0.00  0.00    +0.000 N 
ATOM     22  C   UNL     1      43.861   2.801  10.979  0.00  0.00    +0.000 C 
ATOM     23  O   UNL     1      42.936   2.296  11.598  0.00  0.00    +0.000 OA
ATOM     24  H   UNL     1      44.073   1.241   9.699  0.00  0.00    +0.000 HD
ATOM     25  H   UNL     1      45.326   2.422   9.532  0.00  0.00    +0.000 HD
ENDBRANCH  15  22
ENDBRANCH  14  18
ENDBRANCH   1  14
TORSDOF 5
ENDMDL
