MODEL 1
REMARK VINA RESULT:    -8.545      0.000      0.000
REMARK INTER + INTRA:         -11.078
REMARK INTER:                 -11.043
REMARK INTRA:                  -0.035
REMARK UNBOUND:                -0.035
REMARK  Name = 
REMARK  6 active torsions:
REMARK  status: ('A' for Active; 'I' for Inactive)
REMARK    1  A    between atoms: C_1  and  C_2
REMARK    2  A    between atoms: C_5  and  C_6
REMARK    3  A    between atoms: C_10  and  C_11
REMARK    4  A    between atoms: C_11  and  C_12
REMARK    5  A    between atoms: C_15  and  O_16
REMARK    6  A    between atoms: O_16  and  C_17
REMARK                            x       y       z     vdW  Elec       q    Type
REMARK                         _______ _______ _______ _____ _____    ______ ____
ROOT
ATOM      1  C   UNL     1      44.373   4.862  11.803  0.00  0.00    +0.000 C 
ATOM      2  C   UNL     1      43.295   5.967  11.725  0.00  0.00    +0.000 C 
ATOM      3  C   UNL     1      43.032   4.741  12.526  0.00  0.00    +0.000 C 
ENDROOT
BRANCH   1  10
ATOM      4  C   UNL     1      46.120   7.398  11.455  0.00  0.00    +0.000 C 
ATOM      5  C   UNL     1      46.425   6.336  12.473  0.00  0.00    +0.000 A 
ATOM      6  C   UNL     1      47.519   6.512  13.332  0.00  0.00    +0.000 A 
ATOM      7  N   UNL     1      47.891   5.646  14.303  0.00  0.00    +0.000 NA
ATOM      8  C   UNL     1      47.133   4.525  14.415  0.00  0.00    +0.000 A 
ATOM      9  C   UNL     1      46.034   4.263  13.609  0.00  0.00    +0.000 A 
ATOM     10  C   UNL     1      45.633   5.177  12.619  0.00  0.00    +0.000 A 
BRANCH   8  11
ATOM     11  C   UNL     1      47.480   3.548  15.493  0.00  0.00    +0.000 C 
ATOM     12  N   UNL     1      46.820   3.699  16.680  0.00  0.00    +0.000 N 
ATOM     13  O   UNL     1      48.293   2.647  15.329  0.00  0.00    +0.000 OA
ATOM     14  H   UNL     1      46.115   4.420  16.780  0.00  0.00    +0.000 HD
ATOM     15  H   UNL     1      46.983   3.025  17.414  0.00  0.00    +0.000 HD
ENDBRANCH   8  11
ENDBRANCH   1  10
BRANCH   1  16
ATOM     16  C   UNL     1      44.552   4.175  10.442  0.00  0.00    +0.000 A 
ATOM     17  C   UNL     1      45.275   4.784   9.405  0.00  0.00    +0.000 A 
ATOM     18  C   UNL     1      45.840   4.018   8.382  0.00  0.00    +0.000 A 
ATOM     19  C   UNL     1      45.687   2.635   8.386  0.00  0.00    +0.000 A 
ATOM     20  C   UNL     1      44.787   2.049   9.271  0.00  0.00    +0.000 A 
ATOM     21  C   UNL     1      44.216   2.818  10.285  0.00  0.00    +0.000 A 
BRANCH  19  22
ATOM     22  O   UNL     1      46.354   1.791   7.552  0.00  0.00    +0.000 OA
BRANCH  22  23
ATOM     23  C   UNL     1      47.200   2.396   6.573  0.00  0.00    +0.000 C 
ATOM     24  F   UNL     1      48.050   3.328   7.056  0.00  0.00    +0.000 F 
ATOM     25  F   UNL     1      47.940   1.438   5.971  0.00  0.00    +0.000 F 
ATOM     26  F   UNL     1      46.424   2.978   5.632  0.00  0.00    +0.000 F 
ENDBRANCH  22  23
ENDBRANCH  19  22
ENDBRANCH   1  16
TORSDOF 5
ENDMDL
MODEL 2
REMARK VINA RESULT:    -8.446      2.255      3.135
REMARK INTER + INTRA:         -10.951
REMARK INTER:                 -10.620
REMARK INTRA:                  -0.330
REMARK UNBOUND:                -0.035
REMARK  Name = 
REMARK  6 active torsions:
REMARK  status: ('A' for Active; 'I' for Inactive)
REMARK    1  A    between atoms: C_1  and  C_2
REMARK    2  A    between atoms: C_5  and  C_6
REMARK    3  A    between atoms: C_10  and  C_11
REMARK    4  A    between atoms: C_11  and  C_12
REMARK    5  A    between atoms: C_15  and  O_16
REMARK    6  A    between atoms: O_16  and  C_17
REMARK                            x       y       z     vdW  Elec       q    Type
REMARK                         _______ _______ _______ _____ _____    ______ ____
ROOT
ATOM      1  C   UNL     1      44.094   4.842  11.620  0.00  0.00    +0.000 C 
ATOM      2  C   UNL     1      42.636   5.353  11.625  0.00  0.00    +0.000 C 
ATOM      3  C   UNL     1      43.024   4.235  12.528  0.00  0.00    +0.000 C 
ENDROOT
BRANCH   1  10
ATOM      4  C   UNL     1      46.560   3.875  13.228  0.00  0.00    +0.000 C 
ATOM      5  C   UNL     1      46.288   5.327  12.955  0.00  0.00    +0.000 A 
ATOM      6  C   UNL     1      47.204   6.287  13.407  0.00  0.00    +0.000 A 
ATOM      7  N   UNL     1      47.090   7.621  13.212  0.00  0.00    +0.000 NA
ATOM      8  C   UNL     1      45.985   8.026  12.536  0.00  0.00    +0.000 A 
ATOM      9  C   UNL     1      45.023   7.151  12.053  0.00  0.00    +0.000 A 
ATOM     10  C   UNL     1      45.156   5.763  12.233  0.00  0.00    +0.000 A 
BRANCH   8  11
ATOM     11  C   UNL     1      45.824   9.488  12.265  0.00  0.00    +0.000 C 
ATOM     12  N   UNL     1      44.592  10.018  12.525  0.00  0.00    +0.000 N 
ATOM     13  O   UNL     1      46.741  10.186  11.852  0.00  0.00    +0.000 OA
ATOM     14  H   UNL     1      43.860   9.434  12.913  0.00  0.00    +0.000 HD
ATOM     15  H   UNL     1      44.458  11.012  12.411  0.00  0.00    +0.000 HD
ENDBRANCH   8  11
ENDBRANCH   1  10
BRANCH   1  16
ATOM     16  C   UNL     1      44.426   4.148  10.291  0.00  0.00    +0.000 A 
ATOM     17  C   UNL     1      45.244   4.761   9.330  0.00  0.00    +0.000 A 
ATOM     18  C   UNL     1      45.925   3.998   8.380  0.00  0.00    +0.000 A 
ATOM     19  C   UNL     1      45.794   2.612   8.379  0.00  0.00    +0.000 A 
ATOM     20  C   UNL     1      44.814   2.018   9.170  0.00  0.00    +0.000 A 
ATOM     21  C   UNL     1      44.128   2.785  10.111  0.00  0.00    +0.000 A 
BRANCH  19  22
ATOM     22  O   UNL     1      46.557   1.773   7.626  0.00  0.00    +0.000 OA
BRANCH  22  23
ATOM     23  C   UNL     1      47.273   2.362   6.540  0.00  0.00    +0.000 C 
ATOM     24  F   UNL     1      48.235   3.238   6.904  0.00  0.00    +0.000 F 
ATOM     25  F   UNL     1      47.861   1.385   5.813  0.00  0.00    +0.000 F 
ATOM     26  F   UNL     1      46.393   3.006   5.742  0.00  0.00    +0.000 F 
ENDBRANCH  22  23
ENDBRANCH  19  22
ENDBRANCH   1  16
TORSDOF 5
ENDMDL
MODEL 3
REMARK VINA RESULT:    -7.814      1.247      1.691
REMARK INTER + INTRA:         -10.133
REMARK INTER:                 -10.040
REMARK INTRA:                  -0.092
REMARK UNBOUND:                -0.035
REMARK  Name = 
REMARK  6 active torsions:
REMARK  status: ('A' for Active; 'I' for Inactive)
REMARK    1  A    between atoms: C_1  and  C_2
REMARK    2  A    between atoms: C_5  and  C_6
REMARK    3  A    between atoms: C_10  and  C_11
REMARK    4  A    between atoms: C_11  and  C_12
REMARK    5  A    between atoms: C_15  and  O_16
REMARK    6  A    between atoms: O_16  and  C_17
REMARK                            x       y       z     vdW  Elec       q    Type
REMARK                         _______ _______ _______ _____ _____    ______ ____
ROOT
ATOM      1  C   UNL     1      43.960   5.195  11.770  0.00  0.00    +0.000 C 
ATOM      2  C   UNL     1      42.508   5.722  11.787  0.00  0.00    +0.000 C 
ATOM      3  C   UNL     1      42.922   4.682  12.767  0.00  0.00    +0.000 C 
ENDROOT
BRANCH   1  10
ATOM      4  C   UNL     1      44.192   8.177  10.962  0.00  0.00    +0.000 C 
ATOM      5  C   UNL     1      45.156   7.515  11.905  0.00  0.00    +0.000 A 
ATOM      6  C   UNL     1      46.181   8.281  12.479  0.00  0.00    +0.000 A 
ATOM      7  N   UNL     1      47.101   7.815  13.355  0.00  0.00    +0.000 NA
ATOM      8  C   UNL     1      47.002   6.497  13.669  0.00  0.00    +0.000 A 
ATOM      9  C   UNL     1      46.024   5.661  13.150  0.00  0.00    +0.000 A 
ATOM     10  C   UNL     1      45.053   6.153  12.260  0.00  0.00    +0.000 A 
BRANCH   8  11
ATOM     11  C   UNL     1      47.974   5.937  14.658  0.00  0.00    +0.000 C 
ATOM     12  N   UNL     1      47.488   4.982  15.506  0.00  0.00    +0.000 N 
ATOM     13  O   UNL     1      49.145   6.289  14.703  0.00  0.00    +0.000 OA
ATOM     14  H   UNL     1      46.529   4.668  15.421  0.00  0.00    +0.000 HD
ATOM     15  H   UNL     1      48.126   4.536  16.150  0.00  0.00    +0.000 HD
ENDBRANCH   8  11
ENDBRANCH   1  10
BRANCH   1  16
ATOM     16  C   UNL     1      44.234   4.386  10.495  0.00  0.00    +0.000 A 
ATOM     17  C   UNL     1      44.975   4.923   9.432  0.00  0.00    +0.000 A 
ATOM     18  C   UNL     1      45.622   4.089   8.517  0.00  0.00    +0.000 A 
ATOM     19  C   UNL     1      45.532   2.707   8.656  0.00  0.00    +0.000 A 
ATOM     20  C   UNL     1      44.619   2.167   9.558  0.00  0.00    +0.000 A 
ATOM     21  C   UNL     1      43.967   3.004  10.463  0.00  0.00    +0.000 A 
BRANCH  19  22
ATOM     22  O   UNL     1      46.274   1.818   7.940  0.00  0.00    +0.000 OA
BRANCH  22  23
ATOM     23  C   UNL     1      46.947   2.328   6.788  0.00  0.00    +0.000 C 
ATOM     24  F   UNL     1      46.144   2.929   5.882  0.00  0.00    +0.000 F 
ATOM     25  F   UNL     1      47.875   3.232   7.178  0.00  0.00    +0.000 F 
ATOM     26  F   UNL     1      47.588   1.308   6.176  0.00  0.00    +0.000 F 
ENDBRANCH  22  23
ENDBRANCH  19  22
ENDBRANCH   1  16
TORSDOF 5
ENDMDL
MODEL 4
REMARK VINA RESULT:    -7.236      2.178      3.155
REMARK INTER + INTRA:          -9.387
REMARK INTER:                  -9.098
REMARK INTRA:                  -0.288
REMARK UNBOUND:                -0.035
REMARK  Name = 
REMARK  6 active torsions:
REMARK  status: ('A' for Active; 'I' for Inactive)
REMARK    1  A    between atoms: C_1  and  C_2
REMARK    2  A    between atoms: C_5  and  C_6
REMARK    3  A    between atoms: C_10  and  C_11
REMARK    4  A    between atoms: C_11  and  C_12
REMARK    5  A    between atoms: C_15  and  O_16
REMARK    6  A    between atoms: O_16  and  C_17
REMARK                            x       y       z     vdW  Elec       q    Type
REMARK                         _______ _______ _______ _____ _____    ______ ____
ROOT
ATOM      1  C   UNL     1      44.913   5.828  11.444  0.00  0.00    +0.000 C 
ATOM      2  C   UNL     1      44.051   7.071  11.129  0.00  0.00    +0.000 C 
ATOM      3  C   UNL     1      43.622   6.134  12.203  0.00  0.00    +0.000 C 
ENDROOT
BRANCH   1  10
ATOM      4  C   UNL     1      46.049   4.116  13.763  0.00  0.00    +0.000 C 
ATOM      5  C   UNL     1      46.788   5.288  13.183  0.00  0.00    +0.000 A 
ATOM      6  C   UNL     1      48.061   5.601  13.678  0.00  0.00    +0.000 A 
ATOM      7  N   UNL     1      48.840   6.615  13.232  0.00  0.00    +0.000 NA
ATOM      8  C   UNL     1      48.308   7.374  12.240  0.00  0.00    +0.000 A 
ATOM      9  C   UNL     1      47.056   7.142  11.690  0.00  0.00    +0.000 A 
ATOM     10  C   UNL     1      46.260   6.073  12.135  0.00  0.00    +0.000 A 
BRANCH   8  11
ATOM     11  C   UNL     1      49.139   8.489  11.688  0.00  0.00    +0.000 C 
ATOM     12  N   UNL     1      50.476   8.237  11.559  0.00  0.00    +0.000 N 
ATOM     13  O   UNL     1      48.660   9.563  11.350  0.00  0.00    +0.000 OA
ATOM     14  H   UNL     1      50.846   7.325  11.798  0.00  0.00    +0.000 HD
ATOM     15  H   UNL     1      51.063   8.942  11.137  0.00  0.00    +0.000 HD
ENDBRANCH   8  11
ENDBRANCH   1  10
BRANCH   1  16
ATOM     16  C   UNL     1      44.875   4.827  10.280  0.00  0.00    +0.000 A 
ATOM     17  C   UNL     1      45.640   5.023   9.121  0.00  0.00    +0.000 A 
ATOM     18  C   UNL     1      45.984   3.947   8.301  0.00  0.00    +0.000 A 
ATOM     19  C   UNL     1      45.565   2.662   8.631  0.00  0.00    +0.000 A 
ATOM     20  C   UNL     1      44.621   2.488   9.639  0.00  0.00    +0.000 A 
ATOM     21  C   UNL     1      44.271   3.567  10.450  0.00  0.00    +0.000 A 
BRANCH  19  22
ATOM     22  O   UNL     1      46.004   1.532   8.011  0.00  0.00    +0.000 OA
BRANCH  22  23
ATOM     23  C   UNL     1      46.834   1.714   6.863  0.00  0.00    +0.000 C 
ATOM     24  F   UNL     1      46.355   2.588   5.949  0.00  0.00    +0.000 F 
ATOM     25  F   UNL     1      48.049   2.158   7.257  0.00  0.00    +0.000 F 
ATOM     26  F   UNL     1      47.001   0.518   6.257  0.00  0.00    +0.000 F 
ENDBRANCH  22  23
ENDBRANCH  19  22
ENDBRANCH   1  16
TORSDOF 5
ENDMDL
MODEL 5
REMARK VINA RESULT:    -6.964      4.613      7.037
REMARK INTER + INTRA:          -9.035
REMARK INTER:                  -8.512
REMARK INTRA:                  -0.523
REMARK UNBOUND:                -0.035
REMARK  Name = 
REMARK  6 active torsions:
REMARK  status: ('A' for Active; 'I' for Inactive)
REMARK    1  A    between atoms: C_1  and  C_2
REMARK    2  A    between atoms: C_5  and  C_6
REMARK    3  A    between atoms: C_10  and  C_11
REMARK    4  A    between atoms: C_11  and  C_12
REMARK    5  A    between atoms: C_15  and  O_16
REMARK    6  A    between atoms: O_16  and  C_17
REMARK                            x       y       z     vdW  Elec       q    Type
REMARK                         _______ _______ _______ _____ _____    ______ ____
ROOT
ATOM      1  C   UNL     1      44.247   5.454  11.519  0.00  0.00    +0.000 C 
ATOM      2  C   UNL     1      42.807   5.551  12.069  0.00  0.00    +0.000 C 
ATOM      3  C   UNL     1      43.267   6.527  11.045  0.00  0.00    +0.000 C 
ENDROOT
BRANCH   1  10
ATOM      4  C   UNL     1      43.254   2.553  11.960  0.00  0.00    +0.000 C 
ATOM      5  C   UNL     1      44.100   2.951  10.784  0.00  0.00    +0.000 A 
ATOM      6  C   UNL     1      44.424   1.984   9.821  0.00  0.00    +0.000 A 
ATOM      7  N   UNL     1      45.159   2.213   8.708  0.00  0.00    +0.000 NA
ATOM      8  C   UNL     1      45.613   3.483   8.552  0.00  0.00    +0.000 A 
ATOM      9  C   UNL     1      45.347   4.504   9.453  0.00  0.00    +0.000 A 
ATOM     10  C   UNL     1      44.561   4.271  10.595  0.00  0.00    +0.000 A 
BRANCH   8  11
ATOM     11  C   UNL     1      46.405   3.799   7.323  0.00  0.00    +0.000 C 
ATOM     12  N   UNL     1      46.250   2.942   6.270  0.00  0.00    +0.000 N 
ATOM     13  O   UNL     1      47.137   4.776   7.244  0.00  0.00    +0.000 OA
ATOM     14  H   UNL     1      45.602   2.166   6.338  0.00  0.00    +0.000 HD
ATOM     15  H   UNL     1      46.722   3.151   5.402  0.00  0.00    +0.000 HD
ENDBRANCH   8  11
ENDBRANCH   1  10
BRANCH   1  16
ATOM     16  C   UNL     1      45.273   5.808  12.605  0.00  0.00    +0.000 A 
ATOM     17  C   UNL     1      45.751   4.841  13.503  0.00  0.00    +0.000 A 
ATOM     18  C   UNL     1      46.978   5.009  14.148  0.00  0.00    +0.000 A 
ATOM     19  C   UNL     1      47.740   6.147  13.902  0.00  0.00    +0.000 A 
ATOM     20  C   UNL     1      47.177   7.210  13.202  0.00  0.00    +0.000 A 
ATOM     21  C   UNL     1      45.946   7.043  12.568  0.00  0.00    +0.000 A 
BRANCH  19  22
ATOM     22  O   UNL     1      49.023   6.313  14.327  0.00  0.00    +0.000 OA
BRANCH  22  23
ATOM     23  C   UNL     1      49.204   6.630  15.708  0.00  0.00    +0.000 C 
ATOM     24  F   UNL     1      48.308   7.510  16.209  0.00  0.00    +0.000 F 
ATOM     25  F   UNL     1      49.121   5.497  16.440  0.00  0.00    +0.000 F 
ATOM     26  F   UNL     1      50.442   7.146  15.873  0.00  0.00    +0.000 F 
ENDBRANCH  22  23
ENDBRANCH  19  22
ENDBRANCH   1  16
TORSDOF 5
ENDMDL
MODEL 6
REMARK VINA RESULT:    -6.741      4.566      7.325
REMARK INTER + INTRA:          -8.746
REMARK INTER:                  -8.533
REMARK INTRA:                  -0.213
REMARK UNBOUND:                -0.035
REMARK  Name = 
REMARK  6 active torsions:
REMARK  status: ('A' for Active; 'I' for Inactive)
REMARK    1  A    between atoms: C_1  and  C_2
REMARK    2  A    between atoms: C_5  and  C_6
REMARK    3  A    between atoms: C_10  and  C_11
REMARK    4  A    between atoms: C_11  and  C_12
REMARK    5  A    between atoms: C_15  and  O_16
REMARK    6  A    between atoms: O_16  and  C_17
REMARK                            x       y       z     vdW  Elec       q    Type
REMARK                         _______ _______ _______ _____ _____    ______ ____
ROOT
ATOM      1  C   UNL     1      46.026   6.160  12.340  0.00  0.00    +0.000 C 
ATOM      2  C   UNL     1      45.292   7.439  12.800  0.00  0.00    +0.000 C 
ATOM      3  C   UNL     1      46.299   7.524  11.708  0.00  0.00    +0.000 C 
ENDROOT
BRANCH   1  10
ATOM      4  C   UNL     1      43.262   5.071  13.218  0.00  0.00    +0.000 C 
ATOM      5  C   UNL     1      43.939   4.638  11.948  0.00  0.00    +0.000 A 
ATOM      6  C   UNL     1      43.280   3.736  11.100  0.00  0.00    +0.000 A 
ATOM      7  N   UNL     1      43.767   3.281   9.922  0.00  0.00    +0.000 NA
ATOM      8  C   UNL     1      44.995   3.744   9.574  0.00  0.00    +0.000 A 
ATOM      9  C   UNL     1      45.723   4.636  10.349  0.00  0.00    +0.000 A 
ATOM     10  C   UNL     1      45.204   5.128  11.559  0.00  0.00    +0.000 A 
BRANCH   8  11
ATOM     11  C   UNL     1      45.567   3.299   8.266  0.00  0.00    +0.000 C 
ATOM     12  N   UNL     1      45.978   1.997   8.200  0.00  0.00    +0.000 N 
ATOM     13  O   UNL     1      45.651   4.041   7.296  0.00  0.00    +0.000 OA
ATOM     14  H   UNL     1      45.854   1.385   8.997  0.00  0.00    +0.000 HD
ATOM     15  H   UNL     1      46.316   1.640   7.318  0.00  0.00    +0.000 HD
ENDBRANCH   8  11
ENDBRANCH   1  10
BRANCH   1  16
ATOM     16  C   UNL     1      46.968   5.645  13.438  0.00  0.00    +0.000 A 
ATOM     17  C   UNL     1      47.948   6.472  14.008  0.00  0.00    +0.000 A 
ATOM     18  C   UNL     1      48.463   6.201  15.277  0.00  0.00    +0.000 A 
ATOM     19  C   UNL     1      48.003   5.098  15.990  0.00  0.00    +0.000 A 
ATOM     20  C   UNL     1      47.211   4.150  15.349  0.00  0.00    +0.000 A 
ATOM     21  C   UNL     1      46.707   4.419  14.077  0.00  0.00    +0.000 A 
BRANCH  19  22
ATOM     22  O   UNL     1      48.296   4.858  17.298  0.00  0.00    +0.000 OA
BRANCH  22  23
ATOM     23  C   UNL     1      49.450   4.057  17.559  0.00  0.00    +0.000 C 
ATOM     24  F   UNL     1      49.401   2.808  17.044  0.00  0.00    +0.000 F 
ATOM     25  F   UNL     1      50.542   4.669  17.048  0.00  0.00    +0.000 F 
ATOM     26  F   UNL     1      49.612   3.957  18.897  0.00  0.00    +0.000 F 
ENDBRANCH  22  23
ENDBRANCH  19  22
ENDBRANCH   1  16
TORSDOF 5
ENDMDL
MODEL 7
REMARK VINA RESULT:    -6.667      3.720      6.428
REMARK INTER + INTRA:          -8.651
REMARK INTER:                  -8.255
REMARK INTRA:                  -0.396
REMARK UNBOUND:                -0.035
REMARK  Name = 
REMARK  6 active torsions:
REMARK  status: ('A' for Active; 'I' for Inactive)
REMARK    1  A    between atoms: C_1  and  C_2
REMARK    2  A    between atoms: C_5  and  C_6
REMARK    3  A    between atoms: C_10  and  C_11
REMARK    4  A    between atoms: C_11  and  C_12
REMARK    5  A    between atoms: C_15  and  O_16
REMARK    6  A    between atoms: O_16  and  C_17
REMARK                            x       y       z     vdW  Elec       q    Type
REMARK                         _______ _______ _______ _____ _____    ______ ____
ROOT
ATOM      1  C   UNL     1      44.172   5.482  11.405  0.00  0.00    +0.000 C 
ATOM      2  C   UNL     1      42.819   5.464  12.152  0.00  0.00    +0.000 C 
ATOM      3  C   UNL     1      43.005   6.381  10.995  0.00  0.00    +0.000 C 
ENDROOT
BRANCH   1  10
ATOM      4  C   UNL     1      43.311   2.576  12.046  0.00  0.00    +0.000 C 
ATOM      5  C   UNL     1      44.108   2.935  10.825  0.00  0.00    +0.000 A 
ATOM      6  C   UNL     1      44.445   1.926   9.912  0.00  0.00    +0.000 A 
ATOM      7  N   UNL     1      45.140   2.116   8.766  0.00  0.00    +0.000 NA
ATOM      8  C   UNL     1      45.537   3.391   8.522  0.00  0.00    +0.000 A 
ATOM      9  C   UNL     1      45.254   4.454   9.368  0.00  0.00    +0.000 A 
ATOM     10  C   UNL     1      44.509   4.259  10.544  0.00  0.00    +0.000 A 
BRANCH   8  11
ATOM     11  C   UNL     1      46.282   3.663   7.254  0.00  0.00    +0.000 C 
ATOM     12  N   UNL     1      47.326   4.540   7.344  0.00  0.00    +0.000 N 
ATOM     13  O   UNL     1      45.996   3.123   6.193  0.00  0.00    +0.000 OA
ATOM     14  H   UNL     1      47.579   4.938   8.240  0.00  0.00    +0.000 HD
ATOM     15  H   UNL     1      47.891   4.706   6.523  0.00  0.00    +0.000 HD
ENDBRANCH   8  11
ENDBRANCH   1  10
BRANCH   1  16
ATOM     16  C   UNL     1      45.281   6.060  12.296  0.00  0.00    +0.000 A 
ATOM     17  C   UNL     1      46.293   5.246  12.825  0.00  0.00    +0.000 A 
ATOM     18  C   UNL     1      47.520   5.790  13.211  0.00  0.00    +0.000 A 
ATOM     19  C   UNL     1      47.746   7.156  13.074  0.00  0.00    +0.000 A 
ATOM     20  C   UNL     1      46.681   7.999  12.773  0.00  0.00    +0.000 A 
ATOM     21  C   UNL     1      45.453   7.453  12.398  0.00  0.00    +0.000 A 
BRANCH  19  22
ATOM     22  O   UNL     1      48.960   7.749  13.239  0.00  0.00    +0.000 OA
BRANCH  22  23
ATOM     23  C   UNL     1      49.606   8.224  12.057  0.00  0.00    +0.000 C 
ATOM     24  F   UNL     1      49.263   9.478  11.689  0.00  0.00    +0.000 F 
ATOM     25  F   UNL     1      50.946   8.202  12.242  0.00  0.00    +0.000 F 
ATOM     26  F   UNL     1      49.310   7.387  11.038  0.00  0.00    +0.000 F 
ENDBRANCH  22  23
ENDBRANCH  19  22
ENDBRANCH   1  16
TORSDOF 5
ENDMDL
MODEL 8
REMARK VINA RESULT:    -6.648      2.668      3.522
REMARK INTER + INTRA:          -8.627
REMARK INTER:                  -8.557
REMARK INTRA:                  -0.070
REMARK UNBOUND:                -0.035
REMARK  Name = 
REMARK  6 active torsions:
REMARK  status: ('A' for Active; 'I' for Inactive)
REMARK    1  A    between atoms: C_1  and  C_2
REMARK    2  A    between atoms: C_5  and  C_6
REMARK    3  A    between atoms: C_10  and  C_11
REMARK    4  A    between atoms: C_11  and  C_12
REMARK    5  A    between atoms: C_15  and  O_16
REMARK    6  A    between atoms: O_16  and  C_17
REMARK                            x       y       z     vdW  Elec       q    Type
REMARK                         _______ _______ _______ _____ _____    ______ ____
ROOT
ATOM      1  C   UNL     1      45.727   5.467  11.982  0.00  0.00    +0.000 C 
ATOM      2  C   UNL     1      45.067   4.835  13.228  0.00  0.00    +0.000 C 
ATOM      3  C   UNL     1      46.539   4.723  13.041  0.00  0.00    +0.000 C 
ENDROOT
BRANCH   1  10
ATOM      4  C   UNL     1      43.338   7.321  11.309  0.00  0.00    +0.000 C 
ATOM      5  C   UNL     1      44.706   7.847  11.637  0.00  0.00    +0.000 A 
ATOM      6  C   UNL     1      44.907   9.234  11.683  0.00  0.00    +0.000 A 
ATOM      7  N   UNL     1      46.081   9.839  11.985  0.00  0.00    +0.000 NA
ATOM      8  C   UNL     1      47.123   9.007  12.242  0.00  0.00    +0.000 A 
ATOM      9  C   UNL     1      47.020   7.624  12.217  0.00  0.00    +0.000 A 
ATOM     10  C   UNL     1      45.794   6.998  11.930  0.00  0.00    +0.000 A 
BRANCH   8  11
ATOM     11  C   UNL     1      48.435   9.622  12.611  0.00  0.00    +0.000 C 
ATOM     12  N   UNL     1      49.273   9.923  11.574  0.00  0.00    +0.000 N 
ATOM     13  O   UNL     1      48.747   9.865  13.770  0.00  0.00    +0.000 OA
ATOM     14  H   UNL     1      48.977   9.760  10.619  0.00  0.00    +0.000 HD
ATOM     15  H   UNL     1      50.144  10.392  11.776  0.00  0.00    +0.000 HD
ENDBRANCH   8  11
ENDBRANCH   1  10
BRANCH   1  16
ATOM     16  C   UNL     1      45.308   4.724  10.705  0.00  0.00    +0.000 A 
ATOM     17  C   UNL     1      45.614   5.226   9.432  0.00  0.00    +0.000 A 
ATOM     18  C   UNL     1      45.676   4.378   8.324  0.00  0.00    +0.000 A 
ATOM     19  C   UNL     1      45.430   3.017   8.479  0.00  0.00    +0.000 A 
ATOM     20  C   UNL     1      44.903   2.549   9.679  0.00  0.00    +0.000 A 
ATOM     21  C   UNL     1      44.833   3.401  10.780  0.00  0.00    +0.000 A 
BRANCH  19  22
ATOM     22  O   UNL     1      45.652   2.087   7.510  0.00  0.00    +0.000 OA
BRANCH  22  23
ATOM     23  C   UNL     1      46.842   2.240   6.735  0.00  0.00    +0.000 C 
ATOM     24  F   UNL     1      47.856   2.866   7.372  0.00  0.00    +0.000 F 
ATOM     25  F   UNL     1      47.286   1.021   6.354  0.00  0.00    +0.000 F 
ATOM     26  F   UNL     1      46.543   2.944   5.621  0.00  0.00    +0.000 F 
ENDBRANCH  22  23
ENDBRANCH  19  22
ENDBRANCH   1  16
TORSDOF 5
ENDMDL
MODEL 9
REMARK VINA RESULT:    -6.398      4.685      6.865
REMARK INTER + INTRA:          -8.303
REMARK INTER:                  -7.769
REMARK INTRA:                  -0.533
REMARK UNBOUND:                -0.035
REMARK  Name = 
REMARK  6 active torsions:
REMARK  status: ('A' for Active; 'I' for Inactive)
REMARK    1  A    between atoms: C_1  and  C_2
REMARK    2  A    between atoms: C_5  and  C_6
REMARK    3  A    between atoms: C_10  and  C_11
REMARK    4  A    between atoms: C_11  and  C_12
REMARK    5  A    between atoms: C_15  and  O_16
REMARK    6  A    between atoms: O_16  and  C_17
REMARK                            x       y       z     vdW  Elec       q    Type
REMARK                         _______ _______ _______ _____ _____    ______ ____
ROOT
ATOM      1  C   UNL     1      46.327   7.466  12.150  0.00  0.00    +0.000 C 
ATOM      2  C   UNL     1      45.405   8.403  12.963  0.00  0.00    +0.000 C 
ATOM      3  C   UNL     1      45.116   8.158  11.524  0.00  0.00    +0.000 C 
ENDROOT
BRANCH   1  10
ATOM      4  C   UNL     1      47.824   6.065  14.473  0.00  0.00    +0.000 C 
ATOM      5  C   UNL     1      46.918   5.326  13.529  0.00  0.00    +0.000 A 
ATOM      6  C   UNL     1      46.704   3.955  13.725  0.00  0.00    +0.000 A 
ATOM      7  N   UNL     1      45.900   3.177  12.963  0.00  0.00    +0.000 NA
ATOM      8  C   UNL     1      45.281   3.805  11.929  0.00  0.00    +0.000 A 
ATOM      9  C   UNL     1      45.434   5.156  11.655  0.00  0.00    +0.000 A 
ATOM     10  C   UNL     1      46.249   5.968  12.464  0.00  0.00    +0.000 A 
BRANCH   8  11
ATOM     11  C   UNL     1      44.356   3.000  11.073  0.00  0.00    +0.000 C 
ATOM     12  N   UNL     1      44.918   2.386   9.989  0.00  0.00    +0.000 N 
ATOM     13  O   UNL     1      43.166   2.872  11.328  0.00  0.00    +0.000 OA
ATOM     14  H   UNL     1      45.915   2.463   9.823  0.00  0.00    +0.000 HD
ATOM     15  H   UNL     1      44.341   1.786   9.418  0.00  0.00    +0.000 HD
ENDBRANCH   8  11
ENDBRANCH   1  10
BRANCH   1  16
ATOM     16  C   UNL     1      47.718   8.090  11.970  0.00  0.00    +0.000 A 
ATOM     17  C   UNL     1      48.089   9.259  12.651  0.00  0.00    +0.000 A 
ATOM     18  C   UNL     1      49.434   9.560  12.876  0.00  0.00    +0.000 A 
ATOM     19  C   UNL     1      50.424   8.694  12.420  0.00  0.00    +0.000 A 
ATOM     20  C   UNL     1      50.082   7.662  11.550  0.00  0.00    +0.000 A 
ATOM     21  C   UNL     1      48.738   7.371  11.319  0.00  0.00    +0.000 A 
BRANCH  19  22
ATOM     22  O   UNL     1      51.740   8.796  12.752  0.00  0.00    +0.000 OA
BRANCH  22  23
ATOM     23  C   UNL     1      52.093   8.434  14.088  0.00  0.00    +0.000 C 
ATOM     24  F   UNL     1      51.232   7.585  14.692  0.00  0.00    +0.000 F 
ATOM     25  F   UNL     1      53.312   7.849  14.084  0.00  0.00    +0.000 F 
ATOM     26  F   UNL     1      52.170   9.559  14.833  0.00  0.00    +0.000 F 
ENDBRANCH  22  23
ENDBRANCH  19  22
ENDBRANCH   1  16
TORSDOF 5
ENDMDL
