MODEL 1
REMARK VINA RESULT:    -8.491      0.000      0.000
REMARK INTER + INTRA:         -12.710
REMARK INTER:                 -11.469
REMARK INTRA:                  -1.241
REMARK UNBOUND:                -1.241
REMARK  Name = 
REMARK  7 active torsions:
REMARK  status: ('A' for Active; 'I' for Inactive)
REMARK    1  A    between atoms: C_1  and  C_2
REMARK    2  A    between atoms: C_4  and  C_5
REMARK    3  A    between atoms: C_5  and  N_6
REMARK    4  A    between atoms: C_7  and  C_9
REMARK    5  A    between atoms: C_21  and  C_22
REMARK    6  A    between atoms: C_22  and  N_23
REMARK    7  A    between atoms: C_24  and  C_26
REMARK                            x       y       z     vdW  Elec       q    Type
REMARK                         _______ _______ _______ _____ _____    ______ ____
ROOT
ATOM      1  C   UNL     1      43.026   5.235  12.751  0.00  0.00    +0.000 C 
ATOM      2  C   UNL     1      44.319   5.787  12.213  0.00  0.00    +0.000 A 
ATOM      3  C   UNL     1      45.077   6.636  13.047  0.00  0.00    +0.000 A 
ATOM      4  C   UNL     1      46.289   7.197  12.621  0.00  0.00    +0.000 A 
ATOM      5  C   UNL     1      46.767   6.860  11.352  0.00  0.00    +0.000 A 
ATOM      6  C   UNL     1      46.025   6.023  10.512  0.00  0.00    +0.000 A 
ATOM      7  C   UNL     1      44.785   5.493  10.915  0.00  0.00    +0.000 A 
ENDROOT
BRANCH   4   8
ATOM      8  C   UNL     1      47.077   8.105  13.532  0.00  0.00    +0.000 C 
BRANCH   8   9
ATOM      9  N   UNL     1      47.535   7.399  14.703  0.00  0.00    +0.000 N 
ATOM     10  C   UNL     1      48.785   6.838  14.763  0.00  0.00    +0.000 C 
ATOM     11  O   UNL     1      49.594   6.949  13.846  0.00  0.00    +0.000 OA
ATOM     12  H   UNL     1      46.825   7.112  15.369  0.00  0.00    +0.000 HD
BRANCH  10  13
ATOM     13  C   UNL     1      49.133   6.145  16.013  0.00  0.00    +0.000 A 
ATOM     14  C   UNL     1      50.217   6.581  16.763  0.00  0.00    +0.000 A 
ATOM     15  S   UNL     1      50.450   5.699  18.205  0.00  0.00    +0.000 S 
ATOM     16  C   UNL     1      49.141   4.672  17.854  0.00  0.00    +0.000 A 
ATOM     17  N   UNL     1      48.805   3.655  18.693  0.00  0.00    +0.000 NA
ATOM     18  C   UNL     1      47.813   2.934  18.289  0.00  0.00    +0.000 A 
ATOM     19  N   UNL     1      47.121   3.141  17.125  0.00  0.00    +0.000 N 
ATOM     20  C   UNL     1      47.404   4.174  16.261  0.00  0.00    +0.000 A 
ATOM     21  O   UNL     1      46.734   4.357  15.250  0.00  0.00    +0.000 OA
ATOM     22  C   UNL     1      48.523   5.007  16.662  0.00  0.00    +0.000 A 
ATOM     23  H   UNL     1      46.347   2.547  16.869  0.00  0.00    +0.000 HD
ENDBRANCH  10  13
ENDBRANCH   8   9
ENDBRANCH   4   8
BRANCH   7  24
ATOM     24  C   UNL     1      44.032   4.609   9.940  0.00  0.00    +0.000 C 
BRANCH  24  25
ATOM     25  N   UNL     1      44.893   4.128   8.887  0.00  0.00    +0.000 N 
ATOM     26  C   UNL     1      45.245   2.802   8.762  0.00  0.00    +0.000 C 
ATOM     27  O   UNL     1      44.854   1.936   9.544  0.00  0.00    +0.000 OA
ATOM     28  H   UNL     1      45.106   4.760   8.132  0.00  0.00    +0.000 HD
BRANCH  26  29
ATOM     29  C   UNL     1      46.105   2.507   7.634  0.00  0.00    +0.000 A 
ATOM     30  C   UNL     1      46.364   3.214   6.468  0.00  0.00    +0.000 A 
ATOM     31  C   UNL     1      47.316   2.492   5.708  0.00  0.00    +0.000 A 
ATOM     32  C   UNL     1      47.624   1.356   6.420  0.00  0.00    +0.000 A 
ATOM     33  N   UNL     1      46.889   1.371   7.578  0.00  0.00    +0.000 N 
ATOM     34  H   UNL     1      46.915   0.665   8.305  0.00  0.00    +0.000 HD
ENDBRANCH  26  29
ENDBRANCH  24  25
ENDBRANCH   7  24
TORSDOF 6
ENDMDL
MODEL 2
REMARK VINA RESULT:    -7.421      2.412      3.666
REMARK INTER + INTRA:         -11.265
REMARK INTER:                 -10.226
REMARK INTRA:                  -1.038
REMARK UNBOUND:                -1.241
REMARK  Name = 
REMARK  7 active torsions:
REMARK  status: ('A' for Active; 'I' for Inactive)
REMARK    1  A    between atoms: C_1  and  C_2
REMARK    2  A    between atoms: C_4  and  C_5
REMARK    3  A    between atoms: C_5  and  N_6
REMARK    4  A    between atoms: C_7  and  C_9
REMARK    5  A    between atoms: C_21  and  C_22
REMARK    6  A    between atoms: C_22  and  N_23
REMARK    7  A    between atoms: C_24  and  C_26
REMARK                            x       y       z     vdW  Elec       q    Type
REMARK                         _______ _______ _______ _____ _____    ______ ____
ROOT
ATOM      1  C   UNL     1      47.737   7.370  11.730  0.00  0.00    +0.000 C 
ATOM      2  C   UNL     1      47.028   6.210  12.375  0.00  0.00    +0.000 A 
ATOM      3  C   UNL     1      47.467   5.787  13.648  0.00  0.00    +0.000 A 
ATOM      4  C   UNL     1      46.865   4.711  14.315  0.00  0.00    +0.000 A 
ATOM      5  C   UNL     1      45.775   4.080  13.710  0.00  0.00    +0.000 A 
ATOM      6  C   UNL     1      45.331   4.485  12.446  0.00  0.00    +0.000 A 
ATOM      7  C   UNL     1      45.959   5.535  11.750  0.00  0.00    +0.000 A 
ENDROOT
BRANCH   4   8
ATOM      8  C   UNL     1      47.357   4.278  15.674  0.00  0.00    +0.000 C 
BRANCH   8   9
ATOM      9  N   UNL     1      47.490   5.404  16.563  0.00  0.00    +0.000 N 
ATOM     10  C   UNL     1      48.711   5.797  17.050  0.00  0.00    +0.000 C 
ATOM     11  O   UNL     1      49.755   5.242  16.717  0.00  0.00    +0.000 OA
ATOM     12  H   UNL     1      46.643   5.732  17.014  0.00  0.00    +0.000 HD
BRANCH  10  13
ATOM     13  C   UNL     1      48.715   6.962  17.947  0.00  0.00    +0.000 A 
ATOM     14  C   UNL     1      48.911   6.781  19.310  0.00  0.00    +0.000 A 
ATOM     15  S   UNL     1      48.937   8.238  20.197  0.00  0.00    +0.000 S 
ATOM     16  C   UNL     1      48.636   9.159  18.800  0.00  0.00    +0.000 A 
ATOM     17  N   UNL     1      48.516  10.513  18.866  0.00  0.00    +0.000 NA
ATOM     18  C   UNL     1      48.257  11.083  17.737  0.00  0.00    +0.000 A 
ATOM     19  N   UNL     1      48.115  10.423  16.545  0.00  0.00    +0.000 N 
ATOM     20  C   UNL     1      48.259   9.061  16.423  0.00  0.00    +0.000 A 
ATOM     21  O   UNL     1      48.170   8.508  15.331  0.00  0.00    +0.000 OA
ATOM     22  C   UNL     1      48.536   8.369  17.668  0.00  0.00    +0.000 A 
ATOM     23  H   UNL     1      47.921  10.928  15.693  0.00  0.00    +0.000 HD
ENDBRANCH  10  13
ENDBRANCH   8   9
ENDBRANCH   4   8
BRANCH   7  24
ATOM     24  C   UNL     1      45.431   5.901  10.377  0.00  0.00    +0.000 C 
BRANCH  24  25
ATOM     25  N   UNL     1      45.975   5.042   9.353  0.00  0.00    +0.000 N 
ATOM     26  C   UNL     1      45.280   3.970   8.837  0.00  0.00    +0.000 C 
ATOM     27  O   UNL     1      44.150   3.668   9.217  0.00  0.00    +0.000 OA
ATOM     28  H   UNL     1      46.821   5.340   8.895  0.00  0.00    +0.000 HD
BRANCH  26  29
ATOM     29  C   UNL     1      45.983   3.233   7.807  0.00  0.00    +0.000 A 
ATOM     30  C   UNL     1      46.422   3.611   6.545  0.00  0.00    +0.000 A 
ATOM     31  C   UNL     1      47.089   2.510   5.955  0.00  0.00    +0.000 A 
ATOM     32  C   UNL     1      47.048   1.478   6.862  0.00  0.00    +0.000 A 
ATOM     33  N   UNL     1      46.379   1.920   7.975  0.00  0.00    +0.000 N 
ATOM     34  H   UNL     1      46.201   1.379   8.813  0.00  0.00    +0.000 HD
ENDBRANCH  26  29
ENDBRANCH  24  25
ENDBRANCH   7  24
TORSDOF 6
ENDMDL
MODEL 3
REMARK VINA RESULT:    -7.294      2.352      2.859
REMARK INTER + INTRA:         -11.093
REMARK INTER:                 -10.368
REMARK INTRA:                  -0.725
REMARK UNBOUND:                -1.241
REMARK  Name = 
REMARK  7 active torsions:
REMARK  status: ('A' for Active; 'I' for Inactive)
REMARK    1  A    between atoms: C_1  and  C_2
REMARK    2  A    between atoms: C_4  and  C_5
REMARK    3  A    between atoms: C_5  and  N_6
REMARK    4  A    between atoms: C_7  and  C_9
REMARK    5  A    between atoms: C_21  and  C_22
REMARK    6  A    between atoms: C_22  and  N_23
REMARK    7  A    between atoms: C_24  and  C_26
REMARK                            x       y       z     vdW  Elec       q    Type
REMARK                         _______ _______ _______ _____ _____    ______ ____
ROOT
ATOM      1  C   UNL     1      45.544   6.697  11.387  0.00  0.00    +0.000 C 
ATOM      2  C   UNL     1      46.178   5.982  12.552  0.00  0.00    +0.000 A 
ATOM      3  C   UNL     1      47.054   6.712  13.382  0.00  0.00    +0.000 A 
ATOM      4  C   UNL     1      47.690   6.121  14.482  0.00  0.00    +0.000 A 
ATOM      5  C   UNL     1      47.404   4.786  14.777  0.00  0.00    +0.000 A 
ATOM      6  C   UNL     1      46.540   4.047  13.960  0.00  0.00    +0.000 A 
ATOM      7  C   UNL     1      45.933   4.621  12.827  0.00  0.00    +0.000 A 
ENDROOT
BRANCH   4   8
ATOM      8  C   UNL     1      48.626   6.924  15.351  0.00  0.00    +0.000 C 
BRANCH   8   9
ATOM      9  N   UNL     1      49.688   6.102  15.873  0.00  0.00    +0.000 N 
ATOM     10  C   UNL     1      49.851   5.902  17.220  0.00  0.00    +0.000 C 
ATOM     11  O   UNL     1      49.073   6.373  18.047  0.00  0.00    +0.000 OA
ATOM     12  H   UNL     1      50.452   5.888  15.240  0.00  0.00    +0.000 HD
BRANCH  10  13
ATOM     13  C   UNL     1      50.971   5.041  17.625  0.00  0.00    +0.000 A 
ATOM     14  C   UNL     1      52.110   5.608  18.182  0.00  0.00    +0.000 A 
ATOM     15  S   UNL     1      53.290   4.465  18.641  0.00  0.00    +0.000 S 
ATOM     16  C   UNL     1      52.343   3.174  18.066  0.00  0.00    +0.000 A 
ATOM     17  N   UNL     1      52.791   1.892  18.137  0.00  0.00    +0.000 NA
ATOM     18  C   UNL     1      51.986   1.015  17.636  0.00  0.00    +0.000 A 
ATOM     19  N   UNL     1      50.769   1.304  17.077  0.00  0.00    +0.000 N 
ATOM     20  C   UNL     1      50.261   2.581  17.011  0.00  0.00    +0.000 A 
ATOM     21  O   UNL     1      49.147   2.797  16.545  0.00  0.00    +0.000 OA
ATOM     22  C   UNL     1      51.135   3.607  17.548  0.00  0.00    +0.000 A 
ATOM     23  H   UNL     1      50.180   0.571  16.710  0.00  0.00    +0.000 HD
ENDBRANCH  10  13
ENDBRANCH   8   9
ENDBRANCH   4   8
BRANCH   7  24
ATOM     24  C   UNL     1      45.025   3.750  11.982  0.00  0.00    +0.000 C 
BRANCH  24  25
ATOM     25  N   UNL     1      45.620   3.449  10.702  0.00  0.00    +0.000 N 
ATOM     26  C   UNL     1      44.952   2.753   9.718  0.00  0.00    +0.000 C 
ATOM     27  O   UNL     1      43.805   2.335   9.864  0.00  0.00    +0.000 OA
ATOM     28  H   UNL     1      46.488   3.906  10.471  0.00  0.00    +0.000 HD
BRANCH  26  29
ATOM     29  C   UNL     1      45.707   2.560   8.496  0.00  0.00    +0.000 A 
ATOM     30  C   UNL     1      46.006   3.428   7.456  0.00  0.00    +0.000 A 
ATOM     31  C   UNL     1      46.809   2.739   6.514  0.00  0.00    +0.000 A 
ATOM     32  C   UNL     1      46.987   1.462   6.992  0.00  0.00    +0.000 A 
ATOM     33  N   UNL     1      46.319   1.361   8.186  0.00  0.00    +0.000 N 
ATOM     34  H   UNL     1      46.279   0.537   8.774  0.00  0.00    +0.000 HD
ENDBRANCH  26  29
ENDBRANCH  24  25
ENDBRANCH   7  24
TORSDOF 6
ENDMDL
MODEL 4
REMARK VINA RESULT:    -7.121      2.326      3.432
REMARK INTER + INTRA:         -10.860
REMARK INTER:                  -9.838
REMARK INTRA:                  -1.022
REMARK UNBOUND:                -1.241
REMARK  Name = 
REMARK  7 active torsions:
REMARK  status: ('A' for Active; 'I' for Inactive)
REMARK    1  A    between atoms: C_1  and  C_2
REMARK    2  A    between atoms: C_4  and  C_5
REMARK    3  A    between atoms: C_5  and  N_6
REMARK    4  A    between atoms: C_7  and  C_9
REMARK    5  A    between atoms: C_21  and  C_22
REMARK    6  A    between atoms: C_22  and  N_23
REMARK    7  A    between atoms: C_24  and  C_26
REMARK                            x       y       z     vdW  Elec       q    Type
REMARK                         _______ _______ _______ _____ _____    ______ ____
ROOT
ATOM      1  C   UNL     1      47.677   7.302  11.657  0.00  0.00    +0.000 C 
ATOM      2  C   UNL     1      46.924   6.163  12.291  0.00  0.00    +0.000 A 
ATOM      3  C   UNL     1      47.332   5.725  13.569  0.00  0.00    +0.000 A 
ATOM      4  C   UNL     1      46.689   4.667  14.225  0.00  0.00    +0.000 A 
ATOM      5  C   UNL     1      45.588   4.071  13.604  0.00  0.00    +0.000 A 
ATOM      6  C   UNL     1      45.174   4.491  12.336  0.00  0.00    +0.000 A 
ATOM      7  C   UNL     1      45.843   5.522  11.650  0.00  0.00    +0.000 A 
ENDROOT
BRANCH   4   8
ATOM      8  C   UNL     1      47.149   4.217  15.590  0.00  0.00    +0.000 C 
BRANCH   8   9
ATOM      9  N   UNL     1      47.918   5.245  16.245  0.00  0.00    +0.000 N 
ATOM     10  C   UNL     1      47.791   5.495  17.588  0.00  0.00    +0.000 C 
ATOM     11  O   UNL     1      47.053   4.827  18.308  0.00  0.00    +0.000 OA
ATOM     12  H   UNL     1      48.358   5.936  15.647  0.00  0.00    +0.000 HD
BRANCH  10  13
ATOM     13  C   UNL     1      48.632   6.568  18.138  0.00  0.00    +0.000 A 
ATOM     14  C   UNL     1      48.040   7.644  18.786  0.00  0.00    +0.000 A 
ATOM     15  S   UNL     1      49.162   8.771  19.405  0.00  0.00    +0.000 S 
ATOM     16  C   UNL     1      50.476   7.887  18.787  0.00  0.00    +0.000 A 
ATOM     17  N   UNL     1      51.754   8.324  18.952  0.00  0.00    +0.000 NA
ATOM     18  C   UNL     1      52.651   7.574  18.405  0.00  0.00    +0.000 A 
ATOM     19  N   UNL     1      52.388   6.421  17.714  0.00  0.00    +0.000 N 
ATOM     20  C   UNL     1      51.117   5.923  17.549  0.00  0.00    +0.000 A 
ATOM     21  O   UNL     1      50.922   4.862  16.964  0.00  0.00    +0.000 OA
ATOM     22  C   UNL     1      50.067   6.738  18.132  0.00  0.00    +0.000 A 
ATOM     23  H   UNL     1      53.137   5.873  17.317  0.00  0.00    +0.000 HD
ENDBRANCH  10  13
ENDBRANCH   8   9
ENDBRANCH   4   8
BRANCH   7  24
ATOM     24  C   UNL     1      45.345   5.906  10.271  0.00  0.00    +0.000 C 
BRANCH  24  25
ATOM     25  N   UNL     1      45.924   5.071   9.246  0.00  0.00    +0.000 N 
ATOM     26  C   UNL     1      45.292   3.950   8.757  0.00  0.00    +0.000 C 
ATOM     27  O   UNL     1      44.192   3.578   9.163  0.00  0.00    +0.000 OA
ATOM     28  H   UNL     1      46.740   5.418   8.767  0.00  0.00    +0.000 HD
BRANCH  26  29
ATOM     29  C   UNL     1      46.022   3.247   7.721  0.00  0.00    +0.000 A 
ATOM     30  C   UNL     1      46.458   3.654   6.468  0.00  0.00    +0.000 A 
ATOM     31  C   UNL     1      47.159   2.581   5.867  0.00  0.00    +0.000 A 
ATOM     32  C   UNL     1      47.142   1.536   6.760  0.00  0.00    +0.000 A 
ATOM     33  N   UNL     1      46.453   1.943   7.874  0.00  0.00    +0.000 N 
ATOM     34  H   UNL     1      46.286   1.386   8.704  0.00  0.00    +0.000 HD
ENDBRANCH  26  29
ENDBRANCH  24  25
ENDBRANCH   7  24
TORSDOF 6
ENDMDL
MODEL 5
REMARK VINA RESULT:    -7.021      2.593      3.203
REMARK INTER + INTRA:         -10.725
REMARK INTER:                  -9.883
REMARK INTRA:                  -0.842
REMARK UNBOUND:                -1.241
REMARK  Name = 
REMARK  7 active torsions:
REMARK  status: ('A' for Active; 'I' for Inactive)
REMARK    1  A    between atoms: C_1  and  C_2
REMARK    2  A    between atoms: C_4  and  C_5
REMARK    3  A    between atoms: C_5  and  N_6
REMARK    4  A    between atoms: C_7  and  C_9
REMARK    5  A    between atoms: C_21  and  C_22
REMARK    6  A    between atoms: C_22  and  N_23
REMARK    7  A    between atoms: C_24  and  C_26
REMARK                            x       y       z     vdW  Elec       q    Type
REMARK                         _______ _______ _______ _____ _____    ______ ____
ROOT
ATOM      1  C   UNL     1      45.680   7.408  11.837  0.00  0.00    +0.000 C 
ATOM      2  C   UNL     1      45.850   5.986  12.300  0.00  0.00    +0.000 A 
ATOM      3  C   UNL     1      46.481   5.762  13.542  0.00  0.00    +0.000 A 
ATOM      4  C   UNL     1      46.684   4.469  14.043  0.00  0.00    +0.000 A 
ATOM      5  C   UNL     1      46.201   3.386  13.302  0.00  0.00    +0.000 A 
ATOM      6  C   UNL     1      45.577   3.592  12.067  0.00  0.00    +0.000 A 
ATOM      7  C   UNL     1      45.410   4.884  11.536  0.00  0.00    +0.000 A 
ENDROOT
BRANCH   4   8
ATOM      8  C   UNL     1      47.365   4.258  15.372  0.00  0.00    +0.000 C 
BRANCH   8   9
ATOM      9  N   UNL     1      47.704   5.516  15.989  0.00  0.00    +0.000 N 
ATOM     10  C   UNL     1      48.840   5.666  16.742  0.00  0.00    +0.000 C 
ATOM     11  O   UNL     1      49.650   4.755  16.889  0.00  0.00    +0.000 OA
ATOM     12  H   UNL     1      46.960   6.202  16.063  0.00  0.00    +0.000 HD
BRANCH  10  13
ATOM     13  C   UNL     1      49.074   6.999  17.317  0.00  0.00    +0.000 A 
ATOM     14  C   UNL     1      49.914   7.893  16.667  0.00  0.00    +0.000 A 
ATOM     15  S   UNL     1      50.034   9.408  17.442  0.00  0.00    +0.000 S 
ATOM     16  C   UNL     1      49.007   8.907  18.702  0.00  0.00    +0.000 A 
ATOM     17  N   UNL     1      48.707   9.742  19.734  0.00  0.00    +0.000 NA
ATOM     18  C   UNL     1      47.943   9.223  20.637  0.00  0.00    +0.000 A 
ATOM     19  N   UNL     1      47.446   7.947  20.598  0.00  0.00    +0.000 N 
ATOM     20  C   UNL     1      47.696   7.078  19.561  0.00  0.00    +0.000 A 
ATOM     21  O   UNL     1      47.196   5.959  19.536  0.00  0.00    +0.000 OA
ATOM     22  C   UNL     1      48.564   7.608  18.525  0.00  0.00    +0.000 A 
ATOM     23  H   UNL     1      46.845   7.602  21.332  0.00  0.00    +0.000 HD
ENDBRANCH  10  13
ENDBRANCH   8   9
ENDBRANCH   4   8
BRANCH   7  24
ATOM     24  C   UNL     1      44.741   5.023  10.183  0.00  0.00    +0.000 C 
BRANCH  24  25
ATOM     25  N   UNL     1      45.559   4.475   9.128  0.00  0.00    +0.000 N 
ATOM     26  C   UNL     1      45.229   3.318   8.457  0.00  0.00    +0.000 C 
ATOM     27  O   UNL     1      44.217   2.669   8.714  0.00  0.00    +0.000 OA
ATOM     28  H   UNL     1      46.305   5.049   8.770  0.00  0.00    +0.000 HD
BRANCH  26  29
ATOM     29  C   UNL     1      46.165   2.932   7.421  0.00  0.00    +0.000 A 
ATOM     30  C   UNL     1      46.305   3.355   6.106  0.00  0.00    +0.000 A 
ATOM     31  C   UNL     1      47.409   2.679   5.533  0.00  0.00    +0.000 A 
ATOM     32  C   UNL     1      47.926   1.854   6.503  0.00  0.00    +0.000 A 
ATOM     33  N   UNL     1      47.171   2.010   7.637  0.00  0.00    +0.000 N 
ATOM     34  H   UNL     1      47.322   1.535   8.520  0.00  0.00    +0.000 HD
ENDBRANCH  26  29
ENDBRANCH  24  25
ENDBRANCH   7  24
TORSDOF 6
ENDMDL
MODEL 6
REMARK VINA RESULT:    -7.008      2.057      2.427
REMARK INTER + INTRA:         -10.708
REMARK INTER:                  -9.751
REMARK INTRA:                  -0.957
REMARK UNBOUND:                -1.241
REMARK  Name = 
REMARK  7 active torsions:
REMARK  status: ('A' for Active; 'I' for Inactive)
REMARK    1  A    between atoms: C_1  and  C_2
REMARK    2  A    between atoms: C_4  and  C_5
REMARK    3  A    between atoms: C_5  and  N_6
REMARK    4  A    between atoms: C_7  and  C_9
REMARK    5  A    between atoms: C_21  and  C_22
REMARK    6  A    between atoms: C_22  and  N_23
REMARK    7  A    between atoms: C_24  and  C_26
REMARK                            x       y       z     vdW  Elec       q    Type
REMARK                         _______ _______ _______ _____ _____    ______ ____
ROOT
ATOM      1  C   UNL     1      44.029   8.510  11.067  0.00  0.00    +0.000 C 
ATOM      2  C   UNL     1      45.070   7.691  11.783  0.00  0.00    +0.000 A 
ATOM      3  C   UNL     1      45.984   8.364  12.621  0.00  0.00    +0.000 A 
ATOM      4  C   UNL     1      46.987   7.678  13.318  0.00  0.00    +0.000 A 
ATOM      5  C   UNL     1      47.043   6.286  13.204  0.00  0.00    +0.000 A 
ATOM      6  C   UNL     1      46.146   5.605  12.373  0.00  0.00    +0.000 A 
ATOM      7  C   UNL     1      45.165   6.292  11.635  0.00  0.00    +0.000 A 
ENDROOT
BRANCH   4   8
ATOM      8  C   UNL     1      47.954   8.423  14.205  0.00  0.00    +0.000 C 
BRANCH   8   9
ATOM      9  N   UNL     1      48.224   7.688  15.415  0.00  0.00    +0.000 N 
ATOM     10  C   UNL     1      48.377   8.319  16.623  0.00  0.00    +0.000 C 
ATOM     11  O   UNL     1      48.243   9.534  16.745  0.00  0.00    +0.000 OA
ATOM     12  H   UNL     1      48.548   6.733  15.305  0.00  0.00    +0.000 HD
BRANCH  10  13
ATOM     13  C   UNL     1      48.648   7.457  17.783  0.00  0.00    +0.000 A 
ATOM     14  C   UNL     1      47.906   7.613  18.946  0.00  0.00    +0.000 A 
ATOM     15  S   UNL     1      48.316   6.502  20.174  0.00  0.00    +0.000 S 
ATOM     16  C   UNL     1      49.534   5.805  19.214  0.00  0.00    +0.000 A 
ATOM     17  N   UNL     1      50.303   4.787  19.688  0.00  0.00    +0.000 NA
ATOM     18  C   UNL     1      51.210   4.375  18.866  0.00  0.00    +0.000 A 
ATOM     19  N   UNL     1      51.413   4.882  17.610  0.00  0.00    +0.000 N 
ATOM     20  C   UNL     1      50.642   5.888  17.076  0.00  0.00    +0.000 A 
ATOM     21  O   UNL     1      50.823   6.286  15.931  0.00  0.00    +0.000 OA
ATOM     22  C   UNL     1      49.616   6.399  17.966  0.00  0.00    +0.000 A 
ATOM     23  H   UNL     1      52.135   4.509  17.011  0.00  0.00    +0.000 HD
ENDBRANCH  10  13
ENDBRANCH   8   9
ENDBRANCH   4   8
BRANCH   7  24
ATOM     24  C   UNL     1      44.244   5.484  10.742  0.00  0.00    +0.000 C 
BRANCH  24  25
ATOM     25  N   UNL     1      44.976   4.803   9.702  0.00  0.00    +0.000 N 
ATOM     26  C   UNL     1      44.861   3.449   9.477  0.00  0.00    +0.000 C 
ATOM     27  O   UNL     1      44.131   2.725  10.151  0.00  0.00    +0.000 OA
ATOM     28  H   UNL     1      45.458   5.370   9.022  0.00  0.00    +0.000 HD
BRANCH  26  29
ATOM     29  C   UNL     1      45.664   2.947   8.380  0.00  0.00    +0.000 A 
ATOM     30  C   UNL     1      46.116   3.559   7.219  0.00  0.00    +0.000 A 
ATOM     31  C   UNL     1      46.897   2.625   6.495  0.00  0.00    +0.000 A 
ATOM     32  C   UNL     1      46.909   1.459   7.222  0.00  0.00    +0.000 A 
ATOM     33  N   UNL     1      46.163   1.659   8.355  0.00  0.00    +0.000 N 
ATOM     34  H   UNL     1      46.000   0.976   9.086  0.00  0.00    +0.000 HD
ENDBRANCH  26  29
ENDBRANCH  24  25
ENDBRANCH   7  24
TORSDOF 6
ENDMDL
MODEL 7
REMARK VINA RESULT:    -6.843      2.857      4.323
REMARK INTER + INTRA:         -10.485
REMARK INTER:                  -9.147
REMARK INTRA:                  -1.338
REMARK UNBOUND:                -1.241
REMARK  Name = 
REMARK  7 active torsions:
REMARK  status: ('A' for Active; 'I' for Inactive)
REMARK    1  A    between atoms: C_1  and  C_2
REMARK    2  A    between atoms: C_4  and  C_5
REMARK    3  A    between atoms: C_5  and  N_6
REMARK    4  A    between atoms: C_7  and  C_9
REMARK    5  A    between atoms: C_21  and  C_22
REMARK    6  A    between atoms: C_22  and  N_23
REMARK    7  A    between atoms: C_24  and  C_26
REMARK                            x       y       z     vdW  Elec       q    Type
REMARK                         _______ _______ _______ _____ _____    ______ ____
ROOT
ATOM      1  C   UNL     1      44.738   7.061  11.380  0.00  0.00    +0.000 C 
ATOM      2  C   UNL     1      45.352   5.921  12.149  0.00  0.00    +0.000 A 
ATOM      3  C   UNL     1      46.209   6.232  13.226  0.00  0.00    +0.000 A 
ATOM      4  C   UNL     1      46.826   5.230  13.988  0.00  0.00    +0.000 A 
ATOM      5  C   UNL     1      46.539   3.896  13.690  0.00  0.00    +0.000 A 
ATOM      6  C   UNL     1      45.694   3.572  12.623  0.00  0.00    +0.000 A 
ATOM      7  C   UNL     1      45.107   4.571  11.824  0.00  0.00    +0.000 A 
ENDROOT
BRANCH   4   8
ATOM      8  C   UNL     1      47.742   5.591  15.132  0.00  0.00    +0.000 C 
BRANCH   8   9
ATOM      9  N   UNL     1      48.914   6.285  14.662  0.00  0.00    +0.000 N 
ATOM     10  C   UNL     1      49.177   7.582  15.025  0.00  0.00    +0.000 C 
ATOM     11  O   UNL     1      48.456   8.199  15.805  0.00  0.00    +0.000 OA
ATOM     12  H   UNL     1      49.394   5.882  13.865  0.00  0.00    +0.000 HD
BRANCH  10  13
ATOM     13  C   UNL     1      50.405   8.179  14.480  0.00  0.00    +0.000 A 
ATOM     14  C   UNL     1      51.331   8.756  15.339  0.00  0.00    +0.000 A 
ATOM     15  S   UNL     1      52.719   9.355  14.548  0.00  0.00    +0.000 S 
ATOM     16  C   UNL     1      52.110   8.910  13.024  0.00  0.00    +0.000 A 
ATOM     17  N   UNL     1      52.813   9.165  11.888  0.00  0.00    +0.000 NA
ATOM     18  C   UNL     1      52.220   8.804  10.799  0.00  0.00    +0.000 A 
ATOM     19  N   UNL     1      50.991   8.202  10.743  0.00  0.00    +0.000 N 
ATOM     20  C   UNL     1      50.258   7.895  11.866  0.00  0.00    +0.000 A 
ATOM     21  O   UNL     1      49.181   7.314  11.781  0.00  0.00    +0.000 OA
ATOM     22  C   UNL     1      50.873   8.296  13.118  0.00  0.00    +0.000 A 
ATOM     23  H   UNL     1      50.585   7.934   9.859  0.00  0.00    +0.000 HD
ENDBRANCH  10  13
ENDBRANCH   8   9
ENDBRANCH   4   8
BRANCH   7  24
ATOM     24  C   UNL     1      44.219   4.139  10.674  0.00  0.00    +0.000 C 
BRANCH  24  25
ATOM     25  N   UNL     1      44.941   3.333   9.719  0.00  0.00    +0.000 N 
ATOM     26  C   UNL     1      45.599   3.875   8.637  0.00  0.00    +0.000 C 
ATOM     27  O   UNL     1      45.613   5.083   8.406  0.00  0.00    +0.000 OA
ATOM     28  H   UNL     1      45.099   2.366   9.950  0.00  0.00    +0.000 HD
BRANCH  26  29
ATOM     29  C   UNL     1      46.280   2.910   7.798  0.00  0.00    +0.000 A 
ATOM     30  C   UNL     1      46.977   3.059   6.607  0.00  0.00    +0.000 A 
ATOM     31  C   UNL     1      47.478   1.793   6.219  0.00  0.00    +0.000 A 
ATOM     32  C   UNL     1      47.080   0.890   7.177  0.00  0.00    +0.000 A 
ATOM     33  N   UNL     1      46.357   1.570   8.124  0.00  0.00    +0.000 N 
ATOM     34  H   UNL     1      45.942   1.165   8.956  0.00  0.00    +0.000 HD
ENDBRANCH  26  29
ENDBRANCH  24  25
ENDBRANCH   7  24
TORSDOF 6
ENDMDL
MODEL 8
REMARK VINA RESULT:    -6.529      2.395      3.205
REMARK INTER + INTRA:         -10.060
REMARK INTER:                  -9.117
REMARK INTRA:                  -0.943
REMARK UNBOUND:                -1.241
REMARK  Name = 
REMARK  7 active torsions:
REMARK  status: ('A' for Active; 'I' for Inactive)
REMARK    1  A    between atoms: C_1  and  C_2
REMARK    2  A    between atoms: C_4  and  C_5
REMARK    3  A    between atoms: C_5  and  N_6
REMARK    4  A    between atoms: C_7  and  C_9
REMARK    5  A    between atoms: C_21  and  C_22
REMARK    6  A    between atoms: C_22  and  N_23
REMARK    7  A    between atoms: C_24  and  C_26
REMARK                            x       y       z     vdW  Elec       q    Type
REMARK                         _______ _______ _______ _____ _____    ______ ____
ROOT
ATOM      1  C   UNL     1      44.707   6.786  11.076  0.00  0.00    +0.000 C 
ATOM      2  C   UNL     1      45.407   5.895  12.068  0.00  0.00    +0.000 A 
ATOM      3  C   UNL     1      46.254   6.499  13.021  0.00  0.00    +0.000 A 
ATOM      4  C   UNL     1      46.947   5.741  13.975  0.00  0.00    +0.000 A 
ATOM      5  C   UNL     1      46.749   4.358  13.997  0.00  0.00    +0.000 A 
ATOM      6  C   UNL     1      45.915   3.744  13.055  0.00  0.00    +0.000 A 
ATOM      7  C   UNL     1      45.251   4.493  12.066  0.00  0.00    +0.000 A 
ENDROOT
BRANCH   4   8
ATOM      8  C   UNL     1      47.850   6.412  14.980  0.00  0.00    +0.000 C 
BRANCH   8   9
ATOM      9  N   UNL     1      48.832   5.491  15.495  0.00  0.00    +0.000 N 
ATOM     10  C   UNL     1      48.704   4.918  16.734  0.00  0.00    +0.000 C 
ATOM     11  O   UNL     1      47.724   5.120  17.447  0.00  0.00    +0.000 OA
ATOM     12  H   UNL     1      49.734   5.479  15.029  0.00  0.00    +0.000 HD
BRANCH  10  13
ATOM     13  C   UNL     1      49.772   3.994  17.144  0.00  0.00    +0.000 A 
ATOM     14  C   UNL     1      49.512   2.632  17.225  0.00  0.00    +0.000 A 
ATOM     15  S   UNL     1      50.873   1.702  17.665  0.00  0.00    +0.000 S 
ATOM     16  C   UNL     1      51.844   3.089  17.812  0.00  0.00    +0.000 A 
ATOM     17  N   UNL     1      53.148   2.994  18.191  0.00  0.00    +0.000 NA
ATOM     18  C   UNL     1      53.759   4.127  18.293  0.00  0.00    +0.000 A 
ATOM     19  N   UNL     1      53.188   5.347  18.043  0.00  0.00    +0.000 N 
ATOM     20  C   UNL     1      51.885   5.491  17.628  0.00  0.00    +0.000 A 
ATOM     21  O   UNL     1      51.420   6.595  17.368  0.00  0.00    +0.000 OA
ATOM     22  C   UNL     1      51.147   4.246  17.512  0.00  0.00    +0.000 A 
ATOM     23  H   UNL     1      53.723   6.198  18.132  0.00  0.00    +0.000 HD
ENDBRANCH  10  13
ENDBRANCH   8   9
ENDBRANCH   4   8
BRANCH   7  24
ATOM     24  C   UNL     1      44.381   3.753  11.070  0.00  0.00    +0.000 C 
BRANCH  24  25
ATOM     25  N   UNL     1      45.173   3.098  10.057  0.00  0.00    +0.000 N 
ATOM     26  C   UNL     1      45.201   3.521   8.746  0.00  0.00    +0.000 C 
ATOM     27  O   UNL     1      44.549   4.484   8.347  0.00  0.00    +0.000 OA
ATOM     28  H   UNL     1      45.847   2.413  10.362  0.00  0.00    +0.000 HD
BRANCH  26  29
ATOM     29  C   UNL     1      46.066   2.747   7.879  0.00  0.00    +0.000 A 
ATOM     30  C   UNL     1      46.808   3.108   6.764  0.00  0.00    +0.000 A 
ATOM     31  C   UNL     1      47.510   1.967   6.304  0.00  0.00    +0.000 A 
ATOM     32  C   UNL     1      47.186   0.928   7.143  0.00  0.00    +0.000 A 
ATOM     33  N   UNL     1      46.314   1.404   8.089  0.00  0.00    +0.000 N 
ATOM     34  H   UNL     1      45.909   0.866   8.846  0.00  0.00    +0.000 HD
ENDBRANCH  26  29
ENDBRANCH  24  25
ENDBRANCH   7  24
TORSDOF 6
ENDMDL
MODEL 9
REMARK VINA RESULT:    -6.273      4.629      7.466
REMARK INTER + INTRA:          -9.715
REMARK INTER:                  -8.829
REMARK INTRA:                  -0.885
REMARK UNBOUND:                -1.241
REMARK  Name = 
REMARK  7 active torsions:
REMARK  status: ('A' for Active; 'I' for Inactive)
REMARK    1  A    between atoms: C_1  and  C_2
REMARK    2  A    between atoms: C_4  and  C_5
REMARK    3  A    between atoms: C_5  and  N_6
REMARK    4  A    between atoms: C_7  and  C_9
REMARK    5  A    between atoms: C_21  and  C_22
REMARK    6  A    between atoms: C_22  and  N_23
REMARK    7  A    between atoms: C_24  and  C_26
REMARK                            x       y       z     vdW  Elec       q    Type
REMARK                         _______ _______ _______ _____ _____    ______ ____
ROOT
ATOM      1  C   UNL     1      50.683  10.761  13.672  0.00  0.00    +0.000 C 
ATOM      2  C   UNL     1      49.983   9.576  13.061  0.00  0.00    +0.000 A 
ATOM      3  C   UNL     1      48.598   9.435  13.285  0.00  0.00    +0.000 A 
ATOM      4  C   UNL     1      47.873   8.357  12.758  0.00  0.00    +0.000 A 
ATOM      5  C   UNL     1      48.545   7.433  11.955  0.00  0.00    +0.000 A 
ATOM      6  C   UNL     1      49.920   7.558  11.727  0.00  0.00    +0.000 A 
ATOM      7  C   UNL     1      50.664   8.611  12.290  0.00  0.00    +0.000 A 
ENDROOT
BRANCH   4   8
ATOM      8  C   UNL     1      46.392   8.228  13.017  0.00  0.00    +0.000 C 
BRANCH   8   9
ATOM      9  N   UNL     1      45.923   6.900  12.709  0.00  0.00    +0.000 N 
ATOM     10  C   UNL     1      44.970   6.677  11.748  0.00  0.00    +0.000 C 
ATOM     11  O   UNL     1      44.504   7.588  11.069  0.00  0.00    +0.000 OA
ATOM     12  H   UNL     1      46.126   6.176  13.390  0.00  0.00    +0.000 HD
BRANCH  10  13
ATOM     13  C   UNL     1      44.577   5.278  11.528  0.00  0.00    +0.000 A 
ATOM     14  C   UNL     1      43.855   4.603  12.503  0.00  0.00    +0.000 A 
ATOM     15  S   UNL     1      43.438   3.007  12.065  0.00  0.00    +0.000 S 
ATOM     16  C   UNL     1      44.251   3.144  10.577  0.00  0.00    +0.000 A 
ATOM     17  N   UNL     1      44.300   2.099   9.708  0.00  0.00    +0.000 NA
ATOM     18  C   UNL     1      44.976   2.329   8.632  0.00  0.00    +0.000 A 
ATOM     19  N   UNL     1      45.601   3.513   8.342  0.00  0.00    +0.000 N 
ATOM     20  C   UNL     1      45.553   4.607   9.175  0.00  0.00    +0.000 A 
ATOM     21  O   UNL     1      46.086   5.667   8.862  0.00  0.00    +0.000 OA
ATOM     22  C   UNL     1      44.817   4.396  10.408  0.00  0.00    +0.000 A 
ATOM     23  H   UNL     1      46.108   3.634   7.478  0.00  0.00    +0.000 HD
ENDBRANCH  10  13
ENDBRANCH   8   9
ENDBRANCH   4   8
BRANCH   7  24
ATOM     24  C   UNL     1      52.153   8.666  12.012  0.00  0.00    +0.000 C 
BRANCH  24  25
ATOM     25  N   UNL     1      52.531   7.750  10.963  0.00  0.00    +0.000 N 
ATOM     26  C   UNL     1      52.649   8.136   9.646  0.00  0.00    +0.000 C 
ATOM     27  O   UNL     1      52.434   9.287   9.271  0.00  0.00    +0.000 OA
ATOM     28  H   UNL     1      52.875   6.843  11.237  0.00  0.00    +0.000 HD
BRANCH  26  29
ATOM     29  C   UNL     1      53.052   7.079   8.740  0.00  0.00    +0.000 A 
ATOM     30  C   UNL     1      52.966   6.972   7.359  0.00  0.00    +0.000 A 
ATOM     31  C   UNL     1      53.541   5.738   6.969  0.00  0.00    +0.000 A 
ATOM     32  C   UNL     1      53.969   5.111   8.115  0.00  0.00    +0.000 A 
ATOM     33  N   UNL     1      53.669   5.924   9.178  0.00  0.00    +0.000 N 
ATOM     34  H   UNL     1      53.874   5.726  10.151  0.00  0.00    +0.000 HD
ENDBRANCH  26  29
ENDBRANCH  24  25
ENDBRANCH   7  24
TORSDOF 6
ENDMDL
