MODEL 1
REMARK VINA RESULT:    -7.592      0.000      0.000
REMARK INTER + INTRA:         -12.416
REMARK INTER:                 -11.142
REMARK INTRA:                  -1.274
REMARK UNBOUND:                -1.274
REMARK  Name = 
REMARK  11 active torsions:
REMARK  status: ('A' for Active; 'I' for Inactive)
REMARK    1  A    between atoms: C_1  and  O_2
REMARK    2  A    between atoms: O_2  and  C_3
REMARK    3  A    between atoms: C_10  and  C_11
REMARK    4  A    between atoms: N_13  and  C_14
REMARK    5  A    between atoms: C_14  and  C_15
REMARK    6  A    between atoms: C_18  and  O_19
REMARK    7  A    between atoms: O_19  and  C_20
REMARK    8  A    between atoms: C_20  and  C_21
REMARK    9  A    between atoms: C_21  and  C_22
REMARK   10  A    between atoms: C_21  and  C_23
REMARK   11  A    between atoms: C_21  and  C_24
REMARK                            x       y       z     vdW  Elec       q    Type
REMARK                         _______ _______ _______ _____ _____    ______ ____
ROOT
ATOM      1  C   UNL     1      48.376   7.205  14.793  0.00  0.00    +0.000 A 
ATOM      2  C   UNL     1      47.943   8.060  13.772  0.00  0.00    +0.000 A 
ATOM      3  C   UNL     1      47.114   7.596  12.741  0.00  0.00    +0.000 A 
ATOM      4  C   UNL     1      46.698   6.265  12.715  0.00  0.00    +0.000 A 
ATOM      5  C   UNL     1      47.108   5.412  13.742  0.00  0.00    +0.000 A 
ATOM      6  C   UNL     1      47.928   5.878  14.781  0.00  0.00    +0.000 A 
ENDROOT
BRANCH   1   7
ATOM      7  C   UNL     1      49.327   7.717  15.850  0.00  0.00    +0.000 C 
BRANCH   7  10
ATOM      8  C   UNL     1      50.230   6.067  17.463  0.00  0.00    +0.000 C 
ATOM      9  O   UNL     1      49.352   6.310  18.291  0.00  0.00    +0.000 OA
ATOM     10  N   UNL     1      50.273   6.705  16.251  0.00  0.00    +0.000 N 
ATOM     11  H   UNL     1      51.100   6.615  15.685  0.00  0.00    +0.000 HD
BRANCH   8  19
ATOM     12  C   UNL     1      50.365   2.653  17.115  0.00  0.00    +0.000 A 
ATOM     13  N   UNL     1      50.654   1.337  17.124  0.00  0.00    +0.000 NA
ATOM     14  C   UNL     1      51.852   0.964  17.581  0.00  0.00    +0.000 A 
ATOM     15  N   UNL     1      52.817   1.754  18.043  0.00  0.00    +0.000 NA
ATOM     16  C   UNL     1      52.481   3.058  18.027  0.00  0.00    +0.000 A 
ATOM     17  S   UNL     1      53.597   4.220  18.558  0.00  0.00    +0.000 S 
ATOM     18  C   UNL     1      52.506   5.487  18.248  0.00  0.00    +0.000 A 
ATOM     19  C   UNL     1      51.279   5.062  17.731  0.00  0.00    +0.000 A 
ATOM     20  C   UNL     1      51.282   3.606  17.585  0.00  0.00    +0.000 A 
BRANCH  12  22
ATOM     21  C   UNL     1      48.077   3.032  17.419  0.00  0.00    +0.000 C 
ATOM     22  O   UNL     1      49.184   3.046  16.523  0.00  0.00    +0.000 OA
ENDBRANCH  12  22
ENDBRANCH   8  19
ENDBRANCH   7  10
ENDBRANCH   1   7
BRANCH   4  23
ATOM     23  O   UNL     1      45.908   5.690  11.752  0.00  0.00    +0.000 OA
BRANCH  23  24
ATOM     24  C   UNL     1      45.335   4.411  12.069  0.00  0.00    +0.000 C 
BRANCH  24  25
ATOM     25  C   UNL     1      44.297   3.970  10.994  0.00  0.00    +0.000 C 
ATOM     26  C   UNL     1      43.435   2.829  11.573  0.00  0.00    +0.000 C 
ATOM     27  C   UNL     1      43.371   5.156  10.653  0.00  0.00    +0.000 C 
BRANCH  25  28
ATOM     28  C   UNL     1      45.023   3.494   9.726  0.00  0.00    +0.000 A 
ATOM     29  C   UNL     1      45.483   4.404   8.768  0.00  0.00    +0.000 A 
ATOM     30  C   UNL     1      46.127   3.934   7.626  0.00  0.00    +0.000 A 
ATOM     31  C   UNL     1      46.299   2.569   7.454  0.00  0.00    +0.000 A 
ATOM     32  C   UNL     1      45.825   1.728   8.442  0.00  0.00    +0.000 A 
ATOM     33  N   UNL     1      45.201   2.159   9.562  0.00  0.00    +0.000 NA
ENDBRANCH  25  28
ENDBRANCH  24  25
ENDBRANCH  23  24
ENDBRANCH   4  23
TORSDOF 8
ENDMDL
MODEL 2
REMARK VINA RESULT:    -6.941      1.693      2.078
REMARK INTER + INTRA:         -11.461
REMARK INTER:                  -9.980
REMARK INTRA:                  -1.482
REMARK UNBOUND:                -1.274
REMARK  Name = 
REMARK  11 active torsions:
REMARK  status: ('A' for Active; 'I' for Inactive)
REMARK    1  A    between atoms: C_1  and  O_2
REMARK    2  A    between atoms: O_2  and  C_3
REMARK    3  A    between atoms: C_10  and  C_11
REMARK    4  A    between atoms: N_13  and  C_14
REMARK    5  A    between atoms: C_14  and  C_15
REMARK    6  A    between atoms: C_18  and  O_19
REMARK    7  A    between atoms: O_19  and  C_20
REMARK    8  A    between atoms: C_20  and  C_21
REMARK    9  A    between atoms: C_21  and  C_22
REMARK   10  A    between atoms: C_21  and  C_23
REMARK   11  A    between atoms: C_21  and  C_24
REMARK                            x       y       z     vdW  Elec       q    Type
REMARK                         _______ _______ _______ _____ _____    ______ ____
ROOT
ATOM      1  C   UNL     1      48.735   7.880  12.930  0.00  0.00    +0.000 A 
ATOM      2  C   UNL     1      47.693   8.570  12.297  0.00  0.00    +0.000 A 
ATOM      3  C   UNL     1      46.432   7.983  12.129  0.00  0.00    +0.000 A 
ATOM      4  C   UNL     1      46.186   6.692  12.596  0.00  0.00    +0.000 A 
ATOM      5  C   UNL     1      47.213   6.006  13.248  0.00  0.00    +0.000 A 
ATOM      6  C   UNL     1      48.473   6.596  13.427  0.00  0.00    +0.000 A 
ENDROOT
BRANCH   1   7
ATOM      7  C   UNL     1      50.104   8.511  13.032  0.00  0.00    +0.000 C 
BRANCH   7  10
ATOM      8  C   UNL     1      51.150   7.943  15.204  0.00  0.00    +0.000 C 
ATOM      9  O   UNL     1      50.518   8.815  15.801  0.00  0.00    +0.000 OA
ATOM     10  N   UNL     1      50.990   7.732  13.861  0.00  0.00    +0.000 N 
ATOM     11  H   UNL     1      51.651   7.143  13.380  0.00  0.00    +0.000 HD
BRANCH   8  19
ATOM     12  C   UNL     1      50.784   5.110  17.112  0.00  0.00    +0.000 A 
ATOM     13  N   UNL     1      50.907   4.043  17.924  0.00  0.00    +0.000 NA
ATOM     14  C   UNL     1      52.131   3.721  18.351  0.00  0.00    +0.000 A 
ATOM     15  N   UNL     1      53.270   4.347  18.069  0.00  0.00    +0.000 NA
ATOM     16  C   UNL     1      53.098   5.414  17.265  0.00  0.00    +0.000 A 
ATOM     17  S   UNL     1      54.444   6.323  16.775  0.00  0.00    +0.000 S 
ATOM     18  C   UNL     1      53.467   7.382  15.872  0.00  0.00    +0.000 A 
ATOM     19  C   UNL     1      52.105   7.069  15.914  0.00  0.00    +0.000 A 
ATOM     20  C   UNL     1      51.898   5.877  16.736  0.00  0.00    +0.000 A 
BRANCH  12  22
ATOM     21  C   UNL     1      48.697   6.119  17.426  0.00  0.00    +0.000 C 
ATOM     22  O   UNL     1      49.543   5.361  16.567  0.00  0.00    +0.000 OA
ENDBRANCH  12  22
ENDBRANCH   8  19
ENDBRANCH   7  10
ENDBRANCH   1   7
BRANCH   4  23
ATOM     23  O   UNL     1      45.005   6.005  12.474  0.00  0.00    +0.000 OA
BRANCH  23  24
ATOM     24  C   UNL     1      45.101   4.580  12.323  0.00  0.00    +0.000 C 
BRANCH  24  25
ATOM     25  C   UNL     1      44.094   4.050  11.258  0.00  0.00    +0.000 C 
ATOM     26  C   UNL     1      43.370   2.814  11.830  0.00  0.00    +0.000 C 
ATOM     27  C   UNL     1      43.042   5.137  10.957  0.00  0.00    +0.000 C 
BRANCH  25  28
ATOM     28  C   UNL     1      44.842   3.676   9.969  0.00  0.00    +0.000 A 
ATOM     29  C   UNL     1      45.402   4.656   9.144  0.00  0.00    +0.000 A 
ATOM     30  C   UNL     1      46.062   4.279   7.977  0.00  0.00    +0.000 A 
ATOM     31  C   UNL     1      46.152   2.935   7.649  0.00  0.00    +0.000 A 
ATOM     32  C   UNL     1      45.581   2.020   8.512  0.00  0.00    +0.000 A 
ATOM     33  N   UNL     1      44.938   2.359   9.653  0.00  0.00    +0.000 NA
ENDBRANCH  25  28
ENDBRANCH  24  25
ENDBRANCH  23  24
ENDBRANCH   4  23
TORSDOF 8
ENDMDL
MODEL 3
REMARK VINA RESULT:    -6.819      3.406      9.995
REMARK INTER + INTRA:         -11.282
REMARK INTER:                 -10.167
REMARK INTRA:                  -1.116
REMARK UNBOUND:                -1.274
REMARK  Name = 
REMARK  11 active torsions:
REMARK  status: ('A' for Active; 'I' for Inactive)
REMARK    1  A    between atoms: C_1  and  O_2
REMARK    2  A    between atoms: O_2  and  C_3
REMARK    3  A    between atoms: C_10  and  C_11
REMARK    4  A    between atoms: N_13  and  C_14
REMARK    5  A    between atoms: C_14  and  C_15
REMARK    6  A    between atoms: C_18  and  O_19
REMARK    7  A    between atoms: O_19  and  C_20
REMARK    8  A    between atoms: C_20  and  C_21
REMARK    9  A    between atoms: C_21  and  C_22
REMARK   10  A    between atoms: C_21  and  C_23
REMARK   11  A    between atoms: C_21  and  C_24
REMARK                            x       y       z     vdW  Elec       q    Type
REMARK                         _______ _______ _______ _____ _____    ______ ____
ROOT
ATOM      1  C   UNL     1      48.725   3.276  17.159  0.00  0.00    +0.000 A 
ATOM      2  C   UNL     1      49.554   4.266  17.703  0.00  0.00    +0.000 A 
ATOM      3  C   UNL     1      50.915   4.025  17.933  0.00  0.00    +0.000 A 
ATOM      4  C   UNL     1      51.476   2.788  17.617  0.00  0.00    +0.000 A 
ATOM      5  C   UNL     1      50.661   1.804  17.053  0.00  0.00    +0.000 A 
ATOM      6  C   UNL     1      49.300   2.047  16.812  0.00  0.00    +0.000 A 
ENDROOT
BRANCH   1   7
ATOM      7  C   UNL     1      47.247   3.541  16.991  0.00  0.00    +0.000 C 
BRANCH   7  10
ATOM      8  C   UNL     1      47.025   4.334  14.654  0.00  0.00    +0.000 C 
ATOM      9  O   UNL     1      47.249   3.215  14.193  0.00  0.00    +0.000 OA
ATOM     10  N   UNL     1      46.998   4.563  16.004  0.00  0.00    +0.000 N 
ATOM     11  H   UNL     1      46.995   5.514  16.335  0.00  0.00    +0.000 HD
BRANCH   8  19
ATOM     12  C   UNL     1      44.368   5.217  12.664  0.00  0.00    +0.000 A 
ATOM     13  N   UNL     1      43.502   5.756  11.785  0.00  0.00    +0.000 NA
ATOM     14  C   UNL     1      43.856   6.889  11.173  0.00  0.00    +0.000 A 
ATOM     15  N   UNL     1      44.991   7.564  11.328  0.00  0.00    +0.000 NA
ATOM     16  C   UNL     1      45.832   6.983  12.205  0.00  0.00    +0.000 A 
ATOM     17  S   UNL     1      47.323   7.715  12.551  0.00  0.00    +0.000 S 
ATOM     18  C   UNL     1      47.739   6.476  13.639  0.00  0.00    +0.000 A 
ATOM     19  C   UNL     1      46.760   5.488  13.770  0.00  0.00    +0.000 A 
ATOM     20  C   UNL     1      45.614   5.812  12.921  0.00  0.00    +0.000 A 
BRANCH  12  22
ATOM     21  C   UNL     1      43.654   2.992  12.578  0.00  0.00    +0.000 C 
ATOM     22  O   UNL     1      43.949   4.124  13.391  0.00  0.00    +0.000 OA
ENDBRANCH  12  22
ENDBRANCH   8  19
ENDBRANCH   7  10
ENDBRANCH   1   7
BRANCH   4  23
ATOM     23  O   UNL     1      52.785   2.426  17.813  0.00  0.00    +0.000 OA
BRANCH  23  24
ATOM     24  C   UNL     1      53.114   1.047  17.580  0.00  0.00    +0.000 C 
BRANCH  24  25
ATOM     25  C   UNL     1      54.562   0.719  18.054  0.00  0.00    +0.000 C 
ATOM     26  C   UNL     1      55.556   1.166  16.962  0.00  0.00    +0.000 C 
ATOM     27  C   UNL     1      54.872   1.501  19.347  0.00  0.00    +0.000 C 
BRANCH  25  28
ATOM     28  C   UNL     1      54.702  -0.790  18.312  0.00  0.00    +0.000 A 
ATOM     29  C   UNL     1      55.585  -1.575  17.564  0.00  0.00    +0.000 A 
ATOM     30  C   UNL     1      55.676  -2.941  17.819  0.00  0.00    +0.000 A 
ATOM     31  C   UNL     1      54.887  -3.503  18.810  0.00  0.00    +0.000 A 
ATOM     32  C   UNL     1      54.040  -2.669  19.514  0.00  0.00    +0.000 A 
ATOM     33  N   UNL     1      53.936  -1.338  19.289  0.00  0.00    +0.000 NA
ENDBRANCH  25  28
ENDBRANCH  24  25
ENDBRANCH  23  24
ENDBRANCH   4  23
TORSDOF 8
ENDMDL
MODEL 4
REMARK VINA RESULT:    -6.765      3.337      8.276
REMARK INTER + INTRA:         -11.203
REMARK INTER:                  -9.339
REMARK INTRA:                  -1.864
REMARK UNBOUND:                -1.274
REMARK  Name = 
REMARK  11 active torsions:
REMARK  status: ('A' for Active; 'I' for Inactive)
REMARK    1  A    between atoms: C_1  and  O_2
REMARK    2  A    between atoms: O_2  and  C_3
REMARK    3  A    between atoms: C_10  and  C_11
REMARK    4  A    between atoms: N_13  and  C_14
REMARK    5  A    between atoms: C_14  and  C_15
REMARK    6  A    between atoms: C_18  and  O_19
REMARK    7  A    between atoms: O_19  and  C_20
REMARK    8  A    between atoms: C_20  and  C_21
REMARK    9  A    between atoms: C_21  and  C_22
REMARK   10  A    between atoms: C_21  and  C_23
REMARK   11  A    between atoms: C_21  and  C_24
REMARK                            x       y       z     vdW  Elec       q    Type
REMARK                         _______ _______ _______ _____ _____    ______ ____
ROOT
ATOM      1  C   UNL     1      48.507   7.889  13.365  0.00  0.00    +0.000 A 
ATOM      2  C   UNL     1      49.232   6.905  14.050  0.00  0.00    +0.000 A 
ATOM      3  C   UNL     1      49.326   6.916  15.448  0.00  0.00    +0.000 A 
ATOM      4  C   UNL     1      48.691   7.911  16.191  0.00  0.00    +0.000 A 
ATOM      5  C   UNL     1      47.947   8.883  15.516  0.00  0.00    +0.000 A 
ATOM      6  C   UNL     1      47.843   8.867  14.117  0.00  0.00    +0.000 A 
ENDROOT
BRANCH   1   7
ATOM      7  C   UNL     1      48.484   7.893  11.855  0.00  0.00    +0.000 C 
BRANCH   7  10
ATOM      8  C   UNL     1      46.300   6.891  11.252  0.00  0.00    +0.000 C 
ATOM      9  O   UNL     1      45.678   7.890  11.612  0.00  0.00    +0.000 OA
ATOM     10  N   UNL     1      47.666   6.827  11.331  0.00  0.00    +0.000 N 
ATOM     11  H   UNL     1      48.118   5.937  11.202  0.00  0.00    +0.000 HD
BRANCH   8  19
ATOM     12  C   UNL     1      44.532   4.318  12.685  0.00  0.00    +0.000 A 
ATOM     13  N   UNL     1      43.852   3.197  12.992  0.00  0.00    +0.000 NA
ATOM     14  C   UNL     1      43.497   2.387  11.991  0.00  0.00    +0.000 A 
ATOM     15  N   UNL     1      43.744   2.556  10.695  0.00  0.00    +0.000 NA
ATOM     16  C   UNL     1      44.435   3.682  10.435  0.00  0.00    +0.000 A 
ATOM     17  S   UNL     1      44.821   4.081   8.832  0.00  0.00    +0.000 S 
ATOM     18  C   UNL     1      45.616   5.502   9.320  0.00  0.00    +0.000 A 
ATOM     19  C   UNL     1      45.602   5.711  10.702  0.00  0.00    +0.000 A 
ATOM     20  C   UNL     1      44.875   4.625  11.358  0.00  0.00    +0.000 A 
BRANCH  12  22
ATOM     21  C   UNL     1      46.086   5.084  14.255  0.00  0.00    +0.000 C 
ATOM     22  O   UNL     1      44.781   5.216  13.700  0.00  0.00    +0.000 OA
ENDBRANCH  12  22
ENDBRANCH   8  19
ENDBRANCH   7  10
ENDBRANCH   1   7
BRANCH   4  23
ATOM     23  O   UNL     1      48.725   8.040  17.556  0.00  0.00    +0.000 OA
BRANCH  23  24
ATOM     24  C   UNL     1      49.599   7.147  18.266  0.00  0.00    +0.000 C 
BRANCH  24  25
ATOM     25  C   UNL     1      48.795   6.061  19.041  0.00  0.00    +0.000 C 
ATOM     26  C   UNL     1      49.455   5.842  20.419  0.00  0.00    +0.000 C 
ATOM     27  C   UNL     1      47.349   6.550  19.265  0.00  0.00    +0.000 C 
BRANCH  25  28
ATOM     28  C   UNL     1      48.783   4.747  18.245  0.00  0.00    +0.000 A 
ATOM     29  C   UNL     1      49.955   4.013  18.037  0.00  0.00    +0.000 A 
ATOM     30  C   UNL     1      49.907   2.832  17.300  0.00  0.00    +0.000 A 
ATOM     31  C   UNL     1      48.696   2.402  16.782  0.00  0.00    +0.000 A 
ATOM     32  C   UNL     1      47.576   3.171  17.031  0.00  0.00    +0.000 A 
ATOM     33  N   UNL     1      47.595   4.320  17.747  0.00  0.00    +0.000 NA
ENDBRANCH  25  28
ENDBRANCH  24  25
ENDBRANCH  23  24
ENDBRANCH   4  23
TORSDOF 8
ENDMDL
MODEL 5
REMARK VINA RESULT:    -6.710      2.617      3.193
REMARK INTER + INTRA:         -11.121
REMARK INTER:                  -9.656
REMARK INTRA:                  -1.465
REMARK UNBOUND:                -1.274
REMARK  Name = 
REMARK  11 active torsions:
REMARK  status: ('A' for Active; 'I' for Inactive)
REMARK    1  A    between atoms: C_1  and  O_2
REMARK    2  A    between atoms: O_2  and  C_3
REMARK    3  A    between atoms: C_10  and  C_11
REMARK    4  A    between atoms: N_13  and  C_14
REMARK    5  A    between atoms: C_14  and  C_15
REMARK    6  A    between atoms: C_18  and  O_19
REMARK    7  A    between atoms: O_19  and  C_20
REMARK    8  A    between atoms: C_20  and  C_21
REMARK    9  A    between atoms: C_21  and  C_22
REMARK   10  A    between atoms: C_21  and  C_23
REMARK   11  A    between atoms: C_21  and  C_24
REMARK                            x       y       z     vdW  Elec       q    Type
REMARK                         _______ _______ _______ _____ _____    ______ ____
ROOT
ATOM      1  C   UNL     1      46.952   8.051  13.015  0.00  0.00    +0.000 A 
ATOM      2  C   UNL     1      45.569   8.218  12.865  0.00  0.00    +0.000 A 
ATOM      3  C   UNL     1      44.837   7.426  11.972  0.00  0.00    +0.000 A 
ATOM      4  C   UNL     1      45.473   6.445  11.212  0.00  0.00    +0.000 A 
ATOM      5  C   UNL     1      46.848   6.256  11.373  0.00  0.00    +0.000 A 
ATOM      6  C   UNL     1      47.581   7.041  12.275  0.00  0.00    +0.000 A 
ENDROOT
BRANCH   1   7
ATOM      7  C   UNL     1      47.727   8.968  13.932  0.00  0.00    +0.000 C 
BRANCH   7  10
ATOM      8  C   UNL     1      49.090   8.578  15.963  0.00  0.00    +0.000 C 
ATOM      9  O   UNL     1      49.982   9.334  15.579  0.00  0.00    +0.000 OA
ATOM     10  N   UNL     1      47.961   8.362  15.220  0.00  0.00    +0.000 N 
ATOM     11  H   UNL     1      47.348   7.605  15.477  0.00  0.00    +0.000 HD
BRANCH   8  19
ATOM     12  C   UNL     1      48.544   5.326  16.926  0.00  0.00    +0.000 A 
ATOM     13  N   UNL     1      48.350   4.155  17.561  0.00  0.00    +0.000 NA
ATOM     14  C   UNL     1      48.547   4.119  18.881  0.00  0.00    +0.000 A 
ATOM     15  N   UNL     1      48.916   5.129  19.665  0.00  0.00    +0.000 NA
ATOM     16  C   UNL     1      49.087   6.282  18.991  0.00  0.00    +0.000 A 
ATOM     17  S   UNL     1      49.583   7.676  19.822  0.00  0.00    +0.000 S 
ATOM     18  C   UNL     1      49.563   8.598  18.394  0.00  0.00    +0.000 A 
ATOM     19  C   UNL     1      49.188   7.874  17.258  0.00  0.00    +0.000 A 
ATOM     20  C   UNL     1      48.924   6.483  17.625  0.00  0.00    +0.000 A 
BRANCH  12  22
ATOM     21  C   UNL     1      47.252   4.783  15.053  0.00  0.00    +0.000 C 
ATOM     22  O   UNL     1      48.470   5.330  15.550  0.00  0.00    +0.000 OA
ENDBRANCH  12  22
ENDBRANCH   8  19
ENDBRANCH   7  10
ENDBRANCH   1   7
BRANCH   4  23
ATOM     23  O   UNL     1      44.870   5.624  10.293  0.00  0.00    +0.000 OA
BRANCH  23  24
ATOM     24  C   UNL     1      45.735   4.957   9.360  0.00  0.00    +0.000 C 
BRANCH  24  25
ATOM     25  C   UNL     1      45.120   3.609   8.876  0.00  0.00    +0.000 C 
ATOM     26  C   UNL     1      44.889   2.700  10.101  0.00  0.00    +0.000 C 
ATOM     27  C   UNL     1      43.759   3.876   8.200  0.00  0.00    +0.000 C 
BRANCH  25  28
ATOM     28  C   UNL     1      46.071   2.925   7.881  0.00  0.00    +0.000 A 
ATOM     29  C   UNL     1      46.545   3.596   6.751  0.00  0.00    +0.000 A 
ATOM     30  C   UNL     1      47.396   2.939   5.866  0.00  0.00    +0.000 A 
ATOM     31  C   UNL     1      47.759   1.625   6.119  0.00  0.00    +0.000 A 
ATOM     32  C   UNL     1      47.259   1.024   7.257  0.00  0.00    +0.000 A 
ATOM     33  N   UNL     1      46.434   1.641   8.135  0.00  0.00    +0.000 NA
ENDBRANCH  25  28
ENDBRANCH  24  25
ENDBRANCH  23  24
ENDBRANCH   4  23
TORSDOF 8
ENDMDL
MODEL 6
REMARK VINA RESULT:    -6.653      3.412      9.366
REMARK INTER + INTRA:         -11.039
REMARK INTER:                  -9.546
REMARK INTRA:                  -1.493
REMARK UNBOUND:                -1.274
REMARK  Name = 
REMARK  11 active torsions:
REMARK  status: ('A' for Active; 'I' for Inactive)
REMARK    1  A    between atoms: C_1  and  O_2
REMARK    2  A    between atoms: O_2  and  C_3
REMARK    3  A    between atoms: C_10  and  C_11
REMARK    4  A    between atoms: N_13  and  C_14
REMARK    5  A    between atoms: C_14  and  C_15
REMARK    6  A    between atoms: C_18  and  O_19
REMARK    7  A    between atoms: O_19  and  C_20
REMARK    8  A    between atoms: C_20  and  C_21
REMARK    9  A    between atoms: C_21  and  C_22
REMARK   10  A    between atoms: C_21  and  C_23
REMARK   11  A    between atoms: C_21  and  C_24
REMARK                            x       y       z     vdW  Elec       q    Type
REMARK                         _______ _______ _______ _____ _____    ______ ____
ROOT
ATOM      1  C   UNL     1      48.648   3.239  17.105  0.00  0.00    +0.000 A 
ATOM      2  C   UNL     1      49.323   4.320  17.686  0.00  0.00    +0.000 A 
ATOM      3  C   UNL     1      50.686   4.239  18.000  0.00  0.00    +0.000 A 
ATOM      4  C   UNL     1      51.404   3.073  17.732  0.00  0.00    +0.000 A 
ATOM      5  C   UNL     1      50.743   1.999  17.131  0.00  0.00    +0.000 A 
ATOM      6  C   UNL     1      49.380   2.083  16.807  0.00  0.00    +0.000 A 
ENDROOT
BRANCH   1   7
ATOM      7  C   UNL     1      47.162   3.331  16.845  0.00  0.00    +0.000 C 
BRANCH   7  10
ATOM      8  C   UNL     1      46.911   4.223  14.548  0.00  0.00    +0.000 C 
ATOM      9  O   UNL     1      47.226   3.149  14.035  0.00  0.00    +0.000 OA
ATOM     10  N   UNL     1      46.848   4.380  15.907  0.00  0.00    +0.000 N 
ATOM     11  H   UNL     1      46.768   5.310  16.285  0.00  0.00    +0.000 HD
BRANCH   8  19
ATOM     12  C   UNL     1      44.152   5.074  12.688  0.00  0.00    +0.000 A 
ATOM     13  N   UNL     1      43.234   5.611  11.862  0.00  0.00    +0.000 NA
ATOM     14  C   UNL     1      43.522   6.778  11.281  0.00  0.00    +0.000 A 
ATOM     15  N   UNL     1      44.637   7.491  11.420  0.00  0.00    +0.000 NA
ATOM     16  C   UNL     1      45.530   6.912  12.245  0.00  0.00    +0.000 A 
ATOM     17  S   UNL     1      47.004   7.688  12.565  0.00  0.00    +0.000 S 
ATOM     18  C   UNL     1      47.506   6.427  13.590  0.00  0.00    +0.000 A 
ATOM     19  C   UNL     1      46.571   5.397  13.718  0.00  0.00    +0.000 A 
ATOM     20  C   UNL     1      45.383   5.707  12.923  0.00  0.00    +0.000 A 
BRANCH  12  22
ATOM     21  C   UNL     1      43.583   2.810  12.547  0.00  0.00    +0.000 C 
ATOM     22  O   UNL     1      43.801   3.939  13.387  0.00  0.00    +0.000 OA
ENDBRANCH  12  22
ENDBRANCH   8  19
ENDBRANCH   7  10
ENDBRANCH   1   7
BRANCH   4  23
ATOM     23  O   UNL     1      52.731   2.866  18.010  0.00  0.00    +0.000 OA
BRANCH  23  24
ATOM     24  C   UNL     1      53.397   3.886  18.771  0.00  0.00    +0.000 C 
BRANCH  24  25
ATOM     25  C   UNL     1      54.628   4.457  18.005  0.00  0.00    +0.000 C 
ATOM     26  C   UNL     1      55.690   4.902  19.031  0.00  0.00    +0.000 C 
ATOM     27  C   UNL     1      55.239   3.354  17.116  0.00  0.00    +0.000 C 
BRANCH  25  28
ATOM     28  C   UNL     1      54.199   5.649  17.135  0.00  0.00    +0.000 A 
ATOM     29  C   UNL     1      54.692   5.816  15.838  0.00  0.00    +0.000 A 
ATOM     30  C   UNL     1      54.290   6.915  15.084  0.00  0.00    +0.000 A 
ATOM     31  C   UNL     1      53.406   7.831  15.633  0.00  0.00    +0.000 A 
ATOM     32  C   UNL     1      52.953   7.602  16.918  0.00  0.00    +0.000 A 
ATOM     33  N   UNL     1      53.326   6.540  17.670  0.00  0.00    +0.000 NA
ENDBRANCH  25  28
ENDBRANCH  24  25
ENDBRANCH  23  24
ENDBRANCH   4  23
TORSDOF 8
ENDMDL
MODEL 7
REMARK VINA RESULT:    -6.529      1.955      3.697
REMARK INTER + INTRA:         -10.856
REMARK INTER:                  -9.401
REMARK INTRA:                  -1.455
REMARK UNBOUND:                -1.274
REMARK  Name = 
REMARK  11 active torsions:
REMARK  status: ('A' for Active; 'I' for Inactive)
REMARK    1  A    between atoms: C_1  and  O_2
REMARK    2  A    between atoms: O_2  and  C_3
REMARK    3  A    between atoms: C_10  and  C_11
REMARK    4  A    between atoms: N_13  and  C_14
REMARK    5  A    between atoms: C_14  and  C_15
REMARK    6  A    between atoms: C_18  and  O_19
REMARK    7  A    between atoms: O_19  and  C_20
REMARK    8  A    between atoms: C_20  and  C_21
REMARK    9  A    between atoms: C_21  and  C_22
REMARK   10  A    between atoms: C_21  and  C_23
REMARK   11  A    between atoms: C_21  and  C_24
REMARK                            x       y       z     vdW  Elec       q    Type
REMARK                         _______ _______ _______ _____ _____    ______ ____
ROOT
ATOM      1  C   UNL     1      48.244   4.036  17.050  0.00  0.00    +0.000 A 
ATOM      2  C   UNL     1      48.815   5.307  16.906  0.00  0.00    +0.000 A 
ATOM      3  C   UNL     1      48.499   6.124  15.811  0.00  0.00    +0.000 A 
ATOM      4  C   UNL     1      47.600   5.686  14.840  0.00  0.00    +0.000 A 
ATOM      5  C   UNL     1      47.009   4.429  14.988  0.00  0.00    +0.000 A 
ATOM      6  C   UNL     1      47.315   3.614  16.089  0.00  0.00    +0.000 A 
ENDROOT
BRANCH   1   7
ATOM      7  C   UNL     1      48.659   3.151  18.201  0.00  0.00    +0.000 C 
BRANCH   7  10
ATOM      8  C   UNL     1      50.774   2.156  17.381  0.00  0.00    +0.000 C 
ATOM      9  O   UNL     1      50.203   1.538  16.484  0.00  0.00    +0.000 OA
ATOM     10  N   UNL     1      50.088   2.968  18.245  0.00  0.00    +0.000 N 
ATOM     11  H   UNL     1      50.558   3.306  19.069  0.00  0.00    +0.000 HD
BRANCH   8  19
ATOM     12  C   UNL     1      53.223   4.482  18.008  0.00  0.00    +0.000 A 
ATOM     13  N   UNL     1      54.356   5.185  18.197  0.00  0.00    +0.000 NA
ATOM     14  C   UNL     1      55.512   4.515  18.205  0.00  0.00    +0.000 A 
ATOM     15  N   UNL     1      55.683   3.206  18.042  0.00  0.00    +0.000 NA
ATOM     16  C   UNL     1      54.526   2.546  17.845  0.00  0.00    +0.000 A 
ATOM     17  S   UNL     1      54.543   0.862  17.642  0.00  0.00    +0.000 S 
ATOM     18  C   UNL     1      52.852   0.813  17.466  0.00  0.00    +0.000 A 
ATOM     19  C   UNL     1      52.238   2.064  17.563  0.00  0.00    +0.000 A 
ATOM     20  C   UNL     1      53.248   3.093  17.809  0.00  0.00    +0.000 A 
BRANCH  12  22
ATOM     21  C   UNL     1      52.167   6.568  18.066  0.00  0.00    +0.000 C 
ATOM     22  O   UNL     1      52.025   5.153  18.130  0.00  0.00    +0.000 OA
ENDBRANCH  12  22
ENDBRANCH   8  19
ENDBRANCH   7  10
ENDBRANCH   1   7
BRANCH   4  23
ATOM     23  O   UNL     1      47.228   6.382  13.717  0.00  0.00    +0.000 OA
BRANCH  23  24
ATOM     24  C   UNL     1      45.948   6.058  13.153  0.00  0.00    +0.000 C 
BRANCH  24  25
ATOM     25  C   UNL     1      45.879   6.435  11.643  0.00  0.00    +0.000 C 
ATOM     26  C   UNL     1      44.891   7.607  11.468  0.00  0.00    +0.000 C 
ATOM     27  C   UNL     1      47.271   6.893  11.161  0.00  0.00    +0.000 C 
BRANCH  25  28
ATOM     28  C   UNL     1      45.415   5.223  10.819  0.00  0.00    +0.000 A 
ATOM     29  C   UNL     1      44.857   4.098  11.433  0.00  0.00    +0.000 A 
ATOM     30  C   UNL     1      44.458   3.015  10.654  0.00  0.00    +0.000 A 
ATOM     31  C   UNL     1      44.623   3.067   9.279  0.00  0.00    +0.000 A 
ATOM     32  C   UNL     1      45.175   4.212   8.737  0.00  0.00    +0.000 A 
ATOM     33  N   UNL     1      45.566   5.280   9.471  0.00  0.00    +0.000 NA
ENDBRANCH  25  28
ENDBRANCH  24  25
ENDBRANCH  23  24
ENDBRANCH   4  23
TORSDOF 8
ENDMDL
MODEL 8
REMARK VINA RESULT:    -6.430      3.646      9.285
REMARK INTER + INTRA:         -10.710
REMARK INTER:                  -8.643
REMARK INTRA:                  -2.067
REMARK UNBOUND:                -1.274
REMARK  Name = 
REMARK  11 active torsions:
REMARK  status: ('A' for Active; 'I' for Inactive)
REMARK    1  A    between atoms: C_1  and  O_2
REMARK    2  A    between atoms: O_2  and  C_3
REMARK    3  A    between atoms: C_10  and  C_11
REMARK    4  A    between atoms: N_13  and  C_14
REMARK    5  A    between atoms: C_14  and  C_15
REMARK    6  A    between atoms: C_18  and  O_19
REMARK    7  A    between atoms: O_19  and  C_20
REMARK    8  A    between atoms: C_20  and  C_21
REMARK    9  A    between atoms: C_21  and  C_22
REMARK   10  A    between atoms: C_21  and  C_23
REMARK   11  A    between atoms: C_21  and  C_24
REMARK                            x       y       z     vdW  Elec       q    Type
REMARK                         _______ _______ _______ _____ _____    ______ ____
ROOT
ATOM      1  C   UNL     1      48.755   3.331  17.166  0.00  0.00    +0.000 A 
ATOM      2  C   UNL     1      49.569   4.227  17.871  0.00  0.00    +0.000 A 
ATOM      3  C   UNL     1      50.900   3.910  18.174  0.00  0.00    +0.000 A 
ATOM      4  C   UNL     1      51.445   2.691  17.773  0.00  0.00    +0.000 A 
ATOM      5  C   UNL     1      50.646   1.803  17.050  0.00  0.00    +0.000 A 
ATOM      6  C   UNL     1      49.317   2.122  16.736  0.00  0.00    +0.000 A 
ENDROOT
BRANCH   1   7
ATOM      7  C   UNL     1      47.304   3.670  16.917  0.00  0.00    +0.000 C 
BRANCH   7  10
ATOM      8  C   UNL     1      47.127   4.263  14.518  0.00  0.00    +0.000 C 
ATOM      9  O   UNL     1      47.210   3.087  14.163  0.00  0.00    +0.000 OA
ATOM     10  N   UNL     1      47.154   4.618  15.841  0.00  0.00    +0.000 N 
ATOM     11  H   UNL     1      47.268   5.589  16.080  0.00  0.00    +0.000 HD
BRANCH   8  19
ATOM     12  C   UNL     1      48.818   7.204  13.984  0.00  0.00    +0.000 A 
ATOM     13  N   UNL     1      49.271   8.414  13.602  0.00  0.00    +0.000 NA
ATOM     14  C   UNL     1      48.648   9.023  12.590  0.00  0.00    +0.000 A 
ATOM     15  N   UNL     1      47.605   8.570  11.900  0.00  0.00    +0.000 NA
ATOM     16  C   UNL     1      47.178   7.364  12.323  0.00  0.00    +0.000 A 
ATOM     17  S   UNL     1      45.871   6.614  11.545  0.00  0.00    +0.000 S 
ATOM     18  C   UNL     1      45.958   5.268  12.581  0.00  0.00    +0.000 A 
ATOM     19  C   UNL     1      46.979   5.352  13.532  0.00  0.00    +0.000 A 
ATOM     20  C   UNL     1      47.716   6.603  13.356  0.00  0.00    +0.000 A 
BRANCH  12  22
ATOM     21  C   UNL     1      49.802   7.295  16.104  0.00  0.00    +0.000 C 
ATOM     22  O   UNL     1      49.541   6.520  14.938  0.00  0.00    +0.000 OA
ENDBRANCH  12  22
ENDBRANCH   8  19
ENDBRANCH   7  10
ENDBRANCH   1   7
BRANCH   4  23
ATOM     23  O   UNL     1      52.723   2.260  18.027  0.00  0.00    +0.000 OA
BRANCH  23  24
ATOM     24  C   UNL     1      53.460   2.984  19.025  0.00  0.00    +0.000 C 
BRANCH  24  25
ATOM     25  C   UNL     1      54.662   3.753  18.399  0.00  0.00    +0.000 C 
ATOM     26  C   UNL     1      55.775   3.886  19.460  0.00  0.00    +0.000 C 
ATOM     27  C   UNL     1      55.220   2.954  17.203  0.00  0.00    +0.000 C 
BRANCH  25  28
ATOM     28  C   UNL     1      54.209   5.144  17.930  0.00  0.00    +0.000 A 
ATOM     29  C   UNL     1      54.201   5.487  16.574  0.00  0.00    +0.000 A 
ATOM     30  C   UNL     1      53.795   6.762  16.189  0.00  0.00    +0.000 A 
ATOM     31  C   UNL     1      53.405   7.675  17.156  0.00  0.00    +0.000 A 
ATOM     32  C   UNL     1      53.431   7.268  18.476  0.00  0.00    +0.000 A 
ATOM     33  N   UNL     1      53.818   6.035  18.877  0.00  0.00    +0.000 NA
ENDBRANCH  25  28
ENDBRANCH  24  25
ENDBRANCH  23  24
ENDBRANCH   4  23
TORSDOF 8
ENDMDL
MODEL 9
REMARK VINA RESULT:    -6.340      3.274      8.193
REMARK INTER + INTRA:         -10.578
REMARK INTER:                  -8.609
REMARK INTRA:                  -1.969
REMARK UNBOUND:                -1.274
REMARK  Name = 
REMARK  11 active torsions:
REMARK  status: ('A' for Active; 'I' for Inactive)
REMARK    1  A    between atoms: C_1  and  O_2
REMARK    2  A    between atoms: O_2  and  C_3
REMARK    3  A    between atoms: C_10  and  C_11
REMARK    4  A    between atoms: N_13  and  C_14
REMARK    5  A    between atoms: C_14  and  C_15
REMARK    6  A    between atoms: C_18  and  O_19
REMARK    7  A    between atoms: O_19  and  C_20
REMARK    8  A    between atoms: C_20  and  C_21
REMARK    9  A    between atoms: C_21  and  C_22
REMARK   10  A    between atoms: C_21  and  C_23
REMARK   11  A    between atoms: C_21  and  C_24
REMARK                            x       y       z     vdW  Elec       q    Type
REMARK                         _______ _______ _______ _____ _____    ______ ____
ROOT
ATOM      1  C   UNL     1      48.931   8.568  15.418  0.00  0.00    +0.000 A 
ATOM      2  C   UNL     1      48.915   8.792  16.801  0.00  0.00    +0.000 A 
ATOM      3  C   UNL     1      49.810   8.131  17.652  0.00  0.00    +0.000 A 
ATOM      4  C   UNL     1      50.744   7.233  17.134  0.00  0.00    +0.000 A 
ATOM      5  C   UNL     1      50.781   7.022  15.754  0.00  0.00    +0.000 A 
ATOM      6  C   UNL     1      49.893   7.692  14.899  0.00  0.00    +0.000 A 
ENDROOT
BRANCH   1   7
ATOM      7  C   UNL     1      47.906   9.241  14.535  0.00  0.00    +0.000 C 
BRANCH   7  10
ATOM      8  C   UNL     1      46.693   8.136  12.679  0.00  0.00    +0.000 C 
ATOM      9  O   UNL     1      47.293   8.787  11.823  0.00  0.00    +0.000 OA
ATOM     10  N   UNL     1      46.948   8.297  14.014  0.00  0.00    +0.000 N 
ATOM     11  H   UNL     1      46.315   7.886  14.682  0.00  0.00    +0.000 HD
BRANCH   8  19
ATOM     12  C   UNL     1      46.478   4.730  13.068  0.00  0.00    +0.000 A 
ATOM     13  N   UNL     1      46.177   3.418  13.048  0.00  0.00    +0.000 NA
ATOM     14  C   UNL     1      45.039   3.046  12.456  0.00  0.00    +0.000 A 
ATOM     15  N   UNL     1      44.146   3.836  11.867  0.00  0.00    +0.000 NA
ATOM     16  C   UNL     1      44.492   5.137  11.900  0.00  0.00    +0.000 A 
ATOM     17  S   UNL     1      43.462   6.300  11.218  0.00  0.00    +0.000 S 
ATOM     18  C   UNL     1      44.522   7.562  11.636  0.00  0.00    +0.000 A 
ATOM     19  C   UNL     1      45.673   7.135  12.304  0.00  0.00    +0.000 A 
ATOM     20  C   UNL     1      45.635   5.683  12.474  0.00  0.00    +0.000 A 
BRANCH  12  22
ATOM     21  C   UNL     1      47.371   5.093  15.199  0.00  0.00    +0.000 C 
ATOM     22  O   UNL     1      47.583   5.124  13.791  0.00  0.00    +0.000 OA
ENDBRANCH  12  22
ENDBRANCH   8  19
ENDBRANCH   7  10
ENDBRANCH   1   7
BRANCH   4  23
ATOM     23  O   UNL     1      51.655   6.513  17.864  0.00  0.00    +0.000 OA
BRANCH  23  24
ATOM     24  C   UNL     1      52.087   5.263  17.303  0.00  0.00    +0.000 C 
BRANCH  24  25
ATOM     25  C   UNL     1      51.746   4.068  18.243  0.00  0.00    +0.000 C 
ATOM     26  C   UNL     1      52.782   2.947  18.018  0.00  0.00    +0.000 C 
ATOM     27  C   UNL     1      51.834   4.527  19.713  0.00  0.00    +0.000 C 
BRANCH  25  28
ATOM     28  C   UNL     1      50.331   3.549  17.943  0.00  0.00    +0.000 A 
ATOM     29  C   UNL     1      49.225   3.990  18.676  0.00  0.00    +0.000 A 
ATOM     30  C   UNL     1      47.960   3.489  18.382  0.00  0.00    +0.000 A 
ATOM     31  C   UNL     1      47.815   2.557  17.366  0.00  0.00    +0.000 A 
ATOM     32  C   UNL     1      48.949   2.169  16.678  0.00  0.00    +0.000 A 
ATOM     33  N   UNL     1      50.189   2.644  16.941  0.00  0.00    +0.000 NA
ENDBRANCH  25  28
ENDBRANCH  24  25
ENDBRANCH  23  24
ENDBRANCH   4  23
TORSDOF 8
ENDMDL
