MODEL 1
REMARK VINA RESULT:    -7.124      0.000      0.000
REMARK INTER + INTRA:         -12.362
REMARK INTER:                 -10.664
REMARK INTRA:                  -1.698
REMARK UNBOUND:                -1.698
REMARK  Name = 
REMARK  10 active torsions:
REMARK  status: ('A' for Active; 'I' for Inactive)
REMARK    1  A    between atoms: C_1  and  N_2
REMARK    2  A    between atoms: N_2  and  C_3
REMARK    3  A    between atoms: N_2  and  C_24
REMARK    4  A    between atoms: C_3  and  C_4
REMARK    5  A    between atoms: C_7  and  C_8
REMARK    6  A    between atoms: C_8  and  N_9
REMARK    7  A    between atoms: C_10  and  C_12
REMARK    8  A    between atoms: C_24  and  C_25
REMARK    9  A    between atoms: C_24  and  C_27
REMARK   10  A    between atoms: C_25  and  O_26
REMARK                            x       y       z     vdW  Elec       q    Type
REMARK                         _______ _______ _______ _____ _____    ______ ____
ROOT
ATOM      1  C   UNL     1      49.074   7.505  16.558  0.00  0.00    +0.000 A 
ATOM      2  C   UNL     1      48.540   8.697  16.064  0.00  0.00    +0.000 A 
ATOM      3  C   UNL     1      48.045   8.752  14.766  0.00  0.00    +0.000 A 
ATOM      4  C   UNL     1      48.127   7.616  13.969  0.00  0.00    +0.000 A 
ATOM      5  N   UNL     1      48.636   6.441  14.426  0.00  0.00    +0.000 NA
ATOM      6  C   UNL     1      49.081   6.409  15.705  0.00  0.00    +0.000 A 
ENDROOT
BRANCH   1   7
ATOM      7  C   UNL     1      49.602   7.404  17.973  0.00  0.00    +0.000 C 
BRANCH   7   9
ATOM      8  C   UNL     1      48.327   7.475  20.033  0.00  0.00    +0.000 C 
ATOM      9  N   UNL     1      48.730   6.631  18.896  0.00  0.00    +0.000 NA
BRANCH   9  10
ATOM     10  C   UNL     1      49.456   5.414  19.398  0.00  0.00    +0.000 C 
BRANCH  10  11
ATOM     11  C   UNL     1      49.353   4.210  18.450  0.00  0.00    +0.000 A 
ATOM     12  C   UNL     1      50.487   3.516  18.033  0.00  0.00    +0.000 A 
ATOM     13  C   UNL     1      50.343   2.476  17.118  0.00  0.00    +0.000 A 
ATOM     14  C   UNL     1      49.076   2.147  16.652  0.00  0.00    +0.000 A 
ATOM     15  C   UNL     1      47.998   2.877  17.118  0.00  0.00    +0.000 A 
ATOM     16  N   UNL     1      48.110   3.901  17.994  0.00  0.00    +0.000 NA
ENDBRANCH  10  11
BRANCH  10  17
ATOM     17  C   UNL     1      48.980   4.927  20.803  0.00  0.00    +0.000 C 
BRANCH  17  18
ATOM     18  O   UNL     1      48.343   3.644  20.777  0.00  0.00    +0.000 OA
ATOM     19  H   UNL     1      48.328   3.295  21.688  0.00  0.00    +0.000 HD
ENDBRANCH  17  18
ENDBRANCH  10  17
ENDBRANCH   9  10
ENDBRANCH   7   9
ENDBRANCH   1   7
BRANCH   4  20
ATOM     20  C   UNL     1      47.605   7.648  12.553  0.00  0.00    +0.000 C 
BRANCH  20  21
ATOM     21  N   UNL     1      46.893   6.440  12.209  0.00  0.00    +0.000 N 
ATOM     22  C   UNL     1      45.529   6.341  12.256  0.00  0.00    +0.000 C 
ATOM     23  O   UNL     1      44.812   7.291  12.561  0.00  0.00    +0.000 OA
ATOM     24  H   UNL     1      47.456   5.594  12.220  0.00  0.00    +0.000 HD
BRANCH  22  25
ATOM     25  C   UNL     1      44.961   5.051  11.842  0.00  0.00    +0.000 A 
ATOM     26  C   UNL     1      44.264   4.276  12.760  0.00  0.00    +0.000 A 
ATOM     27  S   UNL     1      43.605   2.851  12.092  0.00  0.00    +0.000 S 
ATOM     28  C   UNL     1      44.270   3.195  10.564  0.00  0.00    +0.000 A 
ATOM     29  N   UNL     1      44.085   2.349   9.513  0.00  0.00    +0.000 NA
ATOM     30  C   UNL     1      44.675   2.714   8.424  0.00  0.00    +0.000 A 
ATOM     31  N   UNL     1      45.431   3.849   8.290  0.00  0.00    +0.000 N 
ATOM     32  C   UNL     1      45.604   4.755   9.308  0.00  0.00    +0.000 A 
ATOM     33  O   UNL     1      46.223   5.797   9.130  0.00  0.00    +0.000 OA
ATOM     34  C   UNL     1      44.976   4.383  10.562  0.00  0.00    +0.000 A 
ATOM     35  H   UNL     1      45.859   4.088   7.408  0.00  0.00    +0.000 HD
ENDBRANCH  22  25
ENDBRANCH  20  21
ENDBRANCH   4  20
TORSDOF 9
ENDMDL
MODEL 2
REMARK VINA RESULT:    -7.089      3.256      8.967
REMARK INTER + INTRA:         -12.310
REMARK INTER:                 -11.680
REMARK INTRA:                  -0.630
REMARK UNBOUND:                -1.698
REMARK  Name = 
REMARK  10 active torsions:
REMARK  status: ('A' for Active; 'I' for Inactive)
REMARK    1  A    between atoms: C_1  and  N_2
REMARK    2  A    between atoms: N_2  and  C_3
REMARK    3  A    between atoms: N_2  and  C_24
REMARK    4  A    between atoms: C_3  and  C_4
REMARK    5  A    between atoms: C_7  and  C_8
REMARK    6  A    between atoms: C_8  and  N_9
REMARK    7  A    between atoms: C_10  and  C_12
REMARK    8  A    between atoms: C_24  and  C_25
REMARK    9  A    between atoms: C_24  and  C_27
REMARK   10  A    between atoms: C_25  and  O_26
REMARK                            x       y       z     vdW  Elec       q    Type
REMARK                         _______ _______ _______ _____ _____    ______ ____
ROOT
ATOM      1  C   UNL     1      47.258   5.538  13.414  0.00  0.00    +0.000 A 
ATOM      2  C   UNL     1      47.906   6.160  14.484  0.00  0.00    +0.000 A 
ATOM      3  C   UNL     1      48.029   5.500  15.701  0.00  0.00    +0.000 A 
ATOM      4  C   UNL     1      47.466   4.237  15.838  0.00  0.00    +0.000 A 
ATOM      5  N   UNL     1      46.835   3.606  14.812  0.00  0.00    +0.000 NA
ATOM      6  C   UNL     1      46.759   4.260  13.629  0.00  0.00    +0.000 A 
ENDROOT
BRANCH   1   7
ATOM      7  C   UNL     1      47.126   6.219  12.068  0.00  0.00    +0.000 C 
BRANCH   7   9
ATOM      8  C   UNL     1      45.231   7.613  12.650  0.00  0.00    +0.000 C 
ATOM      9  N   UNL     1      45.734   6.597  11.710  0.00  0.00    +0.000 NA
BRANCH   9  10
ATOM     10  C   UNL     1      44.843   5.386  11.744  0.00  0.00    +0.000 C 
BRANCH  10  11
ATOM     11  C   UNL     1      44.986   4.492  10.503  0.00  0.00    +0.000 A 
ATOM     12  C   UNL     1      44.682   3.133  10.551  0.00  0.00    +0.000 A 
ATOM     13  C   UNL     1      44.895   2.354   9.416  0.00  0.00    +0.000 A 
ATOM     14  C   UNL     1      45.394   2.949   8.263  0.00  0.00    +0.000 A 
ATOM     15  C   UNL     1      45.664   4.305   8.292  0.00  0.00    +0.000 A 
ATOM     16  N   UNL     1      45.480   5.082   9.383  0.00  0.00    +0.000 NA
ENDBRANCH  10  11
BRANCH  10  17
ATOM     17  C   UNL     1      43.324   5.722  11.889  0.00  0.00    +0.000 C 
BRANCH  17  18
ATOM     18  O   UNL     1      42.715   6.150  10.666  0.00  0.00    +0.000 OA
ATOM     19  H   UNL     1      43.401   6.163   9.974  0.00  0.00    +0.000 HD
ENDBRANCH  17  18
ENDBRANCH  10  17
ENDBRANCH   9  10
ENDBRANCH   7   9
ENDBRANCH   1   7
BRANCH   4  20
ATOM     20  C   UNL     1      47.575   3.499  17.150  0.00  0.00    +0.000 C 
BRANCH  20  21
ATOM     21  N   UNL     1      48.949   3.259  17.526  0.00  0.00    +0.000 N 
ATOM     22  C   UNL     1      49.741   2.335  16.902  0.00  0.00    +0.000 C 
ATOM     23  O   UNL     1      49.346   1.669  15.948  0.00  0.00    +0.000 OA
ATOM     24  H   UNL     1      49.201   3.588  18.454  0.00  0.00    +0.000 HD
BRANCH  22  25
ATOM     25  C   UNL     1      51.125   2.238  17.386  0.00  0.00    +0.000 A 
ATOM     26  C   UNL     1      51.698   0.991  17.598  0.00  0.00    +0.000 A 
ATOM     27  S   UNL     1      53.332   1.062  18.082  0.00  0.00    +0.000 S 
ATOM     28  C   UNL     1      53.317   2.763  18.074  0.00  0.00    +0.000 A 
ATOM     29  N   UNL     1      54.428   3.475  18.411  0.00  0.00    +0.000 NA
ATOM     30  C   UNL     1      54.265   4.756  18.398  0.00  0.00    +0.000 A 
ATOM     31  N   UNL     1      53.093   5.390  18.076  0.00  0.00    +0.000 N 
ATOM     32  C   UNL     1      51.964   4.714  17.684  0.00  0.00    +0.000 A 
ATOM     33  O   UNL     1      50.957   5.316  17.330  0.00  0.00    +0.000 OA
ATOM     34  C   UNL     1      52.086   3.269  17.699  0.00  0.00    +0.000 A 
ATOM     35  H   UNL     1      53.029   6.397  18.073  0.00  0.00    +0.000 HD
ENDBRANCH  22  25
ENDBRANCH  20  21
ENDBRANCH   4  20
TORSDOF 9
ENDMDL
MODEL 3
REMARK VINA RESULT:    -7.012      5.159      8.363
REMARK INTER + INTRA:         -12.194
REMARK INTER:                 -10.865
REMARK INTRA:                  -1.330
REMARK UNBOUND:                -1.698
REMARK  Name = 
REMARK  10 active torsions:
REMARK  status: ('A' for Active; 'I' for Inactive)
REMARK    1  A    between atoms: C_1  and  N_2
REMARK    2  A    between atoms: N_2  and  C_3
REMARK    3  A    between atoms: N_2  and  C_24
REMARK    4  A    between atoms: C_3  and  C_4
REMARK    5  A    between atoms: C_7  and  C_8
REMARK    6  A    between atoms: C_8  and  N_9
REMARK    7  A    between atoms: C_10  and  C_12
REMARK    8  A    between atoms: C_24  and  C_25
REMARK    9  A    between atoms: C_24  and  C_27
REMARK   10  A    between atoms: C_25  and  O_26
REMARK                            x       y       z     vdW  Elec       q    Type
REMARK                         _______ _______ _______ _____ _____    ______ ____
ROOT
ATOM      1  C   UNL     1      46.417   6.593  12.689  0.00  0.00    +0.000 A 
ATOM      2  C   UNL     1      46.688   7.811  12.063  0.00  0.00    +0.000 A 
ATOM      3  C   UNL     1      48.002   8.241  11.917  0.00  0.00    +0.000 A 
ATOM      4  C   UNL     1      49.026   7.457  12.435  0.00  0.00    +0.000 A 
ATOM      5  N   UNL     1      48.791   6.264  13.045  0.00  0.00    +0.000 NA
ATOM      6  C   UNL     1      47.504   5.856  13.143  0.00  0.00    +0.000 A 
ENDROOT
BRANCH   1   7
ATOM      7  C   UNL     1      45.000   6.085  12.846  0.00  0.00    +0.000 C 
BRANCH   7   9
ATOM      8  C   UNL     1      42.940   5.899  11.585  0.00  0.00    +0.000 C 
ATOM      9  N   UNL     1      44.382   5.603  11.584  0.00  0.00    +0.000 NA
BRANCH   9  10
ATOM     10  C   UNL     1      44.598   4.122  11.433  0.00  0.00    +0.000 C 
BRANCH  10  11
ATOM     11  C   UNL     1      45.158   3.726  10.058  0.00  0.00    +0.000 A 
ATOM     12  C   UNL     1      45.596   4.688   9.150  0.00  0.00    +0.000 A 
ATOM     13  C   UNL     1      46.029   4.279   7.891  0.00  0.00    +0.000 A 
ATOM     14  C   UNL     1      46.026   2.925   7.575  0.00  0.00    +0.000 A 
ATOM     15  C   UNL     1      45.583   2.031   8.532  0.00  0.00    +0.000 A 
ATOM     16  N   UNL     1      45.144   2.401   9.756  0.00  0.00    +0.000 NA
ENDBRANCH  10  11
BRANCH  10  17
ATOM     17  C   UNL     1      43.310   3.268  11.662  0.00  0.00    +0.000 C 
BRANCH  17  18
ATOM     18  O   UNL     1      43.525   2.125  12.498  0.00  0.00    +0.000 OA
ATOM     19  H   UNL     1      44.448   1.832  12.380  0.00  0.00    +0.000 HD
ENDBRANCH  17  18
ENDBRANCH  10  17
ENDBRANCH   9  10
ENDBRANCH   7   9
ENDBRANCH   1   7
BRANCH   4  20
ATOM     20  C   UNL     1      50.461   7.902  12.299  0.00  0.00    +0.000 C 
BRANCH  20  21
ATOM     21  N   UNL     1      51.069   7.415  11.082  0.00  0.00    +0.000 N 
ATOM     22  C   UNL     1      52.309   7.809  10.661  0.00  0.00    +0.000 C 
ATOM     23  O   UNL     1      53.010   8.580  11.312  0.00  0.00    +0.000 OA
ATOM     24  H   UNL     1      50.420   7.007  10.415  0.00  0.00    +0.000 HD
BRANCH  22  25
ATOM     25  C   UNL     1      52.794   7.194   9.418  0.00  0.00    +0.000 A 
ATOM     26  C   UNL     1      53.144   5.851   9.402  0.00  0.00    +0.000 A 
ATOM     27  S   UNL     1      53.609   5.282   7.862  0.00  0.00    +0.000 S 
ATOM     28  C   UNL     1      53.407   6.824   7.172  0.00  0.00    +0.000 A 
ATOM     29  N   UNL     1      53.655   7.039   5.850  0.00  0.00    +0.000 NA
ATOM     30  C   UNL     1      53.496   8.262   5.469  0.00  0.00    +0.000 A 
ATOM     31  N   UNL     1      53.110   9.290   6.289  0.00  0.00    +0.000 N 
ATOM     32  C   UNL     1      52.803   9.111   7.615  0.00  0.00    +0.000 A 
ATOM     33  O   UNL     1      52.388  10.039   8.300  0.00  0.00    +0.000 OA
ATOM     34  C   UNL     1      52.983   7.756   8.101  0.00  0.00    +0.000 A 
ATOM     35  H   UNL     1      52.992  10.226   5.930  0.00  0.00    +0.000 HD
ENDBRANCH  22  25
ENDBRANCH  20  21
ENDBRANCH   4  20
TORSDOF 9
ENDMDL
MODEL 4
REMARK VINA RESULT:    -7.000      3.405      8.594
REMARK INTER + INTRA:         -12.177
REMARK INTER:                 -10.748
REMARK INTRA:                  -1.429
REMARK UNBOUND:                -1.698
REMARK  Name = 
REMARK  10 active torsions:
REMARK  status: ('A' for Active; 'I' for Inactive)
REMARK    1  A    between atoms: C_1  and  N_2
REMARK    2  A    between atoms: N_2  and  C_3
REMARK    3  A    between atoms: N_2  and  C_24
REMARK    4  A    between atoms: C_3  and  C_4
REMARK    5  A    between atoms: C_7  and  C_8
REMARK    6  A    between atoms: C_8  and  N_9
REMARK    7  A    between atoms: C_10  and  C_12
REMARK    8  A    between atoms: C_24  and  C_25
REMARK    9  A    between atoms: C_24  and  C_27
REMARK   10  A    between atoms: C_25  and  O_26
REMARK                            x       y       z     vdW  Elec       q    Type
REMARK                         _______ _______ _______ _____ _____    ______ ____
ROOT
ATOM      1  C   UNL     1      45.965   6.413  12.862  0.00  0.00    +0.000 A 
ATOM      2  C   UNL     1      46.134   7.738  12.453  0.00  0.00    +0.000 A 
ATOM      3  C   UNL     1      47.405   8.298  12.419  0.00  0.00    +0.000 A 
ATOM      4  C   UNL     1      48.488   7.530  12.829  0.00  0.00    +0.000 A 
ATOM      5  N   UNL     1      48.354   6.237  13.226  0.00  0.00    +0.000 NA
ATOM      6  C   UNL     1      47.107   5.708  13.219  0.00  0.00    +0.000 A 
ENDROOT
BRANCH   1   7
ATOM      7  C   UNL     1      44.598   5.765  12.891  0.00  0.00    +0.000 C 
BRANCH   7   9
ATOM      8  C   UNL     1      42.648   5.542  11.471  0.00  0.00    +0.000 C 
ATOM      9  N   UNL     1      44.101   5.327  11.561  0.00  0.00    +0.000 NA
BRANCH   9  10
ATOM     10  C   UNL     1      44.416   3.872  11.343  0.00  0.00    +0.000 C 
BRANCH  10  11
ATOM     11  C   UNL     1      45.075   3.590   9.985  0.00  0.00    +0.000 A 
ATOM     12  C   UNL     1      45.507   4.625   9.159  0.00  0.00    +0.000 A 
ATOM     13  C   UNL     1      46.034   4.315   7.908  0.00  0.00    +0.000 A 
ATOM     14  C   UNL     1      46.129   2.985   7.518  0.00  0.00    +0.000 A 
ATOM     15  C   UNL     1      45.686   2.012   8.396  0.00  0.00    +0.000 A 
ATOM     16  N   UNL     1      45.157   2.286   9.610  0.00  0.00    +0.000 NA
ENDBRANCH  10  11
BRANCH  10  17
ATOM     17  C   UNL     1      43.172   2.933  11.449  0.00  0.00    +0.000 C 
BRANCH  17  18
ATOM     18  O   UNL     1      43.398   1.777  12.264  0.00  0.00    +0.000 OA
ATOM     19  H   UNL     1      42.658   1.158  12.123  0.00  0.00    +0.000 HD
ENDBRANCH  17  18
ENDBRANCH  10  17
ENDBRANCH   9  10
ENDBRANCH   7   9
ENDBRANCH   1   7
BRANCH   4  20
ATOM     20  C   UNL     1      49.879   8.114  12.810  0.00  0.00    +0.000 C 
BRANCH  20  21
ATOM     21  N   UNL     1      50.756   7.463  13.756  0.00  0.00    +0.000 N 
ATOM     22  C   UNL     1      50.833   7.827  15.072  0.00  0.00    +0.000 C 
ATOM     23  O   UNL     1      50.130   8.714  15.550  0.00  0.00    +0.000 OA
ATOM     24  H   UNL     1      51.516   6.933  13.339  0.00  0.00    +0.000 HD
BRANCH  22  25
ATOM     25  C   UNL     1      51.751   7.041  15.907  0.00  0.00    +0.000 A 
ATOM     26  C   UNL     1      53.092   7.394  15.982  0.00  0.00    +0.000 A 
ATOM     27  S   UNL     1      53.997   6.425  17.055  0.00  0.00    +0.000 S 
ATOM     28  C   UNL     1      52.639   5.467  17.421  0.00  0.00    +0.000 A 
ATOM     29  N   UNL     1      52.730   4.424  18.292  0.00  0.00    +0.000 NA
ATOM     30  C   UNL     1      51.633   3.761  18.448  0.00  0.00    +0.000 A 
ATOM     31  N   UNL     1      50.453   4.047  17.814  0.00  0.00    +0.000 N 
ATOM     32  C   UNL     1      50.302   5.117  16.966  0.00  0.00    +0.000 A 
ATOM     33  O   UNL     1      49.212   5.388  16.476  0.00  0.00    +0.000 OA
ATOM     34  C   UNL     1      51.511   5.886  16.740  0.00  0.00    +0.000 A 
ATOM     35  H   UNL     1      49.623   3.498  17.985  0.00  0.00    +0.000 HD
ENDBRANCH  22  25
ENDBRANCH  20  21
ENDBRANCH   4  20
TORSDOF 9
ENDMDL
MODEL 5
REMARK VINA RESULT:    -6.937      3.279      8.989
REMARK INTER + INTRA:         -12.082
REMARK INTER:                 -11.176
REMARK INTRA:                  -0.906
REMARK UNBOUND:                -1.698
REMARK  Name = 
REMARK  10 active torsions:
REMARK  status: ('A' for Active; 'I' for Inactive)
REMARK    1  A    between atoms: C_1  and  N_2
REMARK    2  A    between atoms: N_2  and  C_3
REMARK    3  A    between atoms: N_2  and  C_24
REMARK    4  A    between atoms: C_3  and  C_4
REMARK    5  A    between atoms: C_7  and  C_8
REMARK    6  A    between atoms: C_8  and  N_9
REMARK    7  A    between atoms: C_10  and  C_12
REMARK    8  A    between atoms: C_24  and  C_25
REMARK    9  A    between atoms: C_24  and  C_27
REMARK   10  A    between atoms: C_25  and  O_26
REMARK                            x       y       z     vdW  Elec       q    Type
REMARK                         _______ _______ _______ _____ _____    ______ ____
ROOT
ATOM      1  C   UNL     1      46.771   4.851  13.752  0.00  0.00    +0.000 A 
ATOM      2  C   UNL     1      46.902   4.383  15.061  0.00  0.00    +0.000 A 
ATOM      3  C   UNL     1      47.805   4.987  15.928  0.00  0.00    +0.000 A 
ATOM      4  C   UNL     1      48.592   6.031  15.457  0.00  0.00    +0.000 A 
ATOM      5  N   UNL     1      48.482   6.510  14.189  0.00  0.00    +0.000 NA
ATOM      6  C   UNL     1      47.570   5.924  13.377  0.00  0.00    +0.000 A 
ENDROOT
BRANCH   1   7
ATOM      7  C   UNL     1      45.783   4.231  12.788  0.00  0.00    +0.000 C 
BRANCH   7   9
ATOM      8  C   UNL     1      43.436   3.768  13.174  0.00  0.00    +0.000 C 
ATOM      9  N   UNL     1      44.418   4.816  12.853  0.00  0.00    +0.000 NA
BRANCH   9  10
ATOM     10  C   UNL     1      44.066   5.458  11.539  0.00  0.00    +0.000 C 
BRANCH  10  11
ATOM     11  C   UNL     1      44.625   4.703  10.324  0.00  0.00    +0.000 A 
ATOM     12  C   UNL     1      45.588   5.275   9.496  0.00  0.00    +0.000 A 
ATOM     13  C   UNL     1      46.009   4.575   8.367  0.00  0.00    +0.000 A 
ATOM     14  C   UNL     1      45.471   3.322   8.101  0.00  0.00    +0.000 A 
ATOM     15  C   UNL     1      44.524   2.818   8.975  0.00  0.00    +0.000 A 
ATOM     16  N   UNL     1      44.087   3.481  10.069  0.00  0.00    +0.000 NA
ENDBRANCH  10  11
BRANCH  10  17
ATOM     17  C   UNL     1      44.543   6.940  11.411  0.00  0.00    +0.000 C 
BRANCH  17  18
ATOM     18  O   UNL     1      43.488   7.852  11.081  0.00  0.00    +0.000 OA
ATOM     19  H   UNL     1      43.189   8.281  11.904  0.00  0.00    +0.000 HD
ENDBRANCH  17  18
ENDBRANCH  10  17
ENDBRANCH   9  10
ENDBRANCH   7   9
ENDBRANCH   1   7
BRANCH   4  20
ATOM     20  C   UNL     1      49.587   6.700  16.372  0.00  0.00    +0.000 C 
BRANCH  20  21
ATOM     21  N   UNL     1      50.603   5.784  16.836  0.00  0.00    +0.000 N 
ATOM     22  C   UNL     1      50.779   5.474  18.156  0.00  0.00    +0.000 C 
ATOM     23  O   UNL     1      50.056   5.930  19.040  0.00  0.00    +0.000 OA
ATOM     24  H   UNL     1      51.358   5.616  16.178  0.00  0.00    +0.000 HD
BRANCH  22  25
ATOM     25  C   UNL     1      51.836   4.498  18.456  0.00  0.00    +0.000 A 
ATOM     26  C   UNL     1      52.945   4.885  19.196  0.00  0.00    +0.000 A 
ATOM     27  S   UNL     1      54.032   3.611  19.518  0.00  0.00    +0.000 S 
ATOM     28  C   UNL     1      53.084   2.507  18.636  0.00  0.00    +0.000 A 
ATOM     29  N   UNL     1      53.464   1.206  18.505  0.00  0.00    +0.000 NA
ATOM     30  C   UNL     1      52.670   0.490  17.780  0.00  0.00    +0.000 A 
ATOM     31  N   UNL     1      51.532   0.955  17.176  0.00  0.00    +0.000 N 
ATOM     32  C   UNL     1      51.086   2.246  17.321  0.00  0.00    +0.000 A 
ATOM     33  O   UNL     1      50.023   2.608  16.829  0.00  0.00    +0.000 OA
ATOM     34  C   UNL     1      51.951   3.101  18.112  0.00  0.00    +0.000 A 
ATOM     35  H   UNL     1      50.945   0.343  16.629  0.00  0.00    +0.000 HD
ENDBRANCH  22  25
ENDBRANCH  20  21
ENDBRANCH   4  20
TORSDOF 9
ENDMDL
MODEL 6
REMARK VINA RESULT:    -6.896      1.369      2.089
REMARK INTER + INTRA:         -12.021
REMARK INTER:                 -10.300
REMARK INTRA:                  -1.720
REMARK UNBOUND:                -1.698
REMARK  Name = 
REMARK  10 active torsions:
REMARK  status: ('A' for Active; 'I' for Inactive)
REMARK    1  A    between atoms: C_1  and  N_2
REMARK    2  A    between atoms: N_2  and  C_3
REMARK    3  A    between atoms: N_2  and  C_24
REMARK    4  A    between atoms: C_3  and  C_4
REMARK    5  A    between atoms: C_7  and  C_8
REMARK    6  A    between atoms: C_8  and  N_9
REMARK    7  A    between atoms: C_10  and  C_12
REMARK    8  A    between atoms: C_24  and  C_25
REMARK    9  A    between atoms: C_24  and  C_27
REMARK   10  A    between atoms: C_25  and  O_26
REMARK                            x       y       z     vdW  Elec       q    Type
REMARK                         _______ _______ _______ _____ _____    ______ ____
ROOT
ATOM      1  C   UNL     1      48.885   7.683  16.421  0.00  0.00    +0.000 A 
ATOM      2  C   UNL     1      49.091   6.633  15.524  0.00  0.00    +0.000 A 
ATOM      3  C   UNL     1      48.791   6.801  14.177  0.00  0.00    +0.000 A 
ATOM      4  C   UNL     1      48.255   8.012  13.755  0.00  0.00    +0.000 A 
ATOM      5  N   UNL     1      48.050   9.052  14.606  0.00  0.00    +0.000 NA
ATOM      6  C   UNL     1      48.382   8.871  15.906  0.00  0.00    +0.000 A 
ENDROOT
BRANCH   1   7
ATOM      7  C   UNL     1      49.221   7.542  17.891  0.00  0.00    +0.000 C 
BRANCH   7   9
ATOM      8  C   UNL     1      47.618   7.474  19.707  0.00  0.00    +0.000 C 
ATOM      9  N   UNL     1      48.276   6.685  18.653  0.00  0.00    +0.000 NA
BRANCH   9  10
ATOM     10  C   UNL     1      49.009   5.525  19.268  0.00  0.00    +0.000 C 
BRANCH  10  11
ATOM     11  C   UNL     1      49.084   4.296  18.349  0.00  0.00    +0.000 A 
ATOM     12  C   UNL     1      50.302   3.695  18.040  0.00  0.00    +0.000 A 
ATOM     13  C   UNL     1      50.321   2.627  17.146  0.00  0.00    +0.000 A 
ATOM     14  C   UNL     1      49.127   2.179  16.594  0.00  0.00    +0.000 A 
ATOM     15  C   UNL     1      47.957   2.822  16.954  0.00  0.00    +0.000 A 
ATOM     16  N   UNL     1      47.912   3.870  17.808  0.00  0.00    +0.000 NA
ENDBRANCH  10  11
BRANCH  10  17
ATOM     17  C   UNL     1      48.404   5.041  20.624  0.00  0.00    +0.000 C 
BRANCH  17  18
ATOM     18  O   UNL     1      48.318   3.615  20.734  0.00  0.00    +0.000 OA
ATOM     19  H   UNL     1      48.305   3.384  21.681  0.00  0.00    +0.000 HD
ENDBRANCH  17  18
ENDBRANCH  10  17
ENDBRANCH   9  10
ENDBRANCH   7   9
ENDBRANCH   1   7
BRANCH   4  20
ATOM     20  C   UNL     1      47.912   8.220  12.301  0.00  0.00    +0.000 C 
BRANCH  20  21
ATOM     21  N   UNL     1      47.262   7.067  11.724  0.00  0.00    +0.000 N 
ATOM     22  C   UNL     1      45.933   7.047  11.399  0.00  0.00    +0.000 C 
ATOM     23  O   UNL     1      45.207   8.027  11.542  0.00  0.00    +0.000 OA
ATOM     24  H   UNL     1      47.759   6.190  11.848  0.00  0.00    +0.000 HD
BRANCH  22  25
ATOM     25  C   UNL     1      45.436   5.805  10.790  0.00  0.00    +0.000 A 
ATOM     26  C   UNL     1      45.674   5.550   9.446  0.00  0.00    +0.000 A 
ATOM     27  S   UNL     1      45.099   4.031   8.924  0.00  0.00    +0.000 S 
ATOM     28  C   UNL     1      44.466   3.681  10.465  0.00  0.00    +0.000 A 
ATOM     29  N   UNL     1      43.818   2.509  10.706  0.00  0.00    +0.000 NA
ATOM     30  C   UNL     1      43.358   2.391  11.907  0.00  0.00    +0.000 A 
ATOM     31  N   UNL     1      43.489   3.338  12.889  0.00  0.00    +0.000 N 
ATOM     32  C   UNL     1      44.176   4.512  12.705  0.00  0.00    +0.000 A 
ATOM     33  O   UNL     1      44.339   5.302  13.627  0.00  0.00    +0.000 OA
ATOM     34  C   UNL     1      44.699   4.704  11.365  0.00  0.00    +0.000 A 
ATOM     35  H   UNL     1      43.117   3.183  13.814  0.00  0.00    +0.000 HD
ENDBRANCH  22  25
ENDBRANCH  20  21
ENDBRANCH   4  20
TORSDOF 9
ENDMDL
MODEL 7
REMARK VINA RESULT:    -6.262      1.970      2.381
REMARK INTER + INTRA:         -11.072
REMARK INTER:                  -9.266
REMARK INTRA:                  -1.806
REMARK UNBOUND:                -1.698
REMARK  Name = 
REMARK  10 active torsions:
REMARK  status: ('A' for Active; 'I' for Inactive)
REMARK    1  A    between atoms: C_1  and  N_2
REMARK    2  A    between atoms: N_2  and  C_3
REMARK    3  A    between atoms: N_2  and  C_24
REMARK    4  A    between atoms: C_3  and  C_4
REMARK    5  A    between atoms: C_7  and  C_8
REMARK    6  A    between atoms: C_8  and  N_9
REMARK    7  A    between atoms: C_10  and  C_12
REMARK    8  A    between atoms: C_24  and  C_25
REMARK    9  A    between atoms: C_24  and  C_27
REMARK   10  A    between atoms: C_25  and  O_26
REMARK                            x       y       z     vdW  Elec       q    Type
REMARK                         _______ _______ _______ _____ _____    ______ ____
ROOT
ATOM      1  C   UNL     1      49.864   7.592  17.024  0.00  0.00    +0.000 A 
ATOM      2  C   UNL     1      48.755   8.435  17.130  0.00  0.00    +0.000 A 
ATOM      3  C   UNL     1      48.143   8.925  15.982  0.00  0.00    +0.000 A 
ATOM      4  C   UNL     1      48.676   8.590  14.743  0.00  0.00    +0.000 A 
ATOM      5  N   UNL     1      49.750   7.767  14.611  0.00  0.00    +0.000 NA
ATOM      6  C   UNL     1      50.305   7.279  15.745  0.00  0.00    +0.000 A 
ENDROOT
BRANCH   1   7
ATOM      7  C   UNL     1      50.542   7.022  18.252  0.00  0.00    +0.000 C 
BRANCH   7   9
ATOM      8  C   UNL     1      50.022   7.312  20.601  0.00  0.00    +0.000 C 
ATOM      9  N   UNL     1      49.609   6.656  19.349  0.00  0.00    +0.000 NA
BRANCH   9  10
ATOM     10  C   UNL     1      49.592   5.164  19.538  0.00  0.00    +0.000 C 
BRANCH  10  11
ATOM     11  C   UNL     1      48.979   4.407  18.350  0.00  0.00    +0.000 A 
ATOM     12  C   UNL     1      47.760   4.792  17.796  0.00  0.00    +0.000 A 
ATOM     13  C   UNL     1      47.216   4.030  16.766  0.00  0.00    +0.000 A 
ATOM     14  C   UNL     1      47.905   2.913  16.306  0.00  0.00    +0.000 A 
ATOM     15  C   UNL     1      49.113   2.600  16.900  0.00  0.00    +0.000 A 
ATOM     16  N   UNL     1      49.657   3.314  17.912  0.00  0.00    +0.000 NA
ENDBRANCH  10  11
BRANCH  10  17
ATOM     17  C   UNL     1      48.827   4.696  20.817  0.00  0.00    +0.000 C 
BRANCH  17  18
ATOM     18  O   UNL     1      48.279   3.378  20.704  0.00  0.00    +0.000 OA
ATOM     19  H   UNL     1      48.863   2.855  20.124  0.00  0.00    +0.000 HD
ENDBRANCH  17  18
ENDBRANCH  10  17
ENDBRANCH   9  10
ENDBRANCH   7   9
ENDBRANCH   1   7
BRANCH   4  20
ATOM     20  C   UNL     1      48.038   9.114  13.480  0.00  0.00    +0.000 C 
BRANCH  20  21
ATOM     21  N   UNL     1      46.848   8.376  13.124  0.00  0.00    +0.000 N 
ATOM     22  C   UNL     1      46.841   7.386  12.181  0.00  0.00    +0.000 C 
ATOM     23  O   UNL     1      47.860   7.029  11.596  0.00  0.00    +0.000 OA
ATOM     24  H   UNL     1      45.974   8.824  13.386  0.00  0.00    +0.000 HD
BRANCH  22  25
ATOM     25  C   UNL     1      45.554   6.712  11.962  0.00  0.00    +0.000 A 
ATOM     26  C   UNL     1      44.484   7.420  11.432  0.00  0.00    +0.000 A 
ATOM     27  S   UNL     1      43.093   6.467  11.170  0.00  0.00    +0.000 S 
ATOM     28  C   UNL     1      43.856   5.084  11.804  0.00  0.00    +0.000 A 
ATOM     29  N   UNL     1      43.199   3.894  11.880  0.00  0.00    +0.000 NA
ATOM     30  C   UNL     1      43.885   2.939  12.415  0.00  0.00    +0.000 A 
ATOM     31  N   UNL     1      45.168   3.066  12.878  0.00  0.00    +0.000 N 
ATOM     32  C   UNL     1      45.885   4.232  12.778  0.00  0.00    +0.000 A 
ATOM     33  O   UNL     1      47.056   4.288  13.134  0.00  0.00    +0.000 OA
ATOM     34  C   UNL     1      45.155   5.345  12.200  0.00  0.00    +0.000 A 
ATOM     35  H   UNL     1      45.657   2.278  13.278  0.00  0.00    +0.000 HD
ENDBRANCH  22  25
ENDBRANCH  20  21
ENDBRANCH   4  20
TORSDOF 9
ENDMDL
MODEL 8
REMARK VINA RESULT:    -6.002      2.802      8.059
REMARK INTER + INTRA:         -10.683
REMARK INTER:                 -10.248
REMARK INTRA:                  -0.435
REMARK UNBOUND:                -1.698
REMARK  Name = 
REMARK  10 active torsions:
REMARK  status: ('A' for Active; 'I' for Inactive)
REMARK    1  A    between atoms: C_1  and  N_2
REMARK    2  A    between atoms: N_2  and  C_3
REMARK    3  A    between atoms: N_2  and  C_24
REMARK    4  A    between atoms: C_3  and  C_4
REMARK    5  A    between atoms: C_7  and  C_8
REMARK    6  A    between atoms: C_8  and  N_9
REMARK    7  A    between atoms: C_10  and  C_12
REMARK    8  A    between atoms: C_24  and  C_25
REMARK    9  A    between atoms: C_24  and  C_27
REMARK   10  A    between atoms: C_25  and  O_26
REMARK                            x       y       z     vdW  Elec       q    Type
REMARK                         _______ _______ _______ _____ _____    ______ ____
ROOT
ATOM      1  C   UNL     1      45.094   7.302  11.764  0.00  0.00    +0.000 A 
ATOM      2  C   UNL     1      44.926   8.553  12.360  0.00  0.00    +0.000 A 
ATOM      3  C   UNL     1      45.943   9.095  13.137  0.00  0.00    +0.000 A 
ATOM      4  C   UNL     1      47.103   8.356  13.335  0.00  0.00    +0.000 A 
ATOM      5  N   UNL     1      47.296   7.138  12.762  0.00  0.00    +0.000 NA
ATOM      6  C   UNL     1      46.301   6.649  11.984  0.00  0.00    +0.000 A 
ENDROOT
BRANCH   1   7
ATOM      7  C   UNL     1      44.017   6.691  10.894  0.00  0.00    +0.000 C 
BRANCH   7   9
ATOM      8  C   UNL     1      42.904   5.433  12.640  0.00  0.00    +0.000 C 
ATOM      9  N   UNL     1      43.571   5.342  11.331  0.00  0.00    +0.000 NA
BRANCH   9  10
ATOM     10  C   UNL     1      44.749   4.412  11.423  0.00  0.00    +0.000 C 
BRANCH  10  11
ATOM     11  C   UNL     1      45.165   3.821  10.067  0.00  0.00    +0.000 A 
ATOM     12  C   UNL     1      45.615   4.634   9.030  0.00  0.00    +0.000 A 
ATOM     13  C   UNL     1      45.912   4.055   7.799  0.00  0.00    +0.000 A 
ATOM     14  C   UNL     1      45.765   2.682   7.637  0.00  0.00    +0.000 A 
ATOM     15  C   UNL     1      45.320   1.941   8.716  0.00  0.00    +0.000 A 
ATOM     16  N   UNL     1      45.011   2.479   9.917  0.00  0.00    +0.000 NA
ENDBRANCH  10  11
BRANCH  10  17
ATOM     17  C   UNL     1      44.531   3.208  12.395  0.00  0.00    +0.000 C 
BRANCH  17  18
ATOM     18  O   UNL     1      45.752   2.644  12.887  0.00  0.00    +0.000 OA
ATOM     19  H   UNL     1      45.631   1.680  12.965  0.00  0.00    +0.000 HD
ENDBRANCH  17  18
ENDBRANCH  10  17
ENDBRANCH   9  10
ENDBRANCH   7   9
ENDBRANCH   1   7
BRANCH   4  20
ATOM     20  C   UNL     1      48.221   8.915  14.181  0.00  0.00    +0.000 C 
BRANCH  20  21
ATOM     21  N   UNL     1      48.330   8.240  15.453  0.00  0.00    +0.000 N 
ATOM     22  C   UNL     1      49.230   7.237  15.688  0.00  0.00    +0.000 C 
ATOM     23  O   UNL     1      50.036   6.866  14.839  0.00  0.00    +0.000 OA
ATOM     24  H   UNL     1      47.520   8.337  16.059  0.00  0.00    +0.000 HD
BRANCH  22  25
ATOM     25  C   UNL     1      49.233   6.678  17.047  0.00  0.00    +0.000 A 
ATOM     26  C   UNL     1      49.673   7.453  18.112  0.00  0.00    +0.000 A 
ATOM     27  S   UNL     1      49.536   6.679  19.626  0.00  0.00    +0.000 S 
ATOM     28  C   UNL     1      48.930   5.261  18.906  0.00  0.00    +0.000 A 
ATOM     29  N   UNL     1      48.608   4.175  19.661  0.00  0.00    +0.000 NA
ATOM     30  C   UNL     1      48.195   3.157  18.982  0.00  0.00    +0.000 A 
ATOM     31  N   UNL     1      48.074   3.127  17.617  0.00  0.00    +0.000 N 
ATOM     32  C   UNL     1      48.340   4.214  16.821  0.00  0.00    +0.000 A 
ATOM     33  O   UNL     1      48.148   4.175  15.612  0.00  0.00    +0.000 OA
ATOM     34  C   UNL     1      48.826   5.381  17.533  0.00  0.00    +0.000 A 
ATOM     35  H   UNL     1      47.734   2.304  17.142  0.00  0.00    +0.000 HD
ENDBRANCH  22  25
ENDBRANCH  20  21
ENDBRANCH   4  20
TORSDOF 9
ENDMDL
MODEL 9
REMARK VINA RESULT:    -5.781      4.997      6.924
REMARK INTER + INTRA:         -10.351
REMARK INTER:                  -9.224
REMARK INTRA:                  -1.127
REMARK UNBOUND:                -1.698
REMARK  Name = 
REMARK  10 active torsions:
REMARK  status: ('A' for Active; 'I' for Inactive)
REMARK    1  A    between atoms: C_1  and  N_2
REMARK    2  A    between atoms: N_2  and  C_3
REMARK    3  A    between atoms: N_2  and  C_24
REMARK    4  A    between atoms: C_3  and  C_4
REMARK    5  A    between atoms: C_7  and  C_8
REMARK    6  A    between atoms: C_8  and  N_9
REMARK    7  A    between atoms: C_10  and  C_12
REMARK    8  A    between atoms: C_24  and  C_25
REMARK    9  A    between atoms: C_24  and  C_27
REMARK   10  A    between atoms: C_25  and  O_26
REMARK                            x       y       z     vdW  Elec       q    Type
REMARK                         _______ _______ _______ _____ _____    ______ ____
ROOT
ATOM      1  C   UNL     1      50.742   8.728  11.396  0.00  0.00    +0.000 A 
ATOM      2  C   UNL     1      50.141   7.471  11.479  0.00  0.00    +0.000 A 
ATOM      3  C   UNL     1      48.808   7.361  11.854  0.00  0.00    +0.000 A 
ATOM      4  C   UNL     1      48.104   8.516  12.176  0.00  0.00    +0.000 A 
ATOM      5  N   UNL     1      48.662   9.753  12.098  0.00  0.00    +0.000 NA
ATOM      6  C   UNL     1      49.954   9.831  11.699  0.00  0.00    +0.000 A 
ENDROOT
BRANCH   1   7
ATOM      7  C   UNL     1      52.186   8.886  10.970  0.00  0.00    +0.000 C 
BRANCH   7   9
ATOM      8  C   UNL     1      53.698   8.223  12.744  0.00  0.00    +0.000 C 
ATOM      9  N   UNL     1      53.089   7.816  11.467  0.00  0.00    +0.000 NA
BRANCH   9  10
ATOM     10  C   UNL     1      54.167   7.536  10.456  0.00  0.00    +0.000 C 
BRANCH  10  11
ATOM     11  C   UNL     1      53.691   7.684   9.003  0.00  0.00    +0.000 A 
ATOM     12  C   UNL     1      54.066   8.778   8.226  0.00  0.00    +0.000 A 
ATOM     13  C   UNL     1      53.549   8.899   6.938  0.00  0.00    +0.000 A 
ATOM     14  C   UNL     1      52.685   7.924   6.455  0.00  0.00    +0.000 A 
ATOM     15  C   UNL     1      52.366   6.864   7.283  0.00  0.00    +0.000 A 
ATOM     16  N   UNL     1      52.841   6.729   8.542  0.00  0.00    +0.000 NA
ENDBRANCH  10  11
BRANCH  10  17
ATOM     17  C   UNL     1      54.800   6.114  10.583  0.00  0.00    +0.000 C 
BRANCH  17  18
ATOM     18  O   UNL     1      53.831   5.064  10.679  0.00  0.00    +0.000 OA
ATOM     19  H   UNL     1      54.233   4.324  11.172  0.00  0.00    +0.000 HD
ENDBRANCH  17  18
ENDBRANCH  10  17
ENDBRANCH   9  10
ENDBRANCH   7   9
ENDBRANCH   1   7
BRANCH   4  20
ATOM     20  C   UNL     1      46.657   8.427  12.594  0.00  0.00    +0.000 C 
BRANCH  20  21
ATOM     21  N   UNL     1      46.116   7.101  12.406  0.00  0.00    +0.000 N 
ATOM     22  C   UNL     1      44.975   6.858  11.692  0.00  0.00    +0.000 C 
ATOM     23  O   UNL     1      44.349   7.752  11.129  0.00  0.00    +0.000 OA
ATOM     24  H   UNL     1      46.450   6.406  13.067  0.00  0.00    +0.000 HD
BRANCH  22  25
ATOM     25  C   UNL     1      44.579   5.448  11.569  0.00  0.00    +0.000 A 
ATOM     26  C   UNL     1      43.892   4.830  12.605  0.00  0.00    +0.000 A 
ATOM     27  S   UNL     1      43.441   3.220  12.264  0.00  0.00    +0.000 S 
ATOM     28  C   UNL     1      44.193   3.276  10.738  0.00  0.00    +0.000 A 
ATOM     29  N   UNL     1      44.185   2.193   9.912  0.00  0.00    +0.000 NA
ATOM     30  C   UNL     1      44.823   2.364   8.803  0.00  0.00    +0.000 A 
ATOM     31  N   UNL     1      45.466   3.519   8.443  0.00  0.00    +0.000 N 
ATOM     32  C   UNL     1      45.459   4.650   9.221  0.00  0.00    +0.000 A 
ATOM     33  O   UNL     1      45.980   5.689   8.833  0.00  0.00    +0.000 OA
ATOM     34  C   UNL     1      44.770   4.508  10.490  0.00  0.00    +0.000 A 
ATOM     35  H   UNL     1      45.940   3.596   7.555  0.00  0.00    +0.000 HD
ENDBRANCH  22  25
ENDBRANCH  20  21
ENDBRANCH   4  20
TORSDOF 9
ENDMDL
