MODEL 1
REMARK VINA RESULT:    -8.904      0.000      0.000
REMARK INTER + INTRA:         -13.466
REMARK INTER:                 -12.548
REMARK INTRA:                  -0.918
REMARK UNBOUND:                -0.918
REMARK  Name = 
REMARK  7 active torsions:
REMARK  status: ('A' for Active; 'I' for Inactive)
REMARK    1  A    between atoms: C_2  and  C_4
REMARK    2  A    between atoms: C_7  and  N_8
REMARK    3  A    between atoms: N_8  and  C_9
REMARK    4  A    between atoms: C_9  and  C_10
REMARK    5  A    between atoms: C_10  and  C_13
REMARK    6  A    between atoms: C_17  and  N_18
REMARK    7  A    between atoms: N_18  and  C_19
REMARK                            x       y       z     vdW  Elec       q    Type
REMARK                         _______ _______ _______ _____ _____    ______ ____
ROOT
ATOM      1  C   UNL     1      43.430   5.503  12.253  0.00  0.00    +0.000 C 
ATOM      2  F   UNL     1      43.027   6.725  11.790  0.00  0.00    +0.000 F 
ATOM      3  F   UNL     1      42.616   5.237  13.318  0.00  0.00    +0.000 F 
ENDROOT
BRANCH   1   4
ATOM      4  C   UNL     1      44.899   5.475  12.624  0.00  0.00    +0.000 A 
ATOM      5  C   UNL     1      45.759   6.484  12.176  0.00  0.00    +0.000 A 
ATOM      6  C   UNL     1      47.071   6.535  12.633  0.00  0.00    +0.000 A 
ATOM      7  C   UNL     1      47.542   5.574  13.536  0.00  0.00    +0.000 A 
ATOM      8  C   UNL     1      46.715   4.539  13.981  0.00  0.00    +0.000 A 
ATOM      9  C   UNL     1      45.393   4.503  13.514  0.00  0.00    +0.000 A 
BRANCH   8  10
ATOM     10  N   UNL     1      47.122   3.608  14.959  0.00  0.00    +0.000 N 
ATOM     11  H   UNL     1      47.236   2.669  14.582  0.00  0.00    +0.000 HD
BRANCH  10  12
ATOM     12  C   UNL     1      47.943   3.864  16.104  0.00  0.00    +0.000 C 
ATOM     13  C   UNL     1      48.531   2.578  16.732  0.00  0.00    +0.000 C 
ATOM     14  C   UNL     1      48.176   3.171  18.112  0.00  0.00    +0.000 C 
ATOM     15  C   UNL     1      47.102   4.016  17.398  0.00  0.00    +0.000 C 
ENDBRANCH  10  12
ENDBRANCH   8  10
ENDBRANCH   1   4
BRANCH   1  16
ATOM     16  C   UNL     1      43.174   4.451  11.141  0.00  0.00    +0.000 C 
BRANCH  16  17
ATOM     17  N   UNL     1      43.753   4.805   9.835  0.00  0.00    +0.000 N 
ATOM     18  H   UNL     1      43.973   5.791   9.706  0.00  0.00    +0.000 HD
BRANCH  17  22
ATOM     19  C   UNL     1      46.191   2.010   7.969  0.00  0.00    +0.000 A 
ATOM     20  C   UNL     1      46.306   3.331   7.567  0.00  0.00    +0.000 A 
ATOM     21  C   UNL     1      45.467   4.278   8.157  0.00  0.00    +0.000 A 
ATOM     22  C   UNL     1      44.524   3.900   9.116  0.00  0.00    +0.000 A 
ATOM     23  C   UNL     1      44.501   2.537   9.439  0.00  0.00    +0.000 A 
ATOM     24  N   UNL     1      45.293   1.579   8.892  0.00  0.00    +0.000 NA
BRANCH  19  26
ATOM     25  N   UNL     1      46.787  -0.319   7.653  0.00  0.00    +0.000 N 
ATOM     26  C   UNL     1      47.112   0.982   7.387  0.00  0.00    +0.000 C 
ATOM     27  O   UNL     1      48.096   1.278   6.717  0.00  0.00    +0.000 OA
ATOM     28  H   UNL     1      47.369  -1.062   7.294  0.00  0.00    +0.000 HD
ATOM     29  H   UNL     1      45.960  -0.526   8.201  0.00  0.00    +0.000 HD
ENDBRANCH  19  26
ENDBRANCH  17  22
ENDBRANCH  16  17
ENDBRANCH   1  16
TORSDOF 7
ENDMDL
MODEL 2
REMARK VINA RESULT:    -7.894      2.159      3.780
REMARK INTER + INTRA:         -12.043
REMARK INTER:                 -11.080
REMARK INTRA:                  -0.963
REMARK UNBOUND:                -0.918
REMARK  Name = 
REMARK  7 active torsions:
REMARK  status: ('A' for Active; 'I' for Inactive)
REMARK    1  A    between atoms: C_2  and  C_4
REMARK    2  A    between atoms: C_7  and  N_8
REMARK    3  A    between atoms: N_8  and  C_9
REMARK    4  A    between atoms: C_9  and  C_10
REMARK    5  A    between atoms: C_10  and  C_13
REMARK    6  A    between atoms: C_17  and  N_18
REMARK    7  A    between atoms: N_18  and  C_19
REMARK                            x       y       z     vdW  Elec       q    Type
REMARK                         _______ _______ _______ _____ _____    ______ ____
ROOT
ATOM      1  C   UNL     1      43.922   4.998  12.458  0.00  0.00    +0.000 C 
ATOM      2  F   UNL     1      42.826   5.437  13.149  0.00  0.00    +0.000 F 
ATOM      3  F   UNL     1      43.797   3.639  12.414  0.00  0.00    +0.000 F 
ENDROOT
BRANCH   1   4
ATOM      4  C   UNL     1      45.227   5.441  13.090  0.00  0.00    +0.000 A 
ATOM      5  C   UNL     1      45.949   4.562  13.905  0.00  0.00    +0.000 A 
ATOM      6  C   UNL     1      47.211   4.918  14.367  0.00  0.00    +0.000 A 
ATOM      7  C   UNL     1      47.763   6.160  14.027  0.00  0.00    +0.000 A 
ATOM      8  C   UNL     1      47.054   7.069  13.236  0.00  0.00    +0.000 A 
ATOM      9  C   UNL     1      45.784   6.694  12.775  0.00  0.00    +0.000 A 
BRANCH   8  10
ATOM     10  N   UNL     1      47.612   8.288  12.796  0.00  0.00    +0.000 N 
ATOM     11  H   UNL     1      47.008   9.085  12.986  0.00  0.00    +0.000 HD
BRANCH  10  12
ATOM     12  C   UNL     1      49.001   8.628  12.736  0.00  0.00    +0.000 C 
ATOM     13  C   UNL     1      49.281   9.902  11.903  0.00  0.00    +0.000 C 
ATOM     14  C   UNL     1      50.475   9.150  11.278  0.00  0.00    +0.000 C 
ATOM     15  C   UNL     1      49.744   7.838  11.628  0.00  0.00    +0.000 C 
ENDBRANCH  10  12
ENDBRANCH   8  10
ENDBRANCH   1   4
BRANCH   1  16
ATOM     16  C   UNL     1      43.847   5.564  11.014  0.00  0.00    +0.000 C 
BRANCH  16  17
ATOM     17  N   UNL     1      43.541   4.553   9.989  0.00  0.00    +0.000 N 
ATOM     18  H   UNL     1      42.686   4.710   9.461  0.00  0.00    +0.000 HD
BRANCH  17  22
ATOM     19  C   UNL     1      46.424   2.556   7.764  0.00  0.00    +0.000 A 
ATOM     20  C   UNL     1      45.671   1.810   8.657  0.00  0.00    +0.000 A 
ATOM     21  C   UNL     1      44.724   2.471   9.440  0.00  0.00    +0.000 A 
ATOM     22  C   UNL     1      44.551   3.854   9.338  0.00  0.00    +0.000 A 
ATOM     23  C   UNL     1      45.370   4.500   8.403  0.00  0.00    +0.000 A 
ATOM     24  N   UNL     1      46.307   3.902   7.622  0.00  0.00    +0.000 NA
BRANCH  19  26
ATOM     25  N   UNL     1      48.496   2.611   6.508  0.00  0.00    +0.000 N 
ATOM     26  C   UNL     1      47.413   1.865   6.878  0.00  0.00    +0.000 C 
ATOM     27  O   UNL     1      47.268   0.706   6.502  0.00  0.00    +0.000 OA
ATOM     28  H   UNL     1      49.200   2.207   5.906  0.00  0.00    +0.000 HD
ATOM     29  H   UNL     1      48.588   3.562   6.846  0.00  0.00    +0.000 HD
ENDBRANCH  19  26
ENDBRANCH  17  22
ENDBRANCH  16  17
ENDBRANCH   1  16
TORSDOF 7
ENDMDL
MODEL 3
REMARK VINA RESULT:    -7.786      2.773      3.472
REMARK INTER + INTRA:         -11.890
REMARK INTER:                 -10.710
REMARK INTRA:                  -1.181
REMARK UNBOUND:                -0.918
REMARK  Name = 
REMARK  7 active torsions:
REMARK  status: ('A' for Active; 'I' for Inactive)
REMARK    1  A    between atoms: C_2  and  C_4
REMARK    2  A    between atoms: C_7  and  N_8
REMARK    3  A    between atoms: N_8  and  C_9
REMARK    4  A    between atoms: C_9  and  C_10
REMARK    5  A    between atoms: C_10  and  C_13
REMARK    6  A    between atoms: C_17  and  N_18
REMARK    7  A    between atoms: N_18  and  C_19
REMARK                            x       y       z     vdW  Elec       q    Type
REMARK                         _______ _______ _______ _____ _____    ______ ____
ROOT
ATOM      1  C   UNL     1      44.283   4.025  12.478  0.00  0.00    +0.000 C 
ATOM      2  F   UNL     1      43.549   3.851  13.619  0.00  0.00    +0.000 F 
ATOM      3  F   UNL     1      45.354   3.188  12.611  0.00  0.00    +0.000 F 
ENDROOT
BRANCH   1   4
ATOM      4  C   UNL     1      44.697   5.468  12.265  0.00  0.00    +0.000 A 
ATOM      5  C   UNL     1      43.936   6.305  11.440  0.00  0.00    +0.000 A 
ATOM      6  C   UNL     1      44.234   7.660  11.359  0.00  0.00    +0.000 A 
ATOM      7  C   UNL     1      45.302   8.193  12.092  0.00  0.00    +0.000 A 
ATOM      8  C   UNL     1      46.096   7.377  12.903  0.00  0.00    +0.000 A 
ATOM      9  C   UNL     1      45.781   6.013  12.978  0.00  0.00    +0.000 A 
BRANCH   8  10
ATOM     10  N   UNL     1      47.120   7.891  13.726  0.00  0.00    +0.000 N 
ATOM     11  H   UNL     1      47.137   7.454  14.646  0.00  0.00    +0.000 HD
BRANCH  10  12
ATOM     12  C   UNL     1      48.396   8.387  13.308  0.00  0.00    +0.000 C 
ATOM     13  C   UNL     1      48.716   8.072  11.827  0.00  0.00    +0.000 C 
ATOM     14  C   UNL     1      50.141   7.696  12.284  0.00  0.00    +0.000 C 
ATOM     15  C   UNL     1      49.545   7.414  13.679  0.00  0.00    +0.000 C 
ENDBRANCH  10  12
ENDBRANCH   8  10
ENDBRANCH   1   4
BRANCH   1  16
ATOM     16  C   UNL     1      43.424   3.566  11.270  0.00  0.00    +0.000 C 
BRANCH  16  17
ATOM     17  N   UNL     1      43.951   2.380  10.575  0.00  0.00    +0.000 N 
ATOM     18  H   UNL     1      43.401   1.530  10.680  0.00  0.00    +0.000 HD
BRANCH  17  22
ATOM     19  C   UNL     1      46.423   2.645   7.248  0.00  0.00    +0.000 A 
ATOM     20  C   UNL     1      45.727   3.783   7.623  0.00  0.00    +0.000 A 
ATOM     21  C   UNL     1      44.863   3.702   8.716  0.00  0.00    +0.000 A 
ATOM     22  C   UNL     1      44.691   2.498   9.404  0.00  0.00    +0.000 A 
ATOM     23  C   UNL     1      45.446   1.417   8.932  0.00  0.00    +0.000 A 
ATOM     24  N   UNL     1      46.296   1.445   7.873  0.00  0.00    +0.000 NA
BRANCH  19  26
ATOM     25  N   UNL     1      48.679   2.368   6.407  0.00  0.00    +0.000 N 
ATOM     26  C   UNL     1      47.392   2.717   6.109  0.00  0.00    +0.000 C 
ATOM     27  O   UNL     1      47.063   3.067   4.980  0.00  0.00    +0.000 OA
ATOM     28  H   UNL     1      49.385   2.399   5.686  0.00  0.00    +0.000 HD
ATOM     29  H   UNL     1      48.913   2.073   7.348  0.00  0.00    +0.000 HD
ENDBRANCH  19  26
ENDBRANCH  17  22
ENDBRANCH  16  17
ENDBRANCH   1  16
TORSDOF 7
ENDMDL
MODEL 4
REMARK VINA RESULT:    -7.487      2.937      7.599
REMARK INTER + INTRA:         -11.469
REMARK INTER:                 -10.425
REMARK INTRA:                  -1.044
REMARK UNBOUND:                -0.918
REMARK  Name = 
REMARK  7 active torsions:
REMARK  status: ('A' for Active; 'I' for Inactive)
REMARK    1  A    between atoms: C_2  and  C_4
REMARK    2  A    between atoms: C_7  and  N_8
REMARK    3  A    between atoms: N_8  and  C_9
REMARK    4  A    between atoms: C_9  and  C_10
REMARK    5  A    between atoms: C_10  and  C_13
REMARK    6  A    between atoms: C_17  and  N_18
REMARK    7  A    between atoms: N_18  and  C_19
REMARK                            x       y       z     vdW  Elec       q    Type
REMARK                         _______ _______ _______ _____ _____    ______ ____
ROOT
ATOM      1  C   UNL     1      44.937   6.637  11.961  0.00  0.00    +0.000 C 
ATOM      2  F   UNL     1      44.435   6.626  13.233  0.00  0.00    +0.000 F 
ATOM      3  F   UNL     1      44.270   7.643  11.321  0.00  0.00    +0.000 F 
ENDROOT
BRANCH   1   4
ATOM      4  C   UNL     1      44.784   5.301  11.261  0.00  0.00    +0.000 A 
ATOM      5  C   UNL     1      44.058   4.268  11.865  0.00  0.00    +0.000 A 
ATOM      6  C   UNL     1      43.798   3.097  11.162  0.00  0.00    +0.000 A 
ATOM      7  C   UNL     1      44.266   2.941   9.852  0.00  0.00    +0.000 A 
ATOM      8  C   UNL     1      45.016   3.944   9.232  0.00  0.00    +0.000 A 
ATOM      9  C   UNL     1      45.268   5.121   9.952  0.00  0.00    +0.000 A 
BRANCH   8  10
ATOM     10  N   UNL     1      45.426   3.864   7.884  0.00  0.00    +0.000 N 
ATOM     11  H   UNL     1      45.014   4.593   7.307  0.00  0.00    +0.000 HD
BRANCH  10  12
ATOM     12  C   UNL     1      46.686   3.393   7.393  0.00  0.00    +0.000 C 
ATOM     13  C   UNL     1      46.687   3.138   5.867  0.00  0.00    +0.000 C 
ATOM     14  C   UNL     1      47.454   1.830   6.155  0.00  0.00    +0.000 C 
ATOM     15  C   UNL     1      46.839   1.860   7.569  0.00  0.00    +0.000 C 
ENDBRANCH  10  12
ENDBRANCH   8  10
ENDBRANCH   1   4
BRANCH   1  16
ATOM     16  C   UNL     1      46.446   6.993  12.035  0.00  0.00    +0.000 C 
BRANCH  16  17
ATOM     17  N   UNL     1      47.302   5.887  12.492  0.00  0.00    +0.000 N 
ATOM     18  H   UNL     1      48.110   5.686  11.906  0.00  0.00    +0.000 HD
BRANCH  17  22
ATOM     19  C   UNL     1      47.990   4.926  16.474  0.00  0.00    +0.000 A 
ATOM     20  C   UNL     1      47.098   4.135  15.767  0.00  0.00    +0.000 A 
ATOM     21  C   UNL     1      46.826   4.467  14.439  0.00  0.00    +0.000 A 
ATOM     22  C   UNL     1      47.426   5.578  13.842  0.00  0.00    +0.000 A 
ATOM     23  C   UNL     1      48.308   6.301  14.655  0.00  0.00    +0.000 A 
ATOM     24  N   UNL     1      48.602   6.021  15.951  0.00  0.00    +0.000 NA
BRANCH  19  26
ATOM     25  N   UNL     1      47.360   4.806  18.811  0.00  0.00    +0.000 N 
ATOM     26  C   UNL     1      48.335   4.565  17.885  0.00  0.00    +0.000 C 
ATOM     27  O   UNL     1      49.421   4.086  18.199  0.00  0.00    +0.000 OA
ATOM     28  H   UNL     1      47.530   4.589  19.783  0.00  0.00    +0.000 HD
ATOM     29  H   UNL     1      46.472   5.192  18.514  0.00  0.00    +0.000 HD
ENDBRANCH  19  26
ENDBRANCH  17  22
ENDBRANCH  16  17
ENDBRANCH   1  16
TORSDOF 7
ENDMDL
MODEL 5
REMARK VINA RESULT:    -7.151      3.591      8.172
REMARK INTER + INTRA:         -10.995
REMARK INTER:                 -10.074
REMARK INTRA:                  -0.921
REMARK UNBOUND:                -0.918
REMARK  Name = 
REMARK  7 active torsions:
REMARK  status: ('A' for Active; 'I' for Inactive)
REMARK    1  A    between atoms: C_2  and  C_4
REMARK    2  A    between atoms: C_7  and  N_8
REMARK    3  A    between atoms: N_8  and  C_9
REMARK    4  A    between atoms: C_9  and  C_10
REMARK    5  A    between atoms: C_10  and  C_13
REMARK    6  A    between atoms: C_17  and  N_18
REMARK    7  A    between atoms: N_18  and  C_19
REMARK                            x       y       z     vdW  Elec       q    Type
REMARK                         _______ _______ _______ _____ _____    ______ ____
ROOT
ATOM      1  C   UNL     1      46.734   6.544  12.329  0.00  0.00    +0.000 C 
ATOM      2  F   UNL     1      46.389   7.694  12.983  0.00  0.00    +0.000 F 
ATOM      3  F   UNL     1      47.475   6.951  11.255  0.00  0.00    +0.000 F 
ENDROOT
BRANCH   1   4
ATOM      4  C   UNL     1      45.529   5.719  11.923  0.00  0.00    +0.000 A 
ATOM      5  C   UNL     1      44.507   5.462  12.845  0.00  0.00    +0.000 A 
ATOM      6  C   UNL     1      43.341   4.829  12.432  0.00  0.00    +0.000 A 
ATOM      7  C   UNL     1      43.184   4.436  11.097  0.00  0.00    +0.000 A 
ATOM      8  C   UNL     1      44.198   4.655  10.160  0.00  0.00    +0.000 A 
ATOM      9  C   UNL     1      45.368   5.298  10.590  0.00  0.00    +0.000 A 
BRANCH   8  10
ATOM     10  N   UNL     1      44.042   4.359   8.790  0.00  0.00    +0.000 N 
ATOM     11  H   UNL     1      44.031   5.194   8.208  0.00  0.00    +0.000 HD
BRANCH  10  12
ATOM     12  C   UNL     1      44.508   3.193   8.101  0.00  0.00    +0.000 C 
ATOM     13  C   UNL     1      45.004   2.080   9.055  0.00  0.00    +0.000 C 
ATOM     14  C   UNL     1      46.200   1.887   8.099  0.00  0.00    +0.000 C 
ATOM     15  C   UNL     1      45.981   3.343   7.640  0.00  0.00    +0.000 C 
ENDBRANCH  10  12
ENDBRANCH   8  10
ENDBRANCH   1   4
BRANCH   1  16
ATOM     16  C   UNL     1      47.628   5.696  13.272  0.00  0.00    +0.000 C 
BRANCH  16  17
ATOM     17  N   UNL     1      48.125   6.428  14.447  0.00  0.00    +0.000 N 
ATOM     18  H   UNL     1      48.063   7.443  14.390  0.00  0.00    +0.000 HD
BRANCH  17  22
ATOM     19  C   UNL     1      48.275   4.772  18.253  0.00  0.00    +0.000 A 
ATOM     20  C   UNL     1      47.590   4.070  17.273  0.00  0.00    +0.000 A 
ATOM     21  C   UNL     1      47.498   4.630  15.999  0.00  0.00    +0.000 A 
ATOM     22  C   UNL     1      48.067   5.876  15.722  0.00  0.00    +0.000 A 
ATOM     23  C   UNL     1      48.732   6.490  16.791  0.00  0.00    +0.000 A 
ATOM     24  N   UNL     1      48.845   5.987  18.047  0.00  0.00    +0.000 NA
BRANCH  19  26
ATOM     25  N   UNL     1      48.362   2.808  19.671  0.00  0.00    +0.000 N 
ATOM     26  C   UNL     1      48.430   4.171  19.615  0.00  0.00    +0.000 C 
ATOM     27  O   UNL     1      48.605   4.851  20.622  0.00  0.00    +0.000 OA
ATOM     28  H   UNL     1      48.454   2.338  20.560  0.00  0.00    +0.000 HD
ATOM     29  H   UNL     1      48.227   2.279  18.817  0.00  0.00    +0.000 HD
ENDBRANCH  19  26
ENDBRANCH  17  22
ENDBRANCH  16  17
ENDBRANCH   1  16
TORSDOF 7
ENDMDL
MODEL 6
REMARK VINA RESULT:    -7.139      3.020      4.200
REMARK INTER + INTRA:         -10.978
REMARK INTER:                 -10.136
REMARK INTRA:                  -0.842
REMARK UNBOUND:                -0.918
REMARK  Name = 
REMARK  7 active torsions:
REMARK  status: ('A' for Active; 'I' for Inactive)
REMARK    1  A    between atoms: C_2  and  C_4
REMARK    2  A    between atoms: C_7  and  N_8
REMARK    3  A    between atoms: N_8  and  C_9
REMARK    4  A    between atoms: C_9  and  C_10
REMARK    5  A    between atoms: C_10  and  C_13
REMARK    6  A    between atoms: C_17  and  N_18
REMARK    7  A    between atoms: N_18  and  C_19
REMARK                            x       y       z     vdW  Elec       q    Type
REMARK                         _______ _______ _______ _____ _____    ______ ____
ROOT
ATOM      1  C   UNL     1      45.172   5.567  12.426  0.00  0.00    +0.000 C 
ATOM      2  F   UNL     1      44.430   5.588  13.575  0.00  0.00    +0.000 F 
ATOM      3  F   UNL     1      45.820   4.364  12.440  0.00  0.00    +0.000 F 
ENDROOT
BRANCH   1   4
ATOM      4  C   UNL     1      46.128   6.739  12.327  0.00  0.00    +0.000 A 
ATOM      5  C   UNL     1      45.696   8.031  12.654  0.00  0.00    +0.000 A 
ATOM      6  C   UNL     1      46.608   9.078  12.700  0.00  0.00    +0.000 A 
ATOM      7  C   UNL     1      47.960   8.852  12.412  0.00  0.00    +0.000 A 
ATOM      8  C   UNL     1      48.415   7.579  12.056  0.00  0.00    +0.000 A 
ATOM      9  C   UNL     1      47.484   6.531  12.018  0.00  0.00    +0.000 A 
BRANCH   8  10
ATOM     10  N   UNL     1      49.781   7.291  11.850  0.00  0.00    +0.000 N 
ATOM     11  H   UNL     1      49.950   6.303  11.675  0.00  0.00    +0.000 HD
BRANCH  10  12
ATOM     12  C   UNL     1      50.763   8.150  11.258  0.00  0.00    +0.000 C 
ATOM     13  C   UNL     1      51.854   7.379  10.477  0.00  0.00    +0.000 C 
ATOM     14  C   UNL     1      52.889   8.322  11.127  0.00  0.00    +0.000 C 
ATOM     15  C   UNL     1      51.873   8.540  12.267  0.00  0.00    +0.000 C 
ENDBRANCH  10  12
ENDBRANCH   8  10
ENDBRANCH   1   4
BRANCH   1  16
ATOM     16  C   UNL     1      44.201   5.609  11.217  0.00  0.00    +0.000 C 
BRANCH  16  17
ATOM     17  N   UNL     1      44.002   4.306  10.561  0.00  0.00    +0.000 N 
ATOM     18  H   UNL     1      43.033   4.008  10.463  0.00  0.00    +0.000 HD
BRANCH  17  22
ATOM     19  C   UNL     1      46.485   3.036   7.484  0.00  0.00    +0.000 A 
ATOM     20  C   UNL     1      45.915   2.065   8.292  0.00  0.00    +0.000 A 
ATOM     21  C   UNL     1      45.109   2.475   9.354  0.00  0.00    +0.000 A 
ATOM     22  C   UNL     1      44.895   3.833   9.607  0.00  0.00    +0.000 A 
ATOM     23  C   UNL     1      45.523   4.720   8.724  0.00  0.00    +0.000 A 
ATOM     24  N   UNL     1      46.318   4.370   7.680  0.00  0.00    +0.000 NA
BRANCH  19  26
ATOM     25  N   UNL     1      48.470   1.956   6.609  0.00  0.00    +0.000 N 
ATOM     26  C   UNL     1      47.315   2.622   6.310  0.00  0.00    +0.000 C 
ATOM     27  O   UNL     1      46.990   2.862   5.151  0.00  0.00    +0.000 OA
ATOM     28  H   UNL     1      49.080   1.652   5.863  0.00  0.00    +0.000 HD
ATOM     29  H   UNL     1      48.701   1.765   7.577  0.00  0.00    +0.000 HD
ENDBRANCH  19  26
ENDBRANCH  17  22
ENDBRANCH  16  17
ENDBRANCH   1  16
TORSDOF 7
ENDMDL
MODEL 7
REMARK VINA RESULT:    -6.990      2.645      4.818
REMARK INTER + INTRA:         -10.769
REMARK INTER:                  -9.859
REMARK INTRA:                  -0.909
REMARK UNBOUND:                -0.918
REMARK  Name = 
REMARK  7 active torsions:
REMARK  status: ('A' for Active; 'I' for Inactive)
REMARK    1  A    between atoms: C_2  and  C_4
REMARK    2  A    between atoms: C_7  and  N_8
REMARK    3  A    between atoms: N_8  and  C_9
REMARK    4  A    between atoms: C_9  and  C_10
REMARK    5  A    between atoms: C_10  and  C_13
REMARK    6  A    between atoms: C_17  and  N_18
REMARK    7  A    between atoms: N_18  and  C_19
REMARK                            x       y       z     vdW  Elec       q    Type
REMARK                         _______ _______ _______ _____ _____    ______ ____
ROOT
ATOM      1  C   UNL     1      44.888   5.048  13.224  0.00  0.00    +0.000 C 
ATOM      2  F   UNL     1      43.564   5.367  13.343  0.00  0.00    +0.000 F 
ATOM      3  F   UNL     1      45.238   4.513  14.431  0.00  0.00    +0.000 F 
ENDROOT
BRANCH   1   4
ATOM      4  C   UNL     1      45.745   6.241  12.848  0.00  0.00    +0.000 A 
ATOM      5  C   UNL     1      47.053   6.052  12.387  0.00  0.00    +0.000 A 
ATOM      6  C   UNL     1      47.785   7.133  11.909  0.00  0.00    +0.000 A 
ATOM      7  C   UNL     1      47.223   8.416  11.894  0.00  0.00    +0.000 A 
ATOM      8  C   UNL     1      45.929   8.640  12.373  0.00  0.00    +0.000 A 
ATOM      9  C   UNL     1      45.201   7.539  12.848  0.00  0.00    +0.000 A 
BRANCH   8  10
ATOM     10  N   UNL     1      45.295   9.897  12.289  0.00  0.00    +0.000 N 
ATOM     11  H   UNL     1      45.760  10.607  12.850  0.00  0.00    +0.000 HD
BRANCH  10  12
ATOM     12  C   UNL     1      44.590  10.433  11.164  0.00  0.00    +0.000 C 
ATOM     13  C   UNL     1      43.284  11.166  11.557  0.00  0.00    +0.000 C 
ATOM     14  C   UNL     1      42.609  10.459  10.363  0.00  0.00    +0.000 C 
ATOM     15  C   UNL     1      43.693   9.368  10.482  0.00  0.00    +0.000 C 
ENDBRANCH  10  12
ENDBRANCH   8  10
ENDBRANCH   1   4
BRANCH   1  16
ATOM     16  C   UNL     1      45.032   3.962  12.125  0.00  0.00    +0.000 C 
BRANCH  16  17
ATOM     17  N   UNL     1      44.562   4.387  10.796  0.00  0.00    +0.000 N 
ATOM     18  H   UNL     1      44.187   5.332  10.746  0.00  0.00    +0.000 HD
BRANCH  17  22
ATOM     19  C   UNL     1      46.470   2.719   7.506  0.00  0.00    +0.000 A 
ATOM     20  C   UNL     1      46.438   4.101   7.597  0.00  0.00    +0.000 A 
ATOM     21  C   UNL     1      45.768   4.679   8.676  0.00  0.00    +0.000 A 
ATOM     22  C   UNL     1      45.131   3.883   9.632  0.00  0.00    +0.000 A 
ATOM     23  C   UNL     1      45.230   2.501   9.434  0.00  0.00    +0.000 A 
ATOM     24  N   UNL     1      45.867   1.892   8.400  0.00  0.00    +0.000 NA
BRANCH  19  26
ATOM     25  N   UNL     1      47.764   2.928   5.468  0.00  0.00    +0.000 N 
ATOM     26  C   UNL     1      47.222   2.072   6.385  0.00  0.00    +0.000 C 
ATOM     27  O   UNL     1      47.347   0.856   6.286  0.00  0.00    +0.000 OA
ATOM     28  H   UNL     1      48.280   2.558   4.683  0.00  0.00    +0.000 HD
ATOM     29  H   UNL     1      47.649   3.928   5.587  0.00  0.00    +0.000 HD
ENDBRANCH  19  26
ENDBRANCH  17  22
ENDBRANCH  16  17
ENDBRANCH   1  16
TORSDOF 7
ENDMDL
MODEL 8
REMARK VINA RESULT:    -6.732      3.928      8.045
REMARK INTER + INTRA:         -10.405
REMARK INTER:                  -9.499
REMARK INTRA:                  -0.905
REMARK UNBOUND:                -0.918
REMARK  Name = 
REMARK  7 active torsions:
REMARK  status: ('A' for Active; 'I' for Inactive)
REMARK    1  A    between atoms: C_2  and  C_4
REMARK    2  A    between atoms: C_7  and  N_8
REMARK    3  A    between atoms: N_8  and  C_9
REMARK    4  A    between atoms: C_9  and  C_10
REMARK    5  A    between atoms: C_10  and  C_13
REMARK    6  A    between atoms: C_17  and  N_18
REMARK    7  A    between atoms: N_18  and  C_19
REMARK                            x       y       z     vdW  Elec       q    Type
REMARK                         _______ _______ _______ _____ _____    ______ ____
ROOT
ATOM      1  C   UNL     1      46.604   4.575  13.817  0.00  0.00    +0.000 C 
ATOM      2  F   UNL     1      47.484   3.537  13.688  0.00  0.00    +0.000 F 
ATOM      3  F   UNL     1      46.362   4.676  15.158  0.00  0.00    +0.000 F 
ENDROOT
BRANCH   1   4
ATOM      4  C   UNL     1      45.336   4.369  13.012  0.00  0.00    +0.000 A 
ATOM      5  C   UNL     1      44.268   5.268  13.136  0.00  0.00    +0.000 A 
ATOM      6  C   UNL     1      43.167   5.159  12.296  0.00  0.00    +0.000 A 
ATOM      7  C   UNL     1      43.113   4.148  11.328  0.00  0.00    +0.000 A 
ATOM      8  C   UNL     1      44.151   3.221  11.199  0.00  0.00    +0.000 A 
ATOM      9  C   UNL     1      45.258   3.345  12.051  0.00  0.00    +0.000 A 
BRANCH   8  10
ATOM     10  N   UNL     1      44.177   2.247  10.178  0.00  0.00    +0.000 N 
ATOM     11  H   UNL     1      43.490   1.510  10.323  0.00  0.00    +0.000 HD
BRANCH  10  12
ATOM     12  C   UNL     1      44.509   2.452   8.800  0.00  0.00    +0.000 C 
ATOM     13  C   UNL     1      45.917   1.927   8.428  0.00  0.00    +0.000 C 
ATOM     14  C   UNL     1      46.116   3.229   7.624  0.00  0.00    +0.000 C 
ATOM     15  C   UNL     1      45.061   3.878   8.543  0.00  0.00    +0.000 C 
ENDBRANCH  10  12
ENDBRANCH   8  10
ENDBRANCH   1   4
BRANCH   1  16
ATOM     16  C   UNL     1      47.302   5.872  13.328  0.00  0.00    +0.000 C 
BRANCH  16  17
ATOM     17  N   UNL     1      47.566   6.851  14.395  0.00  0.00    +0.000 N 
ATOM     18  H   UNL     1      46.756   7.127  14.946  0.00  0.00    +0.000 HD
BRANCH  17  22
ATOM     19  C   UNL     1      51.378   6.886  16.042  0.00  0.00    +0.000 A 
ATOM     20  C   UNL     1      50.386   6.208  16.733  0.00  0.00    +0.000 A 
ATOM     21  C   UNL     1      49.092   6.218  16.213  0.00  0.00    +0.000 A 
ATOM     22  C   UNL     1      48.799   6.909  15.034  0.00  0.00    +0.000 A 
ATOM     23  C   UNL     1      49.882   7.557  14.427  0.00  0.00    +0.000 A 
ATOM     24  N   UNL     1      51.157   7.579  14.894  0.00  0.00    +0.000 NA
BRANCH  19  26
ATOM     25  N   UNL     1      52.957   7.270  17.841  0.00  0.00    +0.000 N 
ATOM     26  C   UNL     1      52.785   6.851  16.552  0.00  0.00    +0.000 C 
ATOM     27  O   UNL     1      53.730   6.474  15.865  0.00  0.00    +0.000 OA
ATOM     28  H   UNL     1      53.882   7.276  18.246  0.00  0.00    +0.000 HD
ATOM     29  H   UNL     1      52.152   7.564  18.382  0.00  0.00    +0.000 HD
ENDBRANCH  19  26
ENDBRANCH  17  22
ENDBRANCH  16  17
ENDBRANCH   1  16
TORSDOF 7
ENDMDL
MODEL 9
REMARK VINA RESULT:    -6.676      3.396      7.832
REMARK INTER + INTRA:         -10.327
REMARK INTER:                  -9.554
REMARK INTRA:                  -0.773
REMARK UNBOUND:                -0.918
REMARK  Name = 
REMARK  7 active torsions:
REMARK  status: ('A' for Active; 'I' for Inactive)
REMARK    1  A    between atoms: C_2  and  C_4
REMARK    2  A    between atoms: C_7  and  N_8
REMARK    3  A    between atoms: N_8  and  C_9
REMARK    4  A    between atoms: C_9  and  C_10
REMARK    5  A    between atoms: C_10  and  C_13
REMARK    6  A    between atoms: C_17  and  N_18
REMARK    7  A    between atoms: N_18  and  C_19
REMARK                            x       y       z     vdW  Elec       q    Type
REMARK                         _______ _______ _______ _____ _____    ______ ____
ROOT
ATOM      1  C   UNL     1      46.536   4.461  13.940  0.00  0.00    +0.000 C 
ATOM      2  F   UNL     1      47.142   3.249  13.754  0.00  0.00    +0.000 F 
ATOM      3  F   UNL     1      45.427   4.195  14.693  0.00  0.00    +0.000 F 
ENDROOT
BRANCH   1   4
ATOM      4  C   UNL     1      46.198   5.152  12.634  0.00  0.00    +0.000 A 
ATOM      5  C   UNL     1      46.910   6.290  12.234  0.00  0.00    +0.000 A 
ATOM      6  C   UNL     1      46.696   6.837  10.974  0.00  0.00    +0.000 A 
ATOM      7  C   UNL     1      45.764   6.260  10.102  0.00  0.00    +0.000 A 
ATOM      8  C   UNL     1      45.020   5.140  10.484  0.00  0.00    +0.000 A 
ATOM      9  C   UNL     1      45.249   4.597  11.756  0.00  0.00    +0.000 A 
BRANCH   8  10
ATOM     10  N   UNL     1      44.141   4.476   9.602  0.00  0.00    +0.000 N 
ATOM     11  H   UNL     1      43.313   5.027   9.388  0.00  0.00    +0.000 HD
BRANCH  10  12
ATOM     12  C   UNL     1      44.494   3.553   8.566  0.00  0.00    +0.000 C 
ATOM     13  C   UNL     1      45.039   2.209   9.107  0.00  0.00    +0.000 C 
ATOM     14  C   UNL     1      46.128   2.289   8.017  0.00  0.00    +0.000 C 
ATOM     15  C   UNL     1      45.920   3.817   8.016  0.00  0.00    +0.000 C 
ENDBRANCH  10  12
ENDBRANCH   8  10
ENDBRANCH   1   4
BRANCH   1  16
ATOM     16  C   UNL     1      47.497   5.368  14.753  0.00  0.00    +0.000 C 
BRANCH  16  17
ATOM     17  N   UNL     1      47.588   5.019  16.180  0.00  0.00    +0.000 N 
ATOM     18  H   UNL     1      46.706   5.024  16.689  0.00  0.00    +0.000 HD
BRANCH  17  22
ATOM     19  C   UNL     1      50.721   2.563  17.362  0.00  0.00    +0.000 A 
ATOM     20  C   UNL     1      49.534   1.954  16.986  0.00  0.00    +0.000 A 
ATOM     21  C   UNL     1      48.459   2.765  16.623  0.00  0.00    +0.000 A 
ATOM     22  C   UNL     1      48.571   4.158  16.653  0.00  0.00    +0.000 A 
ATOM     23  C   UNL     1      49.818   4.657  17.050  0.00  0.00    +0.000 A 
ATOM     24  N   UNL     1      50.892   3.910  17.416  0.00  0.00    +0.000 NA
BRANCH  19  26
ATOM     25  N   UNL     1      51.624   0.425  18.060  0.00  0.00    +0.000 N 
ATOM     26  C   UNL     1      51.905   1.715  17.710  0.00  0.00    +0.000 C 
ATOM     27  O   UNL     1      53.055   2.142  17.689  0.00  0.00    +0.000 OA
ATOM     28  H   UNL     1      52.376  -0.201  18.312  0.00  0.00    +0.000 HD
ATOM     29  H   UNL     1      50.663   0.103  18.056  0.00  0.00    +0.000 HD
ENDBRANCH  19  26
ENDBRANCH  17  22
ENDBRANCH  16  17
ENDBRANCH   1  16
TORSDOF 7
ENDMDL
