MODEL 1
REMARK VINA RESULT:    -8.533      0.000      0.000
REMARK INTER + INTRA:         -11.267
REMARK INTER:                 -10.528
REMARK INTRA:                  -0.739
REMARK UNBOUND:                -0.739
REMARK  Name = 
REMARK  4 active torsions:
REMARK  status: ('A' for Active; 'I' for Inactive)
REMARK    1  A    between atoms: C_2  and  C_4
REMARK    2  A    between atoms: C_7  and  N_8
REMARK    3  A    between atoms: N_8  and  C_9
REMARK    4  A    between atoms: C_9  and  C_10
REMARK                            x       y       z     vdW  Elec       q    Type
REMARK                         _______ _______ _______ _____ _____    ______ ____
ROOT
ATOM      1  C   UNL     1      46.336   2.294   7.835  0.00  0.00    +0.000 A 
ATOM      2  C   UNL     1      45.419   1.756   8.745  0.00  0.00    +0.000 A 
ATOM      3  C   UNL     1      44.576   2.606   9.475  0.00  0.00    +0.000 A 
ATOM      4  C   UNL     1      44.650   3.997   9.324  0.00  0.00    +0.000 A 
ATOM      5  C   UNL     1      45.509   4.505   8.347  0.00  0.00    +0.000 A 
ATOM      6  C   UNL     1      46.363   3.670   7.624  0.00  0.00    +0.000 A 
ENDROOT
BRANCH   1   8
ATOM      7  N   UNL     1      48.419   2.086   6.583  0.00  0.00    +0.000 N 
ATOM      8  C   UNL     1      47.328   1.463   7.113  0.00  0.00    +0.000 C 
ATOM      9  O   UNL     1      47.193   0.247   7.012  0.00  0.00    +0.000 OA
ATOM     10  H   UNL     1      49.124   1.480   6.181  0.00  0.00    +0.000 HD
ATOM     11  H   UNL     1      48.697   3.014   6.858  0.00  0.00    +0.000 HD
ENDBRANCH   1   8
BRANCH   4  12
ATOM     12  N   UNL     1      43.841   4.839  10.121  0.00  0.00    +0.000 N 
ATOM     13  H   UNL     1      42.875   4.849   9.802  0.00  0.00    +0.000 HD
BRANCH  12  14
ATOM     14  C   UNL     1      44.001   4.874  11.599  0.00  0.00    +0.000 C 
ATOM     15  C   UNL     1      43.322   3.824  12.472  0.00  0.00    +0.000 C 
ATOM     16  C   UNL     1      42.759   5.202  12.425  0.00  0.00    +0.000 C 
BRANCH  14  17
ATOM     17  C   UNL     1      45.316   5.474  12.099  0.00  0.00    +0.000 A 
ATOM     18  C   UNL     1      45.991   4.941  13.211  0.00  0.00    +0.000 A 
ATOM     19  C   UNL     1      47.267   5.388  13.572  0.00  0.00    +0.000 A 
ATOM     20  C   UNL     1      47.888   6.395  12.839  0.00  0.00    +0.000 A 
ATOM     21  C   UNL     1      47.221   6.982  11.771  0.00  0.00    +0.000 A 
ATOM     22  C   UNL     1      45.951   6.529  11.414  0.00  0.00    +0.000 A 
ENDBRANCH  14  17
ENDBRANCH  12  14
ENDBRANCH   4  12
TORSDOF 4
ENDMDL
MODEL 2
REMARK VINA RESULT:    -5.819      2.578      4.202
REMARK INTER + INTRA:          -7.918
REMARK INTER:                  -7.350
REMARK INTRA:                  -0.568
REMARK UNBOUND:                -0.739
REMARK  Name = 
REMARK  4 active torsions:
REMARK  status: ('A' for Active; 'I' for Inactive)
REMARK    1  A    between atoms: C_2  and  C_4
REMARK    2  A    between atoms: C_7  and  N_8
REMARK    3  A    between atoms: N_8  and  C_9
REMARK    4  A    between atoms: C_9  and  C_10
REMARK                            x       y       z     vdW  Elec       q    Type
REMARK                         _______ _______ _______ _____ _____    ______ ____
ROOT
ATOM      1  C   UNL     1      44.986   3.750  10.057  0.00  0.00    +0.000 A 
ATOM      2  C   UNL     1      44.894   3.309  11.382  0.00  0.00    +0.000 A 
ATOM      3  C   UNL     1      45.186   4.188  12.434  0.00  0.00    +0.000 A 
ATOM      4  C   UNL     1      45.593   5.504  12.181  0.00  0.00    +0.000 A 
ATOM      5  C   UNL     1      45.592   5.948  10.856  0.00  0.00    +0.000 A 
ATOM      6  C   UNL     1      45.317   5.078   9.799  0.00  0.00    +0.000 A 
ENDROOT
BRANCH   1   8
ATOM      7  N   UNL     1      44.652   1.512   9.144  0.00  0.00    +0.000 N 
ATOM      8  C   UNL     1      44.798   2.845   8.898  0.00  0.00    +0.000 C 
ATOM      9  O   UNL     1      44.749   3.277   7.750  0.00  0.00    +0.000 OA
ATOM     10  H   UNL     1      44.430   0.935   8.343  0.00  0.00    +0.000 HD
ATOM     11  H   UNL     1      44.429   1.154  10.059  0.00  0.00    +0.000 HD
ENDBRANCH   1   8
BRANCH   4  12
ATOM     12  N   UNL     1      45.951   6.354  13.254  0.00  0.00    +0.000 N 
ATOM     13  H   UNL     1      45.866   5.885  14.152  0.00  0.00    +0.000 HD
BRANCH  12  14
ATOM     14  C   UNL     1      47.119   7.268  13.145  0.00  0.00    +0.000 C 
ATOM     15  C   UNL     1      48.510   6.710  12.863  0.00  0.00    +0.000 C 
ATOM     16  C   UNL     1      48.180   7.172  14.240  0.00  0.00    +0.000 C 
BRANCH  14  17
ATOM     17  C   UNL     1      46.801   8.677  12.641  0.00  0.00    +0.000 A 
ATOM     18  C   UNL     1      47.801   9.510  12.111  0.00  0.00    +0.000 A 
ATOM     19  C   UNL     1      47.486  10.733  11.508  0.00  0.00    +0.000 A 
ATOM     20  C   UNL     1      46.162  11.158  11.441  0.00  0.00    +0.000 A 
ATOM     21  C   UNL     1      45.159  10.384  12.008  0.00  0.00    +0.000 A 
ATOM     22  C   UNL     1      45.480   9.164  12.604  0.00  0.00    +0.000 A 
ENDBRANCH  14  17
ENDBRANCH  12  14
ENDBRANCH   4  12
TORSDOF 4
ENDMDL
MODEL 3
REMARK VINA RESULT:    -5.754      3.919      6.828
REMARK INTER + INTRA:          -7.838
REMARK INTER:                  -7.466
REMARK INTRA:                  -0.372
REMARK UNBOUND:                -0.739
REMARK  Name = 
REMARK  4 active torsions:
REMARK  status: ('A' for Active; 'I' for Inactive)
REMARK    1  A    between atoms: C_2  and  C_4
REMARK    2  A    between atoms: C_7  and  N_8
REMARK    3  A    between atoms: N_8  and  C_9
REMARK    4  A    between atoms: C_9  and  C_10
REMARK                            x       y       z     vdW  Elec       q    Type
REMARK                         _______ _______ _______ _____ _____    ______ ____
ROOT
ATOM      1  C   UNL     1      48.503   5.986  15.602  0.00  0.00    +0.000 A 
ATOM      2  C   UNL     1      48.234   6.349  14.278  0.00  0.00    +0.000 A 
ATOM      3  C   UNL     1      47.388   5.553  13.492  0.00  0.00    +0.000 A 
ATOM      4  C   UNL     1      46.822   4.379  14.005  0.00  0.00    +0.000 A 
ATOM      5  C   UNL     1      47.035   4.084  15.354  0.00  0.00    +0.000 A 
ATOM      6  C   UNL     1      47.884   4.861  16.143  0.00  0.00    +0.000 A 
ENDROOT
BRANCH   1   8
ATOM      7  N   UNL     1      49.049   7.148  17.677  0.00  0.00    +0.000 N 
ATOM      8  C   UNL     1      49.470   6.720  16.452  0.00  0.00    +0.000 C 
ATOM      9  O   UNL     1      50.624   6.920  16.084  0.00  0.00    +0.000 OA
ATOM     10  H   UNL     1      49.758   7.560  18.270  0.00  0.00    +0.000 HD
ATOM     11  H   UNL     1      48.217   6.789  18.116  0.00  0.00    +0.000 HD
ENDBRANCH   1   8
BRANCH   4  12
ATOM     12  N   UNL     1      46.030   3.553  13.173  0.00  0.00    +0.000 N 
ATOM     13  H   UNL     1      45.860   2.643  13.595  0.00  0.00    +0.000 HD
BRANCH  12  14
ATOM     14  C   UNL     1      44.873   4.111  12.425  0.00  0.00    +0.000 C 
ATOM     15  C   UNL     1      44.106   5.310  12.976  0.00  0.00    +0.000 C 
ATOM     16  C   UNL     1      43.494   3.955  13.063  0.00  0.00    +0.000 C 
BRANCH  14  17
ATOM     17  C   UNL     1      44.932   3.941  10.907  0.00  0.00    +0.000 A 
ATOM     18  C   UNL     1      45.434   4.955  10.072  0.00  0.00    +0.000 A 
ATOM     19  C   UNL     1      45.634   4.741   8.704  0.00  0.00    +0.000 A 
ATOM     20  C   UNL     1      45.317   3.510   8.136  0.00  0.00    +0.000 A 
ATOM     21  C   UNL     1      44.764   2.508   8.924  0.00  0.00    +0.000 A 
ATOM     22  C   UNL     1      44.571   2.728  10.288  0.00  0.00    +0.000 A 
ENDBRANCH  14  17
ENDBRANCH  12  14
ENDBRANCH   4  12
TORSDOF 4
ENDMDL
MODEL 4
REMARK VINA RESULT:    -5.729      3.556      6.165
REMARK INTER + INTRA:          -7.808
REMARK INTER:                  -7.970
REMARK INTRA:                   0.163
REMARK UNBOUND:                -0.739
REMARK  Name = 
REMARK  4 active torsions:
REMARK  status: ('A' for Active; 'I' for Inactive)
REMARK    1  A    between atoms: C_2  and  C_4
REMARK    2  A    between atoms: C_7  and  N_8
REMARK    3  A    between atoms: N_8  and  C_9
REMARK    4  A    between atoms: C_9  and  C_10
REMARK                            x       y       z     vdW  Elec       q    Type
REMARK                         _______ _______ _______ _____ _____    ______ ____
ROOT
ATOM      1  C   UNL     1      47.997   7.752  13.468  0.00  0.00    +0.000 A 
ATOM      2  C   UNL     1      46.861   8.569  13.463  0.00  0.00    +0.000 A 
ATOM      3  C   UNL     1      45.736   8.200  12.713  0.00  0.00    +0.000 A 
ATOM      4  C   UNL     1      45.737   7.029  11.944  0.00  0.00    +0.000 A 
ATOM      5  C   UNL     1      46.847   6.185  12.034  0.00  0.00    +0.000 A 
ATOM      6  C   UNL     1      47.977   6.549  12.767  0.00  0.00    +0.000 A 
ENDROOT
BRANCH   1   8
ATOM      7  N   UNL     1      50.423   7.611  13.681  0.00  0.00    +0.000 N 
ATOM      8  C   UNL     1      49.256   8.136  14.150  0.00  0.00    +0.000 C 
ATOM      9  O   UNL     1      49.259   8.922  15.094  0.00  0.00    +0.000 OA
ATOM     10  H   UNL     1      51.271   7.965  14.105  0.00  0.00    +0.000 HD
ATOM     11  H   UNL     1      50.495   7.181  12.772  0.00  0.00    +0.000 HD
ENDBRANCH   1   8
BRANCH   4  12
ATOM     12  N   UNL     1      44.618   6.711  11.138  0.00  0.00    +0.000 N 
ATOM     13  H   UNL     1      44.696   7.112  10.207  0.00  0.00    +0.000 HD
BRANCH  12  14
ATOM     14  C   UNL     1      44.015   5.352  11.174  0.00  0.00    +0.000 C 
ATOM     15  C   UNL     1      42.562   5.166  11.600  0.00  0.00    +0.000 C 
ATOM     16  C   UNL     1      43.649   4.791  12.547  0.00  0.00    +0.000 C 
BRANCH  14  17
ATOM     17  C   UNL     1      44.597   4.351  10.175  0.00  0.00    +0.000 A 
ATOM     18  C   UNL     1      44.271   2.985  10.228  0.00  0.00    +0.000 A 
ATOM     19  C   UNL     1      44.677   2.099   9.224  0.00  0.00    +0.000 A 
ATOM     20  C   UNL     1      45.438   2.558   8.153  0.00  0.00    +0.000 A 
ATOM     21  C   UNL     1      45.826   3.891   8.104  0.00  0.00    +0.000 A 
ATOM     22  C   UNL     1      45.414   4.770   9.106  0.00  0.00    +0.000 A 
ENDBRANCH  14  17
ENDBRANCH  12  14
ENDBRANCH   4  12
TORSDOF 4
ENDMDL
