MODEL 1
REMARK VINA RESULT:    -8.637      0.000      0.000
REMARK INTER + INTRA:         -11.457
REMARK INTER:                 -11.161
REMARK INTRA:                  -0.296
REMARK UNBOUND:                -0.296
REMARK  Name = 
REMARK  6 active torsions:
REMARK  status: ('A' for Active; 'I' for Inactive)
REMARK    1  A    between atoms: C_1  and  C_2
REMARK    2  A    between atoms: C_4  and  C_5
REMARK    3  A    between atoms: C_10  and  N_11
REMARK    4  A    between atoms: N_11  and  C_12
REMARK    5  A    between atoms: C_12  and  C_13
REMARK    6  A    between atoms: C_17  and  C_18
REMARK                            x       y       z     vdW  Elec       q    Type
REMARK                         _______ _______ _______ _____ _____    ______ ____
ROOT
ATOM      1  N   UNL     1      44.052   5.126   9.944  0.00  0.00    +0.000 N 
ATOM      2  H   UNL     1      43.718   5.977   9.522  0.00  0.00    +0.000 HD
ENDROOT
BRANCH   1   9
ATOM      3  C   UNL     1      43.855   2.238  10.500  0.00  0.00    +0.000 C 
ATOM      4  C   UNL     1      44.768   2.855   9.478  0.00  0.00    +0.000 A 
ATOM      5  C   UNL     1      45.613   2.006   8.739  0.00  0.00    +0.000 A 
ATOM      6  C   UNL     1      46.473   2.523   7.774  0.00  0.00    +0.000 A 
ATOM      7  C   UNL     1      46.435   3.888   7.579  0.00  0.00    +0.000 A 
ATOM      8  N   UNL     1      45.629   4.733   8.270  0.00  0.00    +0.000 NA
ATOM      9  C   UNL     1      44.810   4.234   9.220  0.00  0.00    +0.000 A 
BRANCH   6  10
ATOM     10  C   UNL     1      47.361   1.602   7.024  0.00  0.00    +0.000 C 
ATOM     11  N   UNL     1      48.461   2.107   6.389  0.00  0.00    +0.000 N 
ATOM     12  O   UNL     1      47.125   0.402   6.968  0.00  0.00    +0.000 OA
ATOM     13  H   UNL     1      48.752   3.071   6.374  0.00  0.00    +0.000 HD
ATOM     14  H   UNL     1      49.039   1.438   5.895  0.00  0.00    +0.000 HD
ENDBRANCH   6  10
ENDBRANCH   1   9
BRANCH   1  15
ATOM     15  C   UNL     1      43.897   4.995  11.385  0.00  0.00    +0.000 C 
BRANCH  15  16
ATOM     16  C   UNL     1      45.181   5.285  12.145  0.00  0.00    +0.000 A 
ATOM     17  C   UNL     1      45.656   4.363  13.075  0.00  0.00    +0.000 A 
ATOM     18  C   UNL     1      46.844   4.625  13.739  0.00  0.00    +0.000 A 
ATOM     19  C   UNL     1      47.535   5.797  13.455  0.00  0.00    +0.000 A 
ATOM     20  C   UNL     1      47.025   6.681  12.504  0.00  0.00    +0.000 A 
ATOM     21  N   UNL     1      45.851   6.437  11.859  0.00  0.00    +0.000 NA
BRANCH  20  22
ATOM     22  C   UNL     1      47.728   7.930  12.132  0.00  0.00    +0.000 A 
ATOM     23  C   UNL     1      47.079   9.182  12.150  0.00  0.00    +0.000 A 
ATOM     24  C   UNL     1      47.734  10.357  11.775  0.00  0.00    +0.000 A 
ATOM     25  C   UNL     1      49.068  10.310  11.384  0.00  0.00    +0.000 A 
ATOM     26  C   UNL     1      49.736   9.088  11.375  0.00  0.00    +0.000 A 
ATOM     27 CL   UNL     1      51.389   9.030  10.893  0.00  0.00    +0.000 Cl
ATOM     28  C   UNL     1      49.079   7.913  11.746  0.00  0.00    +0.000 A 
ENDBRANCH  20  22
ENDBRANCH  15  16
ENDBRANCH   1  15
TORSDOF 5
ENDMDL
MODEL 2
REMARK VINA RESULT:    -8.546      3.439      6.837
REMARK INTER + INTRA:         -11.339
REMARK INTER:                 -10.361
REMARK INTRA:                  -0.978
REMARK UNBOUND:                -0.296
REMARK  Name = 
REMARK  6 active torsions:
REMARK  status: ('A' for Active; 'I' for Inactive)
REMARK    1  A    between atoms: C_1  and  C_2
REMARK    2  A    between atoms: C_4  and  C_5
REMARK    3  A    between atoms: C_10  and  N_11
REMARK    4  A    between atoms: N_11  and  C_12
REMARK    5  A    between atoms: C_12  and  C_13
REMARK    6  A    between atoms: C_17  and  C_18
REMARK                            x       y       z     vdW  Elec       q    Type
REMARK                         _______ _______ _______ _____ _____    ______ ____
ROOT
ATOM      1  N   UNL     1      44.956   7.372  12.688  0.00  0.00    +0.000 N 
ATOM      2  H   UNL     1      44.526   7.310  13.596  0.00  0.00    +0.000 HD
ENDROOT
BRANCH   1   9
ATOM      3  C   UNL     1      46.812   5.202  13.418  0.00  0.00    +0.000 C 
ATOM      4  C   UNL     1      47.229   6.562  12.936  0.00  0.00    +0.000 A 
ATOM      5  C   UNL     1      48.606   6.843  12.841  0.00  0.00    +0.000 A 
ATOM      6  C   UNL     1      49.048   8.084  12.392  0.00  0.00    +0.000 A 
ATOM      7  C   UNL     1      48.077   8.997  12.038  0.00  0.00    +0.000 A 
ATOM      8  N   UNL     1      46.744   8.757  12.112  0.00  0.00    +0.000 NA
ATOM      9  C   UNL     1      46.314   7.560  12.566  0.00  0.00    +0.000 A 
BRANCH   6  10
ATOM     10  C   UNL     1      50.506   8.352  12.318  0.00  0.00    +0.000 C 
ATOM     11  N   UNL     1      51.325   7.853  13.291  0.00  0.00    +0.000 N 
ATOM     12  O   UNL     1      50.982   9.008  11.401  0.00  0.00    +0.000 OA
ATOM     13  H   UNL     1      51.043   7.298  14.084  0.00  0.00    +0.000 HD
ATOM     14  H   UNL     1      52.312   8.058  13.194  0.00  0.00    +0.000 HD
ENDBRANCH   6  10
ENDBRANCH   1   9
BRANCH   1  15
ATOM     15  C   UNL     1      44.131   7.028  11.539  0.00  0.00    +0.000 C 
BRANCH  15  16
ATOM     16  C   UNL     1      44.051   5.530  11.297  0.00  0.00    +0.000 A 
ATOM     17  C   UNL     1      43.224   4.745  12.096  0.00  0.00    +0.000 A 
ATOM     18  C   UNL     1      43.137   3.384  11.846  0.00  0.00    +0.000 A 
ATOM     19  C   UNL     1      43.872   2.839  10.800  0.00  0.00    +0.000 A 
ATOM     20  C   UNL     1      44.675   3.671  10.018  0.00  0.00    +0.000 A 
ATOM     21  N   UNL     1      44.775   5.005  10.268  0.00  0.00    +0.000 NA
BRANCH  20  22
ATOM     22  C   UNL     1      45.456   3.160   8.869  0.00  0.00    +0.000 A 
ATOM     23  C   UNL     1      45.948   4.019   7.865  0.00  0.00    +0.000 A 
ATOM     24  C   UNL     1      46.665   3.534   6.767  0.00  0.00    +0.000 A 
ATOM     25  C   UNL     1      46.918   2.171   6.655  0.00  0.00    +0.000 A 
ATOM     26  C   UNL     1      46.458   1.305   7.642  0.00  0.00    +0.000 A 
ATOM     27 CL   UNL     1      46.774  -0.382   7.504  0.00  0.00    +0.000 Cl
ATOM     28  C   UNL     1      45.739   1.790   8.738  0.00  0.00    +0.000 A 
ENDBRANCH  20  22
ENDBRANCH  15  16
ENDBRANCH   1  15
TORSDOF 5
ENDMDL
MODEL 3
REMARK VINA RESULT:    -8.226      3.785      7.387
REMARK INTER + INTRA:         -10.927
REMARK INTER:                 -10.386
REMARK INTRA:                  -0.541
REMARK UNBOUND:                -0.296
REMARK  Name = 
REMARK  6 active torsions:
REMARK  status: ('A' for Active; 'I' for Inactive)
REMARK    1  A    between atoms: C_1  and  C_2
REMARK    2  A    between atoms: C_4  and  C_5
REMARK    3  A    between atoms: C_10  and  N_11
REMARK    4  A    between atoms: N_11  and  C_12
REMARK    5  A    between atoms: C_12  and  C_13
REMARK    6  A    between atoms: C_17  and  C_18
REMARK                            x       y       z     vdW  Elec       q    Type
REMARK                         _______ _______ _______ _____ _____    ______ ____
ROOT
ATOM      1  N   UNL     1      47.393   6.578  12.414  0.00  0.00    +0.000 N 
ATOM      2  H   UNL     1      48.247   6.857  11.960  0.00  0.00    +0.000 HD
ENDROOT
BRANCH   1   9
ATOM      3  C   UNL     1      49.069   7.578  14.623  0.00  0.00    +0.000 C 
ATOM      4  C   UNL     1      48.236   6.328  14.675  0.00  0.00    +0.000 A 
ATOM      5  C   UNL     1      48.265   5.556  15.852  0.00  0.00    +0.000 A 
ATOM      6  C   UNL     1      47.507   4.393  15.957  0.00  0.00    +0.000 A 
ATOM      7  C   UNL     1      46.728   4.060  14.868  0.00  0.00    +0.000 A 
ATOM      8  N   UNL     1      46.673   4.784  13.723  0.00  0.00    +0.000 NA
ATOM      9  C   UNL     1      47.424   5.901  13.612  0.00  0.00    +0.000 A 
BRANCH   6  10
ATOM     10  C   UNL     1      47.572   3.594  17.206  0.00  0.00    +0.000 C 
ATOM     11  N   UNL     1      48.673   3.702  18.009  0.00  0.00    +0.000 N 
ATOM     12  O   UNL     1      46.657   2.847  17.526  0.00  0.00    +0.000 OA
ATOM     13  H   UNL     1      49.476   4.287  17.846  0.00  0.00    +0.000 HD
ATOM     14  H   UNL     1      48.668   3.141  18.853  0.00  0.00    +0.000 HD
ENDBRANCH   6  10
ENDBRANCH   1   9
BRANCH   1  15
ATOM     15  C   UNL     1      46.150   7.114  11.877  0.00  0.00    +0.000 C 
BRANCH  15  16
ATOM     16  C   UNL     1      45.297   6.056  11.197  0.00  0.00    +0.000 A 
ATOM     17  C   UNL     1      43.958   5.918  11.551  0.00  0.00    +0.000 A 
ATOM     18  C   UNL     1      43.182   4.969  10.902  0.00  0.00    +0.000 A 
ATOM     19  C   UNL     1      43.759   4.186   9.911  0.00  0.00    +0.000 A 
ATOM     20  C   UNL     1      45.103   4.373   9.582  0.00  0.00    +0.000 A 
ATOM     21  N   UNL     1      45.873   5.292  10.226  0.00  0.00    +0.000 NA
BRANCH  20  22
ATOM     22  C   UNL     1      45.769   3.594   8.514  0.00  0.00    +0.000 A 
ATOM     23  C   UNL     1      46.308   4.215   7.368  0.00  0.00    +0.000 A 
ATOM     24  C   UNL     1      46.915   3.479   6.347  0.00  0.00    +0.000 A 
ATOM     25  C   UNL     1      47.009   2.095   6.456  0.00  0.00    +0.000 A 
ATOM     26  C   UNL     1      46.500   1.461   7.586  0.00  0.00    +0.000 A 
ATOM     27 CL   UNL     1      46.620  -0.252   7.721  0.00  0.00    +0.000 Cl
ATOM     28  C   UNL     1      45.891   2.197   8.604  0.00  0.00    +0.000 A 
ENDBRANCH  20  22
ENDBRANCH  15  16
ENDBRANCH   1  15
TORSDOF 5
ENDMDL
MODEL 4
REMARK VINA RESULT:    -7.578      5.204      7.150
REMARK INTER + INTRA:         -10.088
REMARK INTER:                  -9.517
REMARK INTRA:                  -0.571
REMARK UNBOUND:                -0.296
REMARK  Name = 
REMARK  6 active torsions:
REMARK  status: ('A' for Active; 'I' for Inactive)
REMARK    1  A    between atoms: C_1  and  C_2
REMARK    2  A    between atoms: C_4  and  C_5
REMARK    3  A    between atoms: C_10  and  N_11
REMARK    4  A    between atoms: N_11  and  C_12
REMARK    5  A    between atoms: C_12  and  C_13
REMARK    6  A    between atoms: C_17  and  C_18
REMARK                            x       y       z     vdW  Elec       q    Type
REMARK                         _______ _______ _______ _____ _____    ______ ____
ROOT
ATOM      1  N   UNL     1      46.788   5.189  14.799  0.00  0.00    +0.000 N 
ATOM      2  H   UNL     1      47.095   6.133  14.969  0.00  0.00    +0.000 HD
ENDROOT
BRANCH   1   9
ATOM      3  C   UNL     1      46.346   7.243  12.733  0.00  0.00    +0.000 C 
ATOM      4  C   UNL     1      46.000   5.788  12.584  0.00  0.00    +0.000 A 
ATOM      5  C   UNL     1      45.402   5.363  11.383  0.00  0.00    +0.000 A 
ATOM      6  C   UNL     1      45.069   4.026  11.189  0.00  0.00    +0.000 A 
ATOM      7  C   UNL     1      45.371   3.157  12.218  0.00  0.00    +0.000 A 
ATOM      8  N   UNL     1      45.952   3.532  13.385  0.00  0.00    +0.000 NA
ATOM      9  C   UNL     1      46.257   4.833  13.581  0.00  0.00    +0.000 A 
BRANCH   6  10
ATOM     10  C   UNL     1      44.425   3.614   9.918  0.00  0.00    +0.000 C 
ATOM     11  N   UNL     1      43.969   4.576   9.060  0.00  0.00    +0.000 N 
ATOM     12  O   UNL     1      44.300   2.432   9.627  0.00  0.00    +0.000 OA
ATOM     13  H   UNL     1      44.025   5.572   9.196  0.00  0.00    +0.000 HD
ATOM     14  H   UNL     1      43.542   4.245   8.203  0.00  0.00    +0.000 HD
ENDBRANCH   6  10
ENDBRANCH   1   9
BRANCH   1  15
ATOM     15  C   UNL     1      47.138   4.189  15.797  0.00  0.00    +0.000 C 
BRANCH  15  16
ATOM     16  C   UNL     1      48.326   4.599  16.651  0.00  0.00    +0.000 A 
ATOM     17  C   UNL     1      48.327   5.841  17.282  0.00  0.00    +0.000 A 
ATOM     18  C   UNL     1      49.404   6.191  18.083  0.00  0.00    +0.000 A 
ATOM     19  C   UNL     1      50.450   5.291  18.242  0.00  0.00    +0.000 A 
ATOM     20  C   UNL     1      50.395   4.053  17.601  0.00  0.00    +0.000 A 
ATOM     21  N   UNL     1      49.348   3.709  16.801  0.00  0.00    +0.000 NA
BRANCH  20  22
ATOM     22  C   UNL     1      51.461   3.037  17.755  0.00  0.00    +0.000 A 
ATOM     23  C   UNL     1      51.272   1.696  17.361  0.00  0.00    +0.000 A 
ATOM     24  C   UNL     1      52.269   0.731  17.529  0.00  0.00    +0.000 A 
ATOM     25  C   UNL     1      53.491   1.091  18.087  0.00  0.00    +0.000 A 
ATOM     26  C   UNL     1      53.708   2.412  18.467  0.00  0.00    +0.000 A 
ATOM     27 CL   UNL     1      55.223   2.857  19.155  0.00  0.00    +0.000 Cl
ATOM     28  C   UNL     1      52.710   3.376  18.302  0.00  0.00    +0.000 A 
ENDBRANCH  20  22
ENDBRANCH  15  16
ENDBRANCH   1  15
TORSDOF 5
ENDMDL
MODEL 5
REMARK VINA RESULT:    -7.569      1.762      2.565
REMARK INTER + INTRA:         -10.077
REMARK INTER:                  -9.244
REMARK INTRA:                  -0.833
REMARK UNBOUND:                -0.296
REMARK  Name = 
REMARK  6 active torsions:
REMARK  status: ('A' for Active; 'I' for Inactive)
REMARK    1  A    between atoms: C_1  and  C_2
REMARK    2  A    between atoms: C_4  and  C_5
REMARK    3  A    between atoms: C_10  and  N_11
REMARK    4  A    between atoms: N_11  and  C_12
REMARK    5  A    between atoms: C_12  and  C_13
REMARK    6  A    between atoms: C_17  and  C_18
REMARK                            x       y       z     vdW  Elec       q    Type
REMARK                         _______ _______ _______ _____ _____    ______ ____
ROOT
ATOM      1  N   UNL     1      44.125   2.164  10.473  0.00  0.00    +0.000 N 
ATOM      2  H   UNL     1      43.134   2.023  10.361  0.00  0.00    +0.000 HD
ENDROOT
BRANCH   1   9
ATOM      3  C   UNL     1      44.163   4.715   8.997  0.00  0.00    +0.000 C 
ATOM      4  C   UNL     1      44.962   3.497   8.627  0.00  0.00    +0.000 A 
ATOM      5  C   UNL     1      45.777   3.556   7.481  0.00  0.00    +0.000 A 
ATOM      6  C   UNL     1      46.544   2.460   7.096  0.00  0.00    +0.000 A 
ATOM      7  C   UNL     1      46.471   1.341   7.900  0.00  0.00    +0.000 A 
ATOM      8  N   UNL     1      45.701   1.253   9.013  0.00  0.00    +0.000 NA
ATOM      9  C   UNL     1      44.941   2.309   9.375  0.00  0.00    +0.000 A 
BRANCH   6  10
ATOM     10  C   UNL     1      47.380   2.551   5.875  0.00  0.00    +0.000 C 
ATOM     11  N   UNL     1      48.658   2.068   5.905  0.00  0.00    +0.000 N 
ATOM     12  O   UNL     1      46.942   3.048   4.845  0.00  0.00    +0.000 OA
ATOM     13  H   UNL     1      49.116   1.636   6.692  0.00  0.00    +0.000 HD
ATOM     14  H   UNL     1      49.188   2.148   5.045  0.00  0.00    +0.000 HD
ENDBRANCH   6  10
ENDBRANCH   1   9
BRANCH   1  15
ATOM     15  C   UNL     1      44.608   2.434  11.820  0.00  0.00    +0.000 C 
BRANCH  15  16
ATOM     16  C   UNL     1      44.492   3.900  12.204  0.00  0.00    +0.000 A 
ATOM     17  C   UNL     1      43.265   4.411  12.616  0.00  0.00    +0.000 A 
ATOM     18  C   UNL     1      43.179   5.743  12.993  0.00  0.00    +0.000 A 
ATOM     19  C   UNL     1      44.323   6.531  12.957  0.00  0.00    +0.000 A 
ATOM     20  C   UNL     1      45.533   5.968  12.551  0.00  0.00    +0.000 A 
ATOM     21  N   UNL     1      45.620   4.665  12.166  0.00  0.00    +0.000 NA
BRANCH  20  22
ATOM     22  C   UNL     1      46.793   6.744  12.522  0.00  0.00    +0.000 A 
ATOM     23  C   UNL     1      48.017   6.191  12.953  0.00  0.00    +0.000 A 
ATOM     24  C   UNL     1      49.202   6.931  12.950  0.00  0.00    +0.000 A 
ATOM     25  C   UNL     1      49.194   8.247  12.498  0.00  0.00    +0.000 A 
ATOM     26  C   UNL     1      48.002   8.810  12.050  0.00  0.00    +0.000 A 
ATOM     27 CL   UNL     1      47.992  10.438  11.489  0.00  0.00    +0.000 Cl
ATOM     28  C   UNL     1      46.816   8.071  12.057  0.00  0.00    +0.000 A 
ENDBRANCH  20  22
ENDBRANCH  15  16
ENDBRANCH   1  15
TORSDOF 5
ENDMDL
MODEL 6
REMARK VINA RESULT:    -7.451      4.079      7.694
REMARK INTER + INTRA:          -9.924
REMARK INTER:                  -9.097
REMARK INTRA:                  -0.828
REMARK UNBOUND:                -0.296
REMARK  Name = 
REMARK  6 active torsions:
REMARK  status: ('A' for Active; 'I' for Inactive)
REMARK    1  A    between atoms: C_1  and  C_2
REMARK    2  A    between atoms: C_4  and  C_5
REMARK    3  A    between atoms: C_10  and  N_11
REMARK    4  A    between atoms: N_11  and  C_12
REMARK    5  A    between atoms: C_12  and  C_13
REMARK    6  A    between atoms: C_17  and  C_18
REMARK                            x       y       z     vdW  Elec       q    Type
REMARK                         _______ _______ _______ _____ _____    ______ ____
ROOT
ATOM      1  N   UNL     1      47.080   4.481  13.697  0.00  0.00    +0.000 N 
ATOM      2  H   UNL     1      47.522   3.858  13.041  0.00  0.00    +0.000 HD
ENDROOT
BRANCH   1   9
ATOM      3  C   UNL     1      47.459   6.891  12.044  0.00  0.00    +0.000 C 
ATOM      4  C   UNL     1      47.992   6.714  13.438  0.00  0.00    +0.000 A 
ATOM      5  C   UNL     1      48.748   7.760  14.002  0.00  0.00    +0.000 A 
ATOM      6  C   UNL     1      49.258   7.652  15.292  0.00  0.00    +0.000 A 
ATOM      7  C   UNL     1      48.970   6.490  15.977  0.00  0.00    +0.000 A 
ATOM      8  N   UNL     1      48.241   5.466  15.466  0.00  0.00    +0.000 NA
ATOM      9  C   UNL     1      47.762   5.562  14.207  0.00  0.00    +0.000 A 
BRANCH   6  10
ATOM     10  C   UNL     1      50.064   8.766  15.850  0.00  0.00    +0.000 C 
ATOM     11  N   UNL     1      49.468   9.660  16.696  0.00  0.00    +0.000 N 
ATOM     12  O   UNL     1      51.248   8.892  15.568  0.00  0.00    +0.000 OA
ATOM     13  H   UNL     1      48.507   9.647  16.998  0.00  0.00    +0.000 HD
ATOM     14  H   UNL     1      50.060  10.399  17.055  0.00  0.00    +0.000 HD
ENDBRANCH   6  10
ENDBRANCH   1   9
BRANCH   1  15
ATOM     15  C   UNL     1      45.647   4.323  13.899  0.00  0.00    +0.000 C 
BRANCH  15  16
ATOM     16  C   UNL     1      44.859   4.383  12.601  0.00  0.00    +0.000 A 
ATOM     17  C   UNL     1      43.599   4.975  12.585  0.00  0.00    +0.000 A 
ATOM     18  C   UNL     1      42.903   5.051  11.389  0.00  0.00    +0.000 A 
ATOM     19  C   UNL     1      43.483   4.541  10.234  0.00  0.00    +0.000 A 
ATOM     20  C   UNL     1      44.755   3.970  10.299  0.00  0.00    +0.000 A 
ATOM     21  N   UNL     1      45.437   3.880  11.473  0.00  0.00    +0.000 NA
BRANCH  20  22
ATOM     22  C   UNL     1      45.442   3.439   9.101  0.00  0.00    +0.000 A 
ATOM     23  C   UNL     1      45.861   4.280   8.049  0.00  0.00    +0.000 A 
ATOM     24  C   UNL     1      46.487   3.777   6.907  0.00  0.00    +0.000 A 
ATOM     25  C   UNL     1      46.724   2.411   6.794  0.00  0.00    +0.000 A 
ATOM     26  C   UNL     1      46.337   1.561   7.827  0.00  0.00    +0.000 A 
ATOM     27 CL   UNL     1      46.633  -0.130   7.688  0.00  0.00    +0.000 Cl
ATOM     28  C   UNL     1      45.707   2.065   8.967  0.00  0.00    +0.000 A 
ENDBRANCH  20  22
ENDBRANCH  15  16
ENDBRANCH   1  15
TORSDOF 5
ENDMDL
MODEL 7
REMARK VINA RESULT:    -7.443      4.486      7.896
REMARK INTER + INTRA:          -9.914
REMARK INTER:                  -9.372
REMARK INTRA:                  -0.542
REMARK UNBOUND:                -0.296
REMARK  Name = 
REMARK  6 active torsions:
REMARK  status: ('A' for Active; 'I' for Inactive)
REMARK    1  A    between atoms: C_1  and  C_2
REMARK    2  A    between atoms: C_4  and  C_5
REMARK    3  A    between atoms: C_10  and  N_11
REMARK    4  A    between atoms: N_11  and  C_12
REMARK    5  A    between atoms: C_12  and  C_13
REMARK    6  A    between atoms: C_17  and  C_18
REMARK                            x       y       z     vdW  Elec       q    Type
REMARK                         _______ _______ _______ _____ _____    ______ ____
ROOT
ATOM      1  N   UNL     1      46.523   5.107  14.384  0.00  0.00    +0.000 N 
ATOM      2  H   UNL     1      46.119   4.190  14.482  0.00  0.00    +0.000 HD
ENDROOT
BRANCH   1   9
ATOM      3  C   UNL     1      47.133   3.751  16.928  0.00  0.00    +0.000 C 
ATOM      4  C   UNL     1      47.954   4.857  16.327  0.00  0.00    +0.000 A 
ATOM      5  C   UNL     1      49.089   5.303  17.030  0.00  0.00    +0.000 A 
ATOM      6  C   UNL     1      49.890   6.319  16.515  0.00  0.00    +0.000 A 
ATOM      7  C   UNL     1      49.520   6.839  15.292  0.00  0.00    +0.000 A 
ATOM      8  N   UNL     1      48.436   6.428  14.586  0.00  0.00    +0.000 NA
ATOM      9  C   UNL     1      47.648   5.457  15.095  0.00  0.00    +0.000 A 
BRANCH   6  10
ATOM     10  C   UNL     1      51.070   6.776  17.288  0.00  0.00    +0.000 C 
ATOM     11  N   UNL     1      51.987   5.855  17.710  0.00  0.00    +0.000 N 
ATOM     12  O   UNL     1      51.235   7.961  17.548  0.00  0.00    +0.000 OA
ATOM     13  H   UNL     1      51.955   4.861  17.548  0.00  0.00    +0.000 HD
ATOM     14  H   UNL     1      52.778   6.217  18.230  0.00  0.00    +0.000 HD
ENDBRANCH   6  10
ENDBRANCH   1   9
BRANCH   1  15
ATOM     15  C   UNL     1      46.013   5.946  13.309  0.00  0.00    +0.000 C 
BRANCH  15  16
ATOM     16  C   UNL     1      45.105   5.191  12.353  0.00  0.00    +0.000 A 
ATOM     17  C   UNL     1      43.741   5.103  12.619  0.00  0.00    +0.000 A 
ATOM     18  C   UNL     1      42.919   4.437  11.723  0.00  0.00    +0.000 A 
ATOM     19  C   UNL     1      43.476   3.880  10.579  0.00  0.00    +0.000 A 
ATOM     20  C   UNL     1      44.846   4.008  10.349  0.00  0.00    +0.000 A 
ATOM     21  N   UNL     1      45.661   4.648  11.232  0.00  0.00    +0.000 NA
BRANCH  20  22
ATOM     22  C   UNL     1      45.495   3.466   9.134  0.00  0.00    +0.000 A 
ATOM     23  C   UNL     1      45.893   4.301   8.070  0.00  0.00    +0.000 A 
ATOM     24  C   UNL     1      46.484   3.789   6.912  0.00  0.00    +0.000 A 
ATOM     25  C   UNL     1      46.704   2.420   6.797  0.00  0.00    +0.000 A 
ATOM     26  C   UNL     1      46.336   1.577   7.841  0.00  0.00    +0.000 A 
ATOM     27 CL   UNL     1      46.612  -0.117   7.700  0.00  0.00    +0.000 Cl
ATOM     28  C   UNL     1      45.743   2.090   8.997  0.00  0.00    +0.000 A 
ENDBRANCH  20  22
ENDBRANCH  15  16
ENDBRANCH   1  15
TORSDOF 5
ENDMDL
MODEL 8
REMARK VINA RESULT:    -7.359      5.072      7.915
REMARK INTER + INTRA:          -9.805
REMARK INTER:                  -9.019
REMARK INTRA:                  -0.787
REMARK UNBOUND:                -0.296
REMARK  Name = 
REMARK  6 active torsions:
REMARK  status: ('A' for Active; 'I' for Inactive)
REMARK    1  A    between atoms: C_1  and  C_2
REMARK    2  A    between atoms: C_4  and  C_5
REMARK    3  A    between atoms: C_10  and  N_11
REMARK    4  A    between atoms: N_11  and  C_12
REMARK    5  A    between atoms: C_12  and  C_13
REMARK    6  A    between atoms: C_17  and  C_18
REMARK                            x       y       z     vdW  Elec       q    Type
REMARK                         _______ _______ _______ _____ _____    ______ ____
ROOT
ATOM      1  N   UNL     1      48.295   5.995  16.564  0.00  0.00    +0.000 N 
ATOM      2  H   UNL     1      47.300   5.889  16.678  0.00  0.00    +0.000 HD
ENDROOT
BRANCH   1   9
ATOM      3  C   UNL     1      47.221   3.288  17.013  0.00  0.00    +0.000 C 
ATOM      4  C   UNL     1      48.672   3.663  17.115  0.00  0.00    +0.000 A 
ATOM      5  C   UNL     1      49.596   2.663  17.472  0.00  0.00    +0.000 A 
ATOM      6  C   UNL     1      50.954   2.954  17.573  0.00  0.00    +0.000 A 
ATOM      7  C   UNL     1      51.333   4.250  17.292  0.00  0.00    +0.000 A 
ATOM      8  N   UNL     1      50.469   5.236  16.941  0.00  0.00    +0.000 NA
ATOM      9  C   UNL     1      49.150   4.959  16.862  0.00  0.00    +0.000 A 
BRANCH   6  10
ATOM     10  C   UNL     1      51.899   1.880  17.966  0.00  0.00    +0.000 C 
ATOM     11  N   UNL     1      51.490   0.577  17.905  0.00  0.00    +0.000 N 
ATOM     12  O   UNL     1      53.036   2.143  18.338  0.00  0.00    +0.000 OA
ATOM     13  H   UNL     1      50.585   0.248  17.609  0.00  0.00    +0.000 HD
ATOM     14  H   UNL     1      52.173  -0.120  18.178  0.00  0.00    +0.000 HD
ENDBRANCH   6  10
ENDBRANCH   1   9
BRANCH   1  15
ATOM     15  C   UNL     1      48.759   7.186  15.866  0.00  0.00    +0.000 C 
BRANCH  15  16
ATOM     16  C   UNL     1      48.427   7.166  14.383  0.00  0.00    +0.000 A 
ATOM     17  C   UNL     1      49.280   7.791  13.477  0.00  0.00    +0.000 A 
ATOM     18  C   UNL     1      48.983   7.740  12.124  0.00  0.00    +0.000 A 
ATOM     19  C   UNL     1      47.845   7.062  11.706  0.00  0.00    +0.000 A 
ATOM     20  C   UNL     1      47.030   6.439  12.652  0.00  0.00    +0.000 A 
ATOM     21  N   UNL     1      47.309   6.497  13.983  0.00  0.00    +0.000 NA
BRANCH  20  22
ATOM     22  C   UNL     1      45.823   5.672  12.270  0.00  0.00    +0.000 A 
ATOM     23  C   UNL     1      44.882   5.241  13.228  0.00  0.00    +0.000 A 
ATOM     24  C   UNL     1      43.755   4.496  12.871  0.00  0.00    +0.000 A 
ATOM     25  C   UNL     1      43.534   4.174  11.536  0.00  0.00    +0.000 A 
ATOM     26  C   UNL     1      44.439   4.603  10.569  0.00  0.00    +0.000 A 
ATOM     27 CL   UNL     1      44.163   4.207   8.916  0.00  0.00    +0.000 Cl
ATOM     28  C   UNL     1      45.567   5.345  10.927  0.00  0.00    +0.000 A 
ENDBRANCH  20  22
ENDBRANCH  15  16
ENDBRANCH   1  15
TORSDOF 5
ENDMDL
MODEL 9
REMARK VINA RESULT:    -7.215      4.817      8.083
REMARK INTER + INTRA:          -9.619
REMARK INTER:                  -9.051
REMARK INTRA:                  -0.568
REMARK UNBOUND:                -0.296
REMARK  Name = 
REMARK  6 active torsions:
REMARK  status: ('A' for Active; 'I' for Inactive)
REMARK    1  A    between atoms: C_1  and  C_2
REMARK    2  A    between atoms: C_4  and  C_5
REMARK    3  A    between atoms: C_10  and  N_11
REMARK    4  A    between atoms: N_11  and  C_12
REMARK    5  A    between atoms: C_12  and  C_13
REMARK    6  A    between atoms: C_17  and  C_18
REMARK                            x       y       z     vdW  Elec       q    Type
REMARK                         _______ _______ _______ _____ _____    ______ ____
ROOT
ATOM      1  N   UNL     1      47.949   6.438  15.446  0.00  0.00    +0.000 N 
ATOM      2  H   UNL     1      46.976   6.417  15.703  0.00  0.00    +0.000 HD
ENDROOT
BRANCH   1   9
ATOM      3  C   UNL     1      47.161   4.020  16.935  0.00  0.00    +0.000 C 
ATOM      4  C   UNL     1      48.540   4.616  16.934  0.00  0.00    +0.000 A 
ATOM      5  C   UNL     1      49.535   3.997  17.714  0.00  0.00    +0.000 A 
ATOM      6  C   UNL     1      50.832   4.502  17.744  0.00  0.00    +0.000 A 
ATOM      7  C   UNL     1      51.082   5.613  16.965  0.00  0.00    +0.000 A 
ATOM      8  N   UNL     1      50.148   6.230  16.198  0.00  0.00    +0.000 NA
ATOM      9  C   UNL     1      48.885   5.752  16.185  0.00  0.00    +0.000 A 
BRANCH   6  10
ATOM     10  C   UNL     1      51.852   3.834  18.589  0.00  0.00    +0.000 C 
ATOM     11  N   UNL     1      51.940   4.163  19.912  0.00  0.00    +0.000 N 
ATOM     12  O   UNL     1      52.609   2.994  18.120  0.00  0.00    +0.000 OA
ATOM     13  H   UNL     1      51.367   4.832  20.401  0.00  0.00    +0.000 HD
ATOM     14  H   UNL     1      52.649   3.677  20.448  0.00  0.00    +0.000 HD
ENDBRANCH   6  10
ENDBRANCH   1   9
BRANCH   1  15
ATOM     15  C   UNL     1      48.280   7.022  14.154  0.00  0.00    +0.000 C 
BRANCH  15  16
ATOM     16  C   UNL     1      47.065   7.203  13.260  0.00  0.00    +0.000 A 
ATOM     17  C   UNL     1      46.455   8.451  13.168  0.00  0.00    +0.000 A 
ATOM     18  C   UNL     1      45.365   8.610  12.325  0.00  0.00    +0.000 A 
ATOM     19  C   UNL     1      44.914   7.522  11.589  0.00  0.00    +0.000 A 
ATOM     20  C   UNL     1      45.568   6.295  11.705  0.00  0.00    +0.000 A 
ATOM     21  N   UNL     1      46.629   6.129  12.541  0.00  0.00    +0.000 NA
BRANCH  20  22
ATOM     22  C   UNL     1      45.158   5.106  10.925  0.00  0.00    +0.000 A 
ATOM     23  C   UNL     1      44.330   4.105  11.475  0.00  0.00    +0.000 A 
ATOM     24  C   UNL     1      43.963   2.970  10.747  0.00  0.00    +0.000 A 
ATOM     25  C   UNL     1      44.407   2.815   9.439  0.00  0.00    +0.000 A 
ATOM     26  C   UNL     1      45.211   3.797   8.867  0.00  0.00    +0.000 A 
ATOM     27 CL   UNL     1      45.759   3.606   7.246  0.00  0.00    +0.000 Cl
ATOM     28  C   UNL     1      45.581   4.930   9.596  0.00  0.00    +0.000 A 
ENDBRANCH  20  22
ENDBRANCH  15  16
ENDBRANCH   1  15
TORSDOF 5
ENDMDL
