MODEL 1
REMARK VINA RESULT:    -7.609      0.000      0.000
REMARK INTER + INTRA:         -11.577
REMARK INTER:                 -10.277
REMARK INTRA:                  -1.300
REMARK UNBOUND:                -1.300
REMARK  Name = 
REMARK  7 active torsions:
REMARK  status: ('A' for Active; 'I' for Inactive)
REMARK    1  A    between atoms: C_1  and  N_2
REMARK    2  A    between atoms: N_2  and  C_3
REMARK    3  A    between atoms: C_3  and  C_4
REMARK    4  A    between atoms: C_7  and  C_8
REMARK    5  A    between atoms: C_8  and  O_9
REMARK    6  A    between atoms: O_9  and  C_10
REMARK    7  A    between atoms: C_18  and  C_20
REMARK                            x       y       z     vdW  Elec       q    Type
REMARK                         _______ _______ _______ _____ _____    ______ ____
ROOT
ATOM      1  C   UNL     1      46.025   8.577  12.190  0.00  0.00    +0.000 C 
ATOM      2  N   UNL     1      45.871   7.130  12.084  0.00  0.00    +0.000 N 
ATOM      3  C   UNL     1      44.638   6.675  11.584  0.00  0.00    +0.000 C 
ATOM      4  O   UNL     1      43.748   7.466  11.273  0.00  0.00    +0.000 OA
ENDROOT
BRANCH   3   5
ATOM      5  C   UNL     1      44.393   5.231  11.468  0.00  0.00    +0.000 A 
ATOM      6  C   UNL     1      43.655   4.485  12.373  0.00  0.00    +0.000 A 
ATOM      7  S   UNL     1      43.485   2.846  11.928  0.00  0.00    +0.000 S 
ATOM      8  C   UNL     1      44.269   3.114  10.443  0.00  0.00    +0.000 A 
ATOM      9  N   UNL     1      44.365   2.128   9.513  0.00  0.00    +0.000 NA
ATOM     10  C   UNL     1      44.921   2.497   8.408  0.00  0.00    +0.000 A 
ATOM     11  N   UNL     1      45.425   3.750   8.164  0.00  0.00    +0.000 N 
ATOM     12  C   UNL     1      45.476   4.737   9.125  0.00  0.00    +0.000 A 
ATOM     13  O   UNL     1      46.150   5.745   8.959  0.00  0.00    +0.000 OA
ATOM     14  C   UNL     1      44.743   4.408  10.336  0.00  0.00    +0.000 A 
ATOM     15  H   UNL     1      45.913   3.950   7.305  0.00  0.00    +0.000 HD
ENDBRANCH   3   5
BRANCH   2  16
ATOM     16  C   UNL     1      47.035   6.254  12.255  0.00  0.00    +0.000 C 
BRANCH  16  17
ATOM     17  C   UNL     1      47.403   5.861  13.660  0.00  0.00    +0.000 A 
ATOM     18  C   UNL     1      48.298   6.644  14.407  0.00  0.00    +0.000 A 
ATOM     19  C   UNL     1      48.652   6.266  15.702  0.00  0.00    +0.000 A 
ATOM     20  C   UNL     1      48.122   5.100  16.265  0.00  0.00    +0.000 A 
ATOM     21  C   UNL     1      47.203   4.338  15.530  0.00  0.00    +0.000 A 
ATOM     22  C   UNL     1      46.855   4.709  14.235  0.00  0.00    +0.000 A 
BRANCH  20  23
ATOM     23  C   UNL     1      48.552   4.652  17.635  0.00  0.00    +0.000 C 
BRANCH  23  24
ATOM     24  O   UNL     1      49.947   4.885  17.809  0.00  0.00    +0.000 OA
BRANCH  24  25
ATOM     25  C   UNL     1      50.741   3.769  17.765  0.00  0.00    +0.000 A 
ATOM     26  C   UNL     1      50.338   2.505  17.345  0.00  0.00    +0.000 A 
ATOM     27  C   UNL     1      51.267   1.479  17.359  0.00  0.00    +0.000 A 
ATOM     28  N   UNL     1      52.548   1.634  17.759  0.00  0.00    +0.000 NA
ATOM     29  C   UNL     1      52.912   2.870  18.164  0.00  0.00    +0.000 A 
ATOM     30  C   UNL     1      52.053   3.957  18.186  0.00  0.00    +0.000 A 
ENDBRANCH  24  25
ENDBRANCH  23  24
ENDBRANCH  20  23
ENDBRANCH  16  17
ENDBRANCH   2  16
TORSDOF 6
ENDMDL
MODEL 2
REMARK VINA RESULT:    -7.351      3.227      8.596
REMARK INTER + INTRA:         -11.229
REMARK INTER:                 -10.088
REMARK INTRA:                  -1.141
REMARK UNBOUND:                -1.300
REMARK  Name = 
REMARK  7 active torsions:
REMARK  status: ('A' for Active; 'I' for Inactive)
REMARK    1  A    between atoms: C_1  and  N_2
REMARK    2  A    between atoms: N_2  and  C_3
REMARK    3  A    between atoms: C_3  and  C_4
REMARK    4  A    between atoms: C_7  and  C_8
REMARK    5  A    between atoms: C_8  and  O_9
REMARK    6  A    between atoms: O_9  and  C_10
REMARK    7  A    between atoms: C_18  and  C_20
REMARK                            x       y       z     vdW  Elec       q    Type
REMARK                         _______ _______ _______ _____ _____    ______ ____
ROOT
ATOM      1  C   UNL     1      49.401   7.577  12.797  0.00  0.00    +0.000 C 
ATOM      2  N   UNL     1      48.596   7.034  13.887  0.00  0.00    +0.000 N 
ATOM      3  C   UNL     1      49.293   6.701  15.062  0.00  0.00    +0.000 C 
ATOM      4  O   UNL     1      50.511   6.852  15.143  0.00  0.00    +0.000 OA
ENDROOT
BRANCH   3   5
ATOM      5  C   UNL     1      48.560   6.127  16.199  0.00  0.00    +0.000 A 
ATOM      6  C   UNL     1      48.145   4.807  16.278  0.00  0.00    +0.000 A 
ATOM      7  S   UNL     1      47.381   4.420  17.755  0.00  0.00    +0.000 S 
ATOM      8  C   UNL     1      47.710   5.963  18.389  0.00  0.00    +0.000 A 
ATOM      9  N   UNL     1      47.414   6.268  19.680  0.00  0.00    +0.000 NA
ATOM     10  C   UNL     1      47.785   7.450  20.041  0.00  0.00    +0.000 A 
ATOM     11  N   UNL     1      48.389   8.368  19.219  0.00  0.00    +0.000 N 
ATOM     12  C   UNL     1      48.580   8.154  17.871  0.00  0.00    +0.000 A 
ATOM     13  O   UNL     1      48.884   9.074  17.123  0.00  0.00    +0.000 OA
ATOM     14  C   UNL     1      48.299   6.791  17.453  0.00  0.00    +0.000 A 
ATOM     15  H   UNL     1      48.587   9.301  19.547  0.00  0.00    +0.000 HD
ENDBRANCH   3   5
BRANCH   2  16
ATOM     16  C   UNL     1      47.133   7.087  13.814  0.00  0.00    +0.000 C 
BRANCH  16  17
ATOM     17  C   UNL     1      46.451   6.114  12.890  0.00  0.00    +0.000 A 
ATOM     18  C   UNL     1      46.032   4.859  13.361  0.00  0.00    +0.000 A 
ATOM     19  C   UNL     1      45.419   3.952  12.497  0.00  0.00    +0.000 A 
ATOM     20  C   UNL     1      45.223   4.284  11.152  0.00  0.00    +0.000 A 
ATOM     21  C   UNL     1      45.612   5.550  10.692  0.00  0.00    +0.000 A 
ATOM     22  C   UNL     1      46.231   6.453  11.551  0.00  0.00    +0.000 A 
BRANCH  20  23
ATOM     23  C   UNL     1      44.624   3.285  10.200  0.00  0.00    +0.000 C 
BRANCH  23  24
ATOM     24  O   UNL     1      44.805   3.724   8.856  0.00  0.00    +0.000 OA
BRANCH  24  25
ATOM     25  C   UNL     1      45.678   2.981   8.106  0.00  0.00    +0.000 A 
ATOM     26  C   UNL     1      46.423   3.450   7.028  0.00  0.00    +0.000 A 
ATOM     27  C   UNL     1      47.266   2.568   6.375  0.00  0.00    +0.000 A 
ATOM     28  N   UNL     1      47.408   1.271   6.725  0.00  0.00    +0.000 NA
ATOM     29  C   UNL     1      46.673   0.840   7.773  0.00  0.00    +0.000 A 
ATOM     30  C   UNL     1      45.803   1.649   8.486  0.00  0.00    +0.000 A 
ENDBRANCH  24  25
ENDBRANCH  23  24
ENDBRANCH  20  23
ENDBRANCH  16  17
ENDBRANCH   2  16
TORSDOF 6
ENDMDL
MODEL 3
REMARK VINA RESULT:    -7.140      3.300      8.507
REMARK INTER + INTRA:         -10.944
REMARK INTER:                  -9.854
REMARK INTRA:                  -1.090
REMARK UNBOUND:                -1.300
REMARK  Name = 
REMARK  7 active torsions:
REMARK  status: ('A' for Active; 'I' for Inactive)
REMARK    1  A    between atoms: C_1  and  N_2
REMARK    2  A    between atoms: N_2  and  C_3
REMARK    3  A    between atoms: C_3  and  C_4
REMARK    4  A    between atoms: C_7  and  C_8
REMARK    5  A    between atoms: C_8  and  O_9
REMARK    6  A    between atoms: O_9  and  C_10
REMARK    7  A    between atoms: C_18  and  C_20
REMARK                            x       y       z     vdW  Elec       q    Type
REMARK                         _______ _______ _______ _____ _____    ______ ____
ROOT
ATOM      1  C   UNL     1      49.451   7.076  12.434  0.00  0.00    +0.000 C 
ATOM      2  N   UNL     1      48.801   7.412  13.696  0.00  0.00    +0.000 N 
ATOM      3  C   UNL     1      49.646   7.865  14.725  0.00  0.00    +0.000 C 
ATOM      4  O   UNL     1      50.862   7.950  14.557  0.00  0.00    +0.000 OA
ENDROOT
BRANCH   3   5
ATOM      5  C   UNL     1      49.073   8.202  16.035  0.00  0.00    +0.000 A 
ATOM      6  C   UNL     1      48.718   9.482  16.430  0.00  0.00    +0.000 A 
ATOM      7  S   UNL     1      48.009   9.544  17.982  0.00  0.00    +0.000 S 
ATOM      8  C   UNL     1      48.023   7.849  18.114  0.00  0.00    +0.000 A 
ATOM      9  N   UNL     1      47.450   7.224  19.175  0.00  0.00    +0.000 NA
ATOM     10  C   UNL     1      47.474   5.935  19.104  0.00  0.00    +0.000 A 
ATOM     11  N   UNL     1      48.054   5.216  18.090  0.00  0.00    +0.000 N 
ATOM     12  C   UNL     1      48.769   5.805  17.068  0.00  0.00    +0.000 A 
ATOM     13  O   UNL     1      49.479   5.138  16.329  0.00  0.00    +0.000 OA
ATOM     14  C   UNL     1      48.654   7.253  17.038  0.00  0.00    +0.000 A 
ATOM     15  H   UNL     1      48.101   4.210  18.134  0.00  0.00    +0.000 HD
ENDBRANCH   3   5
BRANCH   2  16
ATOM     16  C   UNL     1      47.339   7.505  13.766  0.00  0.00    +0.000 C 
BRANCH  16  17
ATOM     17  C   UNL     1      46.545   6.562  12.902  0.00  0.00    +0.000 A 
ATOM     18  C   UNL     1      46.276   5.254  13.337  0.00  0.00    +0.000 A 
ATOM     19  C   UNL     1      45.558   4.376  12.526  0.00  0.00    +0.000 A 
ATOM     20  C   UNL     1      45.106   4.791  11.268  0.00  0.00    +0.000 A 
ATOM     21  C   UNL     1      45.347   6.107  10.850  0.00  0.00    +0.000 A 
ATOM     22  C   UNL     1      46.070   6.981  11.655  0.00  0.00    +0.000 A 
BRANCH  20  23
ATOM     23  C   UNL     1      44.389   3.828  10.361  0.00  0.00    +0.000 C 
BRANCH  23  24
ATOM     24  O   UNL     1      44.681   4.133   8.999  0.00  0.00    +0.000 OA
BRANCH  24  25
ATOM     25  C   UNL     1      45.494   3.237   8.356  0.00  0.00    +0.000 A 
ATOM     26  C   UNL     1      45.630   1.890   8.680  0.00  0.00    +0.000 A 
ATOM     27  C   UNL     1      46.495   1.116   7.926  0.00  0.00    +0.000 A 
ATOM     28  N   UNL     1      47.218   1.594   6.890  0.00  0.00    +0.000 NA
ATOM     29  C   UNL     1      47.069   2.904   6.599  0.00  0.00    +0.000 A 
ATOM     30  C   UNL     1      46.229   3.757   7.296  0.00  0.00    +0.000 A 
ENDBRANCH  24  25
ENDBRANCH  23  24
ENDBRANCH  20  23
ENDBRANCH  16  17
ENDBRANCH   2  16
TORSDOF 6
ENDMDL
MODEL 4
REMARK VINA RESULT:    -6.986      1.350      2.212
REMARK INTER + INTRA:         -10.736
REMARK INTER:                  -9.607
REMARK INTRA:                  -1.129
REMARK UNBOUND:                -1.300
REMARK  Name = 
REMARK  7 active torsions:
REMARK  status: ('A' for Active; 'I' for Inactive)
REMARK    1  A    between atoms: C_1  and  N_2
REMARK    2  A    between atoms: N_2  and  C_3
REMARK    3  A    between atoms: C_3  and  C_4
REMARK    4  A    between atoms: C_7  and  C_8
REMARK    5  A    between atoms: C_8  and  O_9
REMARK    6  A    between atoms: O_9  and  C_10
REMARK    7  A    between atoms: C_18  and  C_20
REMARK                            x       y       z     vdW  Elec       q    Type
REMARK                         _______ _______ _______ _____ _____    ______ ____
ROOT
ATOM      1  C   UNL     1      46.423   8.722  13.029  0.00  0.00    +0.000 C 
ATOM      2  N   UNL     1      46.285   7.423  12.377  0.00  0.00    +0.000 N 
ATOM      3  C   UNL     1      45.241   7.311  11.441  0.00  0.00    +0.000 C 
ATOM      4  O   UNL     1      44.489   8.257  11.211  0.00  0.00    +0.000 OA
ENDROOT
BRANCH   3   5
ATOM      5  C   UNL     1      45.018   6.029  10.758  0.00  0.00    +0.000 A 
ATOM      6  C   UNL     1      45.544   5.699   9.519  0.00  0.00    +0.000 A 
ATOM      7  S   UNL     1      45.170   4.110   9.021  0.00  0.00    +0.000 S 
ATOM      8  C   UNL     1      44.417   3.766  10.506  0.00  0.00    +0.000 A 
ATOM      9  N   UNL     1      43.962   2.518  10.788  0.00  0.00    +0.000 NA
ATOM     10  C   UNL     1      43.479   2.388  11.979  0.00  0.00    +0.000 A 
ATOM     11  N   UNL     1      43.373   3.403  12.896  0.00  0.00    +0.000 N 
ATOM     12  C   UNL     1      43.691   4.713  12.605  0.00  0.00    +0.000 A 
ATOM     13  O   UNL     1      43.353   5.625  13.347  0.00  0.00    +0.000 OA
ATOM     14  C   UNL     1      44.360   4.878  11.326  0.00  0.00    +0.000 A 
ATOM     15  H   UNL     1      42.919   3.250  13.783  0.00  0.00    +0.000 HD
ENDBRANCH   3   5
BRANCH   2  16
ATOM     16  C   UNL     1      47.337   6.413  12.524  0.00  0.00    +0.000 C 
BRANCH  16  17
ATOM     17  C   UNL     1      47.601   5.888  13.910  0.00  0.00    +0.000 A 
ATOM     18  C   UNL     1      48.502   6.548  14.761  0.00  0.00    +0.000 A 
ATOM     19  C   UNL     1      48.759   6.048  16.038  0.00  0.00    +0.000 A 
ATOM     20  C   UNL     1      48.126   4.879  16.476  0.00  0.00    +0.000 A 
ATOM     21  C   UNL     1      47.204   4.241  15.637  0.00  0.00    +0.000 A 
ATOM     22  C   UNL     1      46.951   4.734  14.360  0.00  0.00    +0.000 A 
BRANCH  20  23
ATOM     23  C   UNL     1      48.450   4.298  17.825  0.00  0.00    +0.000 C 
BRANCH  23  24
ATOM     24  O   UNL     1      49.768   4.676  18.214  0.00  0.00    +0.000 OA
BRANCH  24  25
ATOM     25  C   UNL     1      50.723   3.702  18.082  0.00  0.00    +0.000 A 
ATOM     26  C   UNL     1      52.041   3.795  18.521  0.00  0.00    +0.000 A 
ATOM     27  C   UNL     1      52.883   2.717  18.313  0.00  0.00    +0.000 A 
ATOM     28  N   UNL     1      52.498   1.574  17.704  0.00  0.00    +0.000 NA
ATOM     29  C   UNL     1      51.216   1.511  17.285  0.00  0.00    +0.000 A 
ATOM     30  C   UNL     1      50.301   2.538  17.449  0.00  0.00    +0.000 A 
ENDBRANCH  24  25
ENDBRANCH  23  24
ENDBRANCH  20  23
ENDBRANCH  16  17
ENDBRANCH   2  16
TORSDOF 6
ENDMDL
MODEL 5
REMARK VINA RESULT:    -6.917      2.414      3.297
REMARK INTER + INTRA:         -10.644
REMARK INTER:                  -9.255
REMARK INTRA:                  -1.388
REMARK UNBOUND:                -1.300
REMARK  Name = 
REMARK  7 active torsions:
REMARK  status: ('A' for Active; 'I' for Inactive)
REMARK    1  A    between atoms: C_1  and  N_2
REMARK    2  A    between atoms: N_2  and  C_3
REMARK    3  A    between atoms: C_3  and  C_4
REMARK    4  A    between atoms: C_7  and  C_8
REMARK    5  A    between atoms: C_8  and  O_9
REMARK    6  A    between atoms: O_9  and  C_10
REMARK    7  A    between atoms: C_18  and  C_20
REMARK                            x       y       z     vdW  Elec       q    Type
REMARK                         _______ _______ _______ _____ _____    ______ ____
ROOT
ATOM      1  C   UNL     1      46.737   8.727  12.059  0.00  0.00    +0.000 C 
ATOM      2  N   UNL     1      46.381   7.313  12.111  0.00  0.00    +0.000 N 
ATOM      3  C   UNL     1      45.087   6.985  11.669  0.00  0.00    +0.000 C 
ATOM      4  O   UNL     1      44.309   7.855  11.280  0.00  0.00    +0.000 OA
ENDROOT
BRANCH   3   5
ATOM      5  C   UNL     1      44.642   5.585  11.712  0.00  0.00    +0.000 A 
ATOM      6  C   UNL     1      43.901   5.028  12.742  0.00  0.00    +0.000 A 
ATOM      7  S   UNL     1      43.472   3.399  12.470  0.00  0.00    +0.000 S 
ATOM      8  C   UNL     1      44.139   3.430  10.906  0.00  0.00    +0.000 A 
ATOM      9  N   UNL     1      44.013   2.367  10.069  0.00  0.00    +0.000 NA
ATOM     10  C   UNL     1      44.505   2.561   8.892  0.00  0.00    +0.000 A 
ATOM     11  N   UNL     1      45.146   3.706   8.488  0.00  0.00    +0.000 N 
ATOM     12  C   UNL     1      45.420   4.752   9.344  0.00  0.00    +0.000 A 
ATOM     13  O   UNL     1      46.203   5.637   9.028  0.00  0.00    +0.000 OA
ATOM     14  C   UNL     1      44.769   4.630  10.637  0.00  0.00    +0.000 A 
ATOM     15  H   UNL     1      45.572   3.763   7.577  0.00  0.00    +0.000 HD
ENDBRANCH   3   5
BRANCH   2  16
ATOM     16  C   UNL     1      47.416   6.305  12.369  0.00  0.00    +0.000 C 
BRANCH  16  17
ATOM     17  C   UNL     1      47.660   5.919  13.803  0.00  0.00    +0.000 A 
ATOM     18  C   UNL     1      47.026   4.793  14.355  0.00  0.00    +0.000 A 
ATOM     19  C   UNL     1      47.239   4.449  15.689  0.00  0.00    +0.000 A 
ATOM     20  C   UNL     1      48.082   5.228  16.491  0.00  0.00    +0.000 A 
ATOM     21  C   UNL     1      48.739   6.331  15.929  0.00  0.00    +0.000 A 
ATOM     22  C   UNL     1      48.521   6.680  14.600  0.00  0.00    +0.000 A 
BRANCH  20  23
ATOM     23  C   UNL     1      48.263   4.901  17.948  0.00  0.00    +0.000 C 
BRANCH  23  24
ATOM     24  O   UNL     1      47.322   5.631  18.731  0.00  0.00    +0.000 OA
BRANCH  24  25
ATOM     25  C   UNL     1      47.795   6.786  19.296  0.00  0.00    +0.000 A 
ATOM     26  C   UNL     1      47.271   8.059  19.095  0.00  0.00    +0.000 A 
ATOM     27  C   UNL     1      47.865   9.127  19.744  0.00  0.00    +0.000 A 
ATOM     28  N   UNL     1      48.931   9.004  20.566  0.00  0.00    +0.000 NA
ATOM     29  C   UNL     1      49.421   7.758  20.741  0.00  0.00    +0.000 A 
ATOM     30  C   UNL     1      48.894   6.631  20.134  0.00  0.00    +0.000 A 
ENDBRANCH  24  25
ENDBRANCH  23  24
ENDBRANCH  20  23
ENDBRANCH  16  17
ENDBRANCH   2  16
TORSDOF 6
ENDMDL
MODEL 6
REMARK VINA RESULT:    -6.654      2.188      8.266
REMARK INTER + INTRA:         -10.288
REMARK INTER:                  -9.197
REMARK INTRA:                  -1.090
REMARK UNBOUND:                -1.300
REMARK  Name = 
REMARK  7 active torsions:
REMARK  status: ('A' for Active; 'I' for Inactive)
REMARK    1  A    between atoms: C_1  and  N_2
REMARK    2  A    between atoms: N_2  and  C_3
REMARK    3  A    between atoms: C_3  and  C_4
REMARK    4  A    between atoms: C_7  and  C_8
REMARK    5  A    between atoms: C_8  and  O_9
REMARK    6  A    between atoms: O_9  and  C_10
REMARK    7  A    between atoms: C_18  and  C_20
REMARK                            x       y       z     vdW  Elec       q    Type
REMARK                         _______ _______ _______ _____ _____    ______ ____
ROOT
ATOM      1  C   UNL     1      48.484   8.619  14.979  0.00  0.00    +0.000 C 
ATOM      2  N   UNL     1      48.614   7.198  15.283  0.00  0.00    +0.000 N 
ATOM      3  C   UNL     1      48.405   6.833  16.625  0.00  0.00    +0.000 C 
ATOM      4  O   UNL     1      48.145   7.677  17.481  0.00  0.00    +0.000 OA
ENDROOT
BRANCH   3   5
ATOM      5  C   UNL     1      48.541   5.424  17.020  0.00  0.00    +0.000 A 
ATOM      6  C   UNL     1      47.504   4.505  17.016  0.00  0.00    +0.000 A 
ATOM      7  S   UNL     1      47.989   2.928  17.454  0.00  0.00    +0.000 S 
ATOM      8  C   UNL     1      49.623   3.393  17.523  0.00  0.00    +0.000 A 
ATOM      9  N   UNL     1      50.603   2.479  17.744  0.00  0.00    +0.000 NA
ATOM     10  C   UNL     1      51.798   2.965  17.698  0.00  0.00    +0.000 A 
ATOM     11  N   UNL     1      52.099   4.288  17.492  0.00  0.00    +0.000 N 
ATOM     12  C   UNL     1      51.136   5.270  17.404  0.00  0.00    +0.000 A 
ATOM     13  O   UNL     1      51.435   6.455  17.473  0.00  0.00    +0.000 OA
ATOM     14  C   UNL     1      49.782   4.751  17.318  0.00  0.00    +0.000 A 
ATOM     15  H   UNL     1      53.053   4.612  17.541  0.00  0.00    +0.000 HD
ENDBRANCH   3   5
BRANCH   2  16
ATOM     16  C   UNL     1      48.703   6.220  14.194  0.00  0.00    +0.000 C 
BRANCH  16  17
ATOM     17  C   UNL     1      47.480   6.027  13.339  0.00  0.00    +0.000 A 
ATOM     18  C   UNL     1      47.342   6.722  12.126  0.00  0.00    +0.000 A 
ATOM     19  C   UNL     1      46.199   6.556  11.345  0.00  0.00    +0.000 A 
ATOM     20  C   UNL     1      45.176   5.700  11.768  0.00  0.00    +0.000 A 
ATOM     21  C   UNL     1      45.330   4.982  12.962  0.00  0.00    +0.000 A 
ATOM     22  C   UNL     1      46.467   5.152  13.746  0.00  0.00    +0.000 A 
BRANCH  20  23
ATOM     23  C   UNL     1      43.912   5.568  10.964  0.00  0.00    +0.000 C 
BRANCH  23  24
ATOM     24  O   UNL     1      43.682   4.199  10.640  0.00  0.00    +0.000 OA
BRANCH  24  25
ATOM     25  C   UNL     1      44.488   3.682   9.661  0.00  0.00    +0.000 A 
ATOM     26  C   UNL     1      45.092   4.411   8.641  0.00  0.00    +0.000 A 
ATOM     27  C   UNL     1      45.884   3.735   7.728  0.00  0.00    +0.000 A 
ATOM     28  N   UNL     1      46.105   2.403   7.770  0.00  0.00    +0.000 NA
ATOM     29  C   UNL     1      45.504   1.719   8.768  0.00  0.00    +0.000 A 
ATOM     30  C   UNL     1      44.695   2.308   9.726  0.00  0.00    +0.000 A 
ENDBRANCH  24  25
ENDBRANCH  23  24
ENDBRANCH  20  23
ENDBRANCH  16  17
ENDBRANCH   2  16
TORSDOF 6
ENDMDL
MODEL 7
REMARK VINA RESULT:    -6.409      2.947      8.100
REMARK INTER + INTRA:          -9.957
REMARK INTER:                  -8.516
REMARK INTRA:                  -1.441
REMARK UNBOUND:                -1.300
REMARK  Name = 
REMARK  7 active torsions:
REMARK  status: ('A' for Active; 'I' for Inactive)
REMARK    1  A    between atoms: C_1  and  N_2
REMARK    2  A    between atoms: N_2  and  C_3
REMARK    3  A    between atoms: C_3  and  C_4
REMARK    4  A    between atoms: C_7  and  C_8
REMARK    5  A    between atoms: C_8  and  O_9
REMARK    6  A    between atoms: O_9  and  C_10
REMARK    7  A    between atoms: C_18  and  C_20
REMARK                            x       y       z     vdW  Elec       q    Type
REMARK                         _______ _______ _______ _____ _____    ______ ____
ROOT
ATOM      1  C   UNL     1      47.897   9.144  18.027  0.00  0.00    +0.000 C 
ATOM      2  N   UNL     1      48.843   8.129  17.575  0.00  0.00    +0.000 N 
ATOM      3  C   UNL     1      48.945   6.979  18.380  0.00  0.00    +0.000 C 
ATOM      4  O   UNL     1      48.280   6.862  19.408  0.00  0.00    +0.000 OA
ENDROOT
BRANCH   3   5
ATOM      5  C   UNL     1      49.892   5.919  18.007  0.00  0.00    +0.000 A 
ATOM      6  C   UNL     1      51.260   5.982  18.212  0.00  0.00    +0.000 A 
ATOM      7  S   UNL     1      52.086   4.564  17.742  0.00  0.00    +0.000 S 
ATOM      8  C   UNL     1      50.626   3.769  17.385  0.00  0.00    +0.000 A 
ATOM      9  N   UNL     1      50.610   2.459  17.027  0.00  0.00    +0.000 NA
ATOM     10  C   UNL     1      49.427   1.972  16.856  0.00  0.00    +0.000 A 
ATOM     11  N   UNL     1      48.261   2.687  16.972  0.00  0.00    +0.000 N 
ATOM     12  C   UNL     1      48.235   4.047  17.194  0.00  0.00    +0.000 A 
ATOM     13  O   UNL     1      47.207   4.692  17.043  0.00  0.00    +0.000 OA
ATOM     14  C   UNL     1      49.535   4.607  17.523  0.00  0.00    +0.000 A 
ATOM     15  H   UNL     1      47.373   2.262  16.754  0.00  0.00    +0.000 HD
ENDBRANCH   3   5
BRANCH   2  16
ATOM     16  C   UNL     1      49.435   8.221  16.237  0.00  0.00    +0.000 C 
BRANCH  16  17
ATOM     17  C   UNL     1      48.544   7.909  15.065  0.00  0.00    +0.000 A 
ATOM     18  C   UNL     1      47.789   8.924  14.454  0.00  0.00    +0.000 A 
ATOM     19  C   UNL     1      46.950   8.628  13.381  0.00  0.00    +0.000 A 
ATOM     20  C   UNL     1      46.848   7.314  12.909  0.00  0.00    +0.000 A 
ATOM     21  C   UNL     1      47.627   6.310  13.498  0.00  0.00    +0.000 A 
ATOM     22  C   UNL     1      48.460   6.602  14.574  0.00  0.00    +0.000 A 
BRANCH  20  23
ATOM     23  C   UNL     1      45.894   6.976  11.795  0.00  0.00    +0.000 C 
BRANCH  23  24
ATOM     24  O   UNL     1      44.703   6.407  12.331  0.00  0.00    +0.000 OA
BRANCH  24  25
ATOM     25  C   UNL     1      44.360   5.179  11.831  0.00  0.00    +0.000 A 
ATOM     26  C   UNL     1      43.640   4.200  12.510  0.00  0.00    +0.000 A 
ATOM     27  C   UNL     1      43.372   3.008  11.860  0.00  0.00    +0.000 A 
ATOM     28  N   UNL     1      43.771   2.738  10.597  0.00  0.00    +0.000 NA
ATOM     29  C   UNL     1      44.470   3.704   9.962  0.00  0.00    +0.000 A 
ATOM     30  C   UNL     1      44.786   4.926  10.532  0.00  0.00    +0.000 A 
ENDBRANCH  24  25
ENDBRANCH  23  24
ENDBRANCH  20  23
ENDBRANCH  16  17
ENDBRANCH   2  16
TORSDOF 6
ENDMDL
MODEL 8
REMARK VINA RESULT:    -6.217      3.923      5.600
REMARK INTER + INTRA:          -9.698
REMARK INTER:                  -8.582
REMARK INTRA:                  -1.116
REMARK UNBOUND:                -1.300
REMARK  Name = 
REMARK  7 active torsions:
REMARK  status: ('A' for Active; 'I' for Inactive)
REMARK    1  A    between atoms: C_1  and  N_2
REMARK    2  A    between atoms: N_2  and  C_3
REMARK    3  A    between atoms: C_3  and  C_4
REMARK    4  A    between atoms: C_7  and  C_8
REMARK    5  A    between atoms: C_8  and  O_9
REMARK    6  A    between atoms: O_9  and  C_10
REMARK    7  A    between atoms: C_18  and  C_20
REMARK                            x       y       z     vdW  Elec       q    Type
REMARK                         _______ _______ _______ _____ _____    ______ ____
ROOT
ATOM      1  C   UNL     1      45.379   8.589  12.560  0.00  0.00    +0.000 C 
ATOM      2  N   UNL     1      45.343   7.137  12.424  0.00  0.00    +0.000 N 
ATOM      3  C   UNL     1      44.301   6.616  11.636  0.00  0.00    +0.000 C 
ATOM      4  O   UNL     1      43.469   7.356  11.113  0.00  0.00    +0.000 OA
ENDROOT
BRANCH   3   5
ATOM      5  C   UNL     1      44.180   5.161  11.468  0.00  0.00    +0.000 A 
ATOM      6  C   UNL     1      43.416   4.338  12.280  0.00  0.00    +0.000 A 
ATOM      7  S   UNL     1      43.416   2.704  11.788  0.00  0.00    +0.000 S 
ATOM      8  C   UNL     1      44.320   3.070  10.394  0.00  0.00    +0.000 A 
ATOM      9  N   UNL     1      44.582   2.119   9.460  0.00  0.00    +0.000 NA
ATOM     10  C   UNL     1      45.215   2.557   8.424  0.00  0.00    +0.000 A 
ATOM     11  N   UNL     1      45.644   3.851   8.256  0.00  0.00    +0.000 N 
ATOM     12  C   UNL     1      45.524   4.812   9.237  0.00  0.00    +0.000 A 
ATOM     13  O   UNL     1      46.132   5.871   9.159  0.00  0.00    +0.000 OA
ATOM     14  C   UNL     1      44.702   4.397  10.361  0.00  0.00    +0.000 A 
ATOM     15  H   UNL     1      46.197   4.110   7.454  0.00  0.00    +0.000 HD
ENDBRANCH   3   5
BRANCH   2  16
ATOM     16  C   UNL     1      46.480   6.329  12.880  0.00  0.00    +0.000 C 
BRANCH  16  17
ATOM     17  C   UNL     1      47.849   6.944  12.774  0.00  0.00    +0.000 A 
ATOM     18  C   UNL     1      48.607   7.197  13.929  0.00  0.00    +0.000 A 
ATOM     19  C   UNL     1      49.868   7.785  13.829  0.00  0.00    +0.000 A 
ATOM     20  C   UNL     1      50.384   8.134  12.576  0.00  0.00    +0.000 A 
ATOM     21  C   UNL     1      49.641   7.850  11.423  0.00  0.00    +0.000 A 
ATOM     22  C   UNL     1      48.379   7.270  11.521  0.00  0.00    +0.000 A 
BRANCH  20  23
ATOM     23  C   UNL     1      51.714   8.829  12.467  0.00  0.00    +0.000 C 
BRANCH  23  24
ATOM     24  O   UNL     1      52.637   8.006  11.758  0.00  0.00    +0.000 OA
BRANCH  24  25
ATOM     25  C   UNL     1      52.942   8.421  10.489  0.00  0.00    +0.000 A 
ATOM     26  C   UNL     1      53.385   9.693  10.137  0.00  0.00    +0.000 A 
ATOM     27  C   UNL     1      53.654   9.952   8.805  0.00  0.00    +0.000 A 
ATOM     28  N   UNL     1      53.510   9.038   7.820  0.00  0.00    +0.000 NA
ATOM     29  C   UNL     1      53.076   7.813   8.188  0.00  0.00    +0.000 A 
ATOM     30  C   UNL     1      52.781   7.462   9.495  0.00  0.00    +0.000 A 
ENDBRANCH  24  25
ENDBRANCH  23  24
ENDBRANCH  20  23
ENDBRANCH  16  17
ENDBRANCH   2  16
TORSDOF 6
ENDMDL
MODEL 9
REMARK VINA RESULT:    -5.908      3.332      8.417
REMARK INTER + INTRA:          -9.280
REMARK INTER:                  -8.064
REMARK INTRA:                  -1.217
REMARK UNBOUND:                -1.300
REMARK  Name = 
REMARK  7 active torsions:
REMARK  status: ('A' for Active; 'I' for Inactive)
REMARK    1  A    between atoms: C_1  and  N_2
REMARK    2  A    between atoms: N_2  and  C_3
REMARK    3  A    between atoms: C_3  and  C_4
REMARK    4  A    between atoms: C_7  and  C_8
REMARK    5  A    between atoms: C_8  and  O_9
REMARK    6  A    between atoms: O_9  and  C_10
REMARK    7  A    between atoms: C_18  and  C_20
REMARK                            x       y       z     vdW  Elec       q    Type
REMARK                         _______ _______ _______ _____ _____    ______ ____
ROOT
ATOM      1  C   UNL     1      51.515   8.477  13.789  0.00  0.00    +0.000 C 
ATOM      2  N   UNL     1      50.459   8.505  14.796  0.00  0.00    +0.000 N 
ATOM      3  C   UNL     1      50.843   8.150  16.102  0.00  0.00    +0.000 C 
ATOM      4  O   UNL     1      52.001   7.824  16.358  0.00  0.00    +0.000 OA
ENDROOT
BRANCH   3   5
ATOM      5  C   UNL     1      49.834   8.131  17.171  0.00  0.00    +0.000 A 
ATOM      6  C   UNL     1      49.370   9.256  17.832  0.00  0.00    +0.000 A 
ATOM      7  S   UNL     1      48.145   8.921  18.972  0.00  0.00    +0.000 S 
ATOM      8  C   UNL     1      48.097   7.283  18.516  0.00  0.00    +0.000 A 
ATOM      9  N   UNL     1      47.172   6.437  19.039  0.00  0.00    +0.000 NA
ATOM     10  C   UNL     1      47.210   5.244  18.547  0.00  0.00    +0.000 A 
ATOM     11  N   UNL     1      48.115   4.810  17.611  0.00  0.00    +0.000 N 
ATOM     12  C   UNL     1      49.157   5.592  17.158  0.00  0.00    +0.000 A 
ATOM     13  O   UNL     1      50.083   5.104  16.525  0.00  0.00    +0.000 OA
ATOM     14  C   UNL     1      49.071   6.978  17.584  0.00  0.00    +0.000 A 
ATOM     15  H   UNL     1      48.135   3.844  17.323  0.00  0.00    +0.000 HD
ENDBRANCH   3   5
BRANCH   2  16
ATOM     16  C   UNL     1      49.162   9.113  14.482  0.00  0.00    +0.000 C 
BRANCH  16  17
ATOM     17  C   UNL     1      48.097   8.214  13.915  0.00  0.00    +0.000 A 
ATOM     18  C   UNL     1      48.307   6.828  13.831  0.00  0.00    +0.000 A 
ATOM     19  C   UNL     1      47.326   5.999  13.286  0.00  0.00    +0.000 A 
ATOM     20  C   UNL     1      46.128   6.545  12.812  0.00  0.00    +0.000 A 
ATOM     21  C   UNL     1      45.908   7.924  12.927  0.00  0.00    +0.000 A 
ATOM     22  C   UNL     1      46.888   8.753  13.464  0.00  0.00    +0.000 A 
BRANCH  20  23
ATOM     23  C   UNL     1      45.095   5.665  12.163  0.00  0.00    +0.000 C 
BRANCH  23  24
ATOM     24  O   UNL     1      45.125   5.841  10.749  0.00  0.00    +0.000 OA
BRANCH  24  25
ATOM     25  C   UNL     1      45.117   4.686  10.011  0.00  0.00    +0.000 A 
ATOM     26  C   UNL     1      44.576   3.470  10.417  0.00  0.00    +0.000 A 
ATOM     27  C   UNL     1      44.646   2.395   9.549  0.00  0.00    +0.000 A 
ATOM     28  N   UNL     1      45.212   2.458   8.323  0.00  0.00    +0.000 NA
ATOM     29  C   UNL     1      45.731   3.649   7.955  0.00  0.00    +0.000 A 
ATOM     30  C   UNL     1      45.709   4.779   8.756  0.00  0.00    +0.000 A 
ENDBRANCH  24  25
ENDBRANCH  23  24
ENDBRANCH  20  23
ENDBRANCH  16  17
ENDBRANCH   2  16
TORSDOF 6
ENDMDL
