MODEL 1
REMARK VINA RESULT:    -7.691      0.000      0.000
REMARK INTER + INTRA:         -10.621
REMARK INTER:                  -9.939
REMARK INTRA:                  -0.682
REMARK UNBOUND:                -0.682
REMARK  Name = 
REMARK  6 active torsions:
REMARK  status: ('A' for Active; 'I' for Inactive)
REMARK    1  A    between atoms: C_1  and  C_2
REMARK    2  A    between atoms: C_2  and  C_3
REMARK    3  A    between atoms: C_2  and  C_14
REMARK    4  A    between atoms: C_3  and  O_4
REMARK    5  A    between atoms: O_4  and  C_5
REMARK    6  A    between atoms: C_8  and  C_9
REMARK                            x       y       z     vdW  Elec       q    Type
REMARK                         _______ _______ _______ _____ _____    ______ ____
ROOT
ATOM      1  C   UNL     1      44.381   3.109   9.452  0.00  0.00    +0.000 A 
ATOM      2  C   UNL     1      44.893   4.161   8.697  0.00  0.00    +0.000 A 
ATOM      3  C   UNL     1      45.914   3.916   7.778  0.00  0.00    +0.000 A 
ATOM      4  C   UNL     1      46.387   2.616   7.644  0.00  0.00    +0.000 A 
ATOM      5  N   UNL     1      45.908   1.558   8.354  0.00  0.00    +0.000 NA
ATOM      6  C   UNL     1      44.916   1.840   9.236  0.00  0.00    +0.000 A 
ENDROOT
BRANCH   4   7
ATOM      7  C   UNL     1      47.497   2.336   6.680  0.00  0.00    +0.000 C 
ATOM      8  N   UNL     1      47.511   3.114   5.555  0.00  0.00    +0.000 N 
ATOM      9  O   UNL     1      48.335   1.465   6.873  0.00  0.00    +0.000 OA
ATOM     10  H   UNL     1      46.793   3.817   5.423  0.00  0.00    +0.000 HD
ATOM     11  H   UNL     1      48.221   2.964   4.855  0.00  0.00    +0.000 HD
ENDBRANCH   4   7
BRANCH   1  12
ATOM     12  O   UNL     1      43.400   3.196  10.394  0.00  0.00    +0.000 OA
BRANCH  12  13
ATOM     13  C   UNL     1      43.785   2.992  11.757  0.00  0.00    +0.000 C 
BRANCH  13  15
ATOM     14  C   UNL     1      42.672   5.260  12.244  0.00  0.00    +0.000 C 
ATOM     15  C   UNL     1      43.835   4.339  12.401  0.00  0.00    +0.000 C 
BRANCH  15  16
ATOM     16  C   UNL     1      45.151   4.873  12.742  0.00  0.00    +0.000 A 
ATOM     17  C   UNL     1      45.772   5.861  11.983  0.00  0.00    +0.000 A 
ATOM     18  N   UNL     1      46.988   6.378  12.290  0.00  0.00    +0.000 NA
ATOM     19  C   UNL     1      47.558   5.866  13.401  0.00  0.00    +0.000 A 
ATOM     20  C   UNL     1      46.946   4.887  14.165  0.00  0.00    +0.000 A 
ATOM     21  N   UNL     1      45.735   4.365  13.852  0.00  0.00    +0.000 NA
ENDBRANCH  15  16
ENDBRANCH  13  15
ENDBRANCH  12  13
ENDBRANCH   1  12
TORSDOF 5
ENDMDL
MODEL 2
REMARK VINA RESULT:    -6.804      2.079      6.437
REMARK INTER + INTRA:          -9.475
REMARK INTER:                  -9.144
REMARK INTRA:                  -0.331
REMARK UNBOUND:                -0.682
REMARK  Name = 
REMARK  6 active torsions:
REMARK  status: ('A' for Active; 'I' for Inactive)
REMARK    1  A    between atoms: C_1  and  C_2
REMARK    2  A    between atoms: C_2  and  C_3
REMARK    3  A    between atoms: C_2  and  C_14
REMARK    4  A    between atoms: C_3  and  O_4
REMARK    5  A    between atoms: O_4  and  C_5
REMARK    6  A    between atoms: C_8  and  C_9
REMARK                            x       y       z     vdW  Elec       q    Type
REMARK                         _______ _______ _______ _____ _____    ______ ____
ROOT
ATOM      1  C   UNL     1      45.006   4.453  11.428  0.00  0.00    +0.000 A 
ATOM      2  C   UNL     1      45.387   5.709  11.894  0.00  0.00    +0.000 A 
ATOM      3  C   UNL     1      46.144   5.809  13.062  0.00  0.00    +0.000 A 
ATOM      4  C   UNL     1      46.497   4.640  13.725  0.00  0.00    +0.000 A 
ATOM      5  N   UNL     1      46.153   3.393  13.299  0.00  0.00    +0.000 NA
ATOM      6  C   UNL     1      45.419   3.341  12.160  0.00  0.00    +0.000 A 
ENDROOT
BRANCH   4   7
ATOM      7  C   UNL     1      47.290   4.728  14.992  0.00  0.00    +0.000 C 
ATOM      8  N   UNL     1      46.847   3.941  16.020  0.00  0.00    +0.000 N 
ATOM      9  O   UNL     1      48.264   5.458  15.112  0.00  0.00    +0.000 OA
ATOM     10  H   UNL     1      46.029   3.358  15.888  0.00  0.00    +0.000 HD
ATOM     11  H   UNL     1      47.325   3.967  16.908  0.00  0.00    +0.000 HD
ENDBRANCH   4   7
BRANCH   1  12
ATOM     12  O   UNL     1      44.257   4.199  10.319  0.00  0.00    +0.000 OA
BRANCH  12  13
ATOM     13  C   UNL     1      44.907   4.323   9.050  0.00  0.00    +0.000 C 
BRANCH  13  15
ATOM     14  C   UNL     1      44.337   1.818   9.186  0.00  0.00    +0.000 C 
ATOM     15  C   UNL     1      44.988   2.951   8.466  0.00  0.00    +0.000 C 
BRANCH  15  16
ATOM     16  C   UNL     1      46.058   2.689   7.508  0.00  0.00    +0.000 A 
ATOM     17  C   UNL     1      46.916   1.600   7.630  0.00  0.00    +0.000 A 
ATOM     18  N   UNL     1      47.908   1.334   6.743  0.00  0.00    +0.000 NA
ATOM     19  C   UNL     1      48.002   2.206   5.718  0.00  0.00    +0.000 A 
ATOM     20  C   UNL     1      47.150   3.290   5.586  0.00  0.00    +0.000 A 
ATOM     21  N   UNL     1      46.165   3.560   6.477  0.00  0.00    +0.000 NA
ENDBRANCH  15  16
ENDBRANCH  13  15
ENDBRANCH  12  13
ENDBRANCH   1  12
TORSDOF 5
ENDMDL
MODEL 3
REMARK VINA RESULT:    -6.439      2.517      5.586
REMARK INTER + INTRA:          -9.003
REMARK INTER:                  -8.345
REMARK INTRA:                  -0.659
REMARK UNBOUND:                -0.682
REMARK  Name = 
REMARK  6 active torsions:
REMARK  status: ('A' for Active; 'I' for Inactive)
REMARK    1  A    between atoms: C_1  and  C_2
REMARK    2  A    between atoms: C_2  and  C_3
REMARK    3  A    between atoms: C_2  and  C_14
REMARK    4  A    between atoms: C_3  and  O_4
REMARK    5  A    between atoms: O_4  and  C_5
REMARK    6  A    between atoms: C_8  and  C_9
REMARK                            x       y       z     vdW  Elec       q    Type
REMARK                         _______ _______ _______ _____ _____    ______ ____
ROOT
ATOM      1  C   UNL     1      44.923   5.821  12.870  0.00  0.00    +0.000 A 
ATOM      2  C   UNL     1      45.434   6.990  12.311  0.00  0.00    +0.000 A 
ATOM      3  C   UNL     1      46.777   7.317  12.505  0.00  0.00    +0.000 A 
ATOM      4  C   UNL     1      47.567   6.453  13.255  0.00  0.00    +0.000 A 
ATOM      5  N   UNL     1      47.110   5.297  13.810  0.00  0.00    +0.000 NA
ATOM      6  C   UNL     1      45.800   5.017  13.596  0.00  0.00    +0.000 A 
ENDROOT
BRANCH   4   7
ATOM      7  C   UNL     1      49.004   6.797  13.494  0.00  0.00    +0.000 C 
ATOM      8  N   UNL     1      49.729   7.109  12.377  0.00  0.00    +0.000 N 
ATOM      9  O   UNL     1      49.507   6.793  14.609  0.00  0.00    +0.000 OA
ATOM     10  H   UNL     1      49.282   7.090  11.467  0.00  0.00    +0.000 HD
ATOM     11  H   UNL     1      50.709   7.331  12.466  0.00  0.00    +0.000 HD
ENDBRANCH   4   7
BRANCH   1  12
ATOM     12  O   UNL     1      43.637   5.381  12.780  0.00  0.00    +0.000 OA
BRANCH  12  13
ATOM     13  C   UNL     1      43.113   5.158  11.468  0.00  0.00    +0.000 C 
BRANCH  13  15
ATOM     14  C   UNL     1      43.382   2.670  12.070  0.00  0.00    +0.000 C 
ATOM     15  C   UNL     1      43.507   3.772  11.072  0.00  0.00    +0.000 C 
BRANCH  15  16
ATOM     16  C   UNL     1      44.411   3.629   9.934  0.00  0.00    +0.000 A 
ATOM     17  C   UNL     1      44.998   4.725   9.308  0.00  0.00    +0.000 A 
ATOM     18  N   UNL     1      45.848   4.611   8.257  0.00  0.00    +0.000 NA
ATOM     19  C   UNL     1      46.095   3.345   7.861  0.00  0.00    +0.000 A 
ATOM     20  C   UNL     1      45.519   2.248   8.480  0.00  0.00    +0.000 A 
ATOM     21  N   UNL     1      44.662   2.364   9.524  0.00  0.00    +0.000 NA
ENDBRANCH  15  16
ENDBRANCH  13  15
ENDBRANCH  12  13
ENDBRANCH   1  12
TORSDOF 5
ENDMDL
MODEL 4
REMARK VINA RESULT:    -6.196      2.597      6.577
REMARK INTER + INTRA:          -8.689
REMARK INTER:                  -8.251
REMARK INTRA:                  -0.438
REMARK UNBOUND:                -0.682
REMARK  Name = 
REMARK  6 active torsions:
REMARK  status: ('A' for Active; 'I' for Inactive)
REMARK    1  A    between atoms: C_1  and  C_2
REMARK    2  A    between atoms: C_2  and  C_3
REMARK    3  A    between atoms: C_2  and  C_14
REMARK    4  A    between atoms: C_3  and  O_4
REMARK    5  A    between atoms: O_4  and  C_5
REMARK    6  A    between atoms: C_8  and  C_9
REMARK                            x       y       z     vdW  Elec       q    Type
REMARK                         _______ _______ _______ _____ _____    ______ ____
ROOT
ATOM      1  C   UNL     1      46.018   5.868  12.827  0.00  0.00    +0.000 A 
ATOM      2  C   UNL     1      47.162   6.476  13.336  0.00  0.00    +0.000 A 
ATOM      3  C   UNL     1      47.778   5.945  14.470  0.00  0.00    +0.000 A 
ATOM      4  C   UNL     1      47.222   4.815  15.057  0.00  0.00    +0.000 A 
ATOM      5  N   UNL     1      46.110   4.184  14.587  0.00  0.00    +0.000 NA
ATOM      6  C   UNL     1      45.545   4.733  13.482  0.00  0.00    +0.000 A 
ENDROOT
BRANCH   4   7
ATOM      7  C   UNL     1      47.853   4.243  16.289  0.00  0.00    +0.000 C 
ATOM      8  N   UNL     1      47.066   3.392  17.015  0.00  0.00    +0.000 N 
ATOM      9  O   UNL     1      48.994   4.520  16.634  0.00  0.00    +0.000 OA
ATOM     10  H   UNL     1      46.121   3.196  16.703  0.00  0.00    +0.000 HD
ATOM     11  H   UNL     1      47.424   2.987  17.866  0.00  0.00    +0.000 HD
ENDBRANCH   4   7
BRANCH   1  12
ATOM     12  O   UNL     1      45.302   6.279  11.743  0.00  0.00    +0.000 OA
BRANCH  12  13
ATOM     13  C   UNL     1      45.809   5.923  10.453  0.00  0.00    +0.000 C 
BRANCH  13  15
ATOM     14  C   UNL     1      43.489   4.809  10.463  0.00  0.00    +0.000 C 
ATOM     15  C   UNL     1      44.850   4.941   9.865  0.00  0.00    +0.000 C 
BRANCH  15  16
ATOM     16  C   UNL     1      45.406   3.851   9.067  0.00  0.00    +0.000 A 
ATOM     17  C   UNL     1      45.257   2.515   9.428  0.00  0.00    +0.000 A 
ATOM     18  N   UNL     1      45.757   1.489   8.695  0.00  0.00    +0.000 NA
ATOM     19  C   UNL     1      46.410   1.858   7.573  0.00  0.00    +0.000 A 
ATOM     20  C   UNL     1      46.559   3.184   7.203  0.00  0.00    +0.000 A 
ATOM     21  N   UNL     1      46.067   4.209   7.942  0.00  0.00    +0.000 NA
ENDBRANCH  15  16
ENDBRANCH  13  15
ENDBRANCH  12  13
ENDBRANCH   1  12
TORSDOF 5
ENDMDL
MODEL 5
REMARK VINA RESULT:    -6.014      2.575      6.448
REMARK INTER + INTRA:          -8.453
REMARK INTER:                  -8.002
REMARK INTRA:                  -0.451
REMARK UNBOUND:                -0.682
REMARK  Name = 
REMARK  6 active torsions:
REMARK  status: ('A' for Active; 'I' for Inactive)
REMARK    1  A    between atoms: C_1  and  C_2
REMARK    2  A    between atoms: C_2  and  C_3
REMARK    3  A    between atoms: C_2  and  C_14
REMARK    4  A    between atoms: C_3  and  O_4
REMARK    5  A    between atoms: O_4  and  C_5
REMARK    6  A    between atoms: C_8  and  C_9
REMARK                            x       y       z     vdW  Elec       q    Type
REMARK                         _______ _______ _______ _____ _____    ______ ____
ROOT
ATOM      1  C   UNL     1      45.993   5.483  11.986  0.00  0.00    +0.000 A 
ATOM      2  C   UNL     1      46.631   6.656  11.591  0.00  0.00    +0.000 A 
ATOM      3  C   UNL     1      47.669   7.171  12.368  0.00  0.00    +0.000 A 
ATOM      4  C   UNL     1      48.036   6.486  13.521  0.00  0.00    +0.000 A 
ATOM      5  N   UNL     1      47.446   5.331  13.937  0.00  0.00    +0.000 NA
ATOM      6  C   UNL     1      46.442   4.866  13.152  0.00  0.00    +0.000 A 
ENDROOT
BRANCH   4   7
ATOM      7  C   UNL     1      49.132   7.033  14.381  0.00  0.00    +0.000 C 
ATOM      8  N   UNL     1      50.261   7.427  13.717  0.00  0.00    +0.000 N 
ATOM      9  O   UNL     1      49.036   7.117  15.598  0.00  0.00    +0.000 OA
ATOM     10  H   UNL     1      50.309   7.330  12.709  0.00  0.00    +0.000 HD
ATOM     11  H   UNL     1      51.045   7.787  14.240  0.00  0.00    +0.000 HD
ENDBRANCH   4   7
BRANCH   1  12
ATOM     12  O   UNL     1      44.959   4.873  11.342  0.00  0.00    +0.000 OA
BRANCH  12  13
ATOM     13  C   UNL     1      44.981   4.887   9.911  0.00  0.00    +0.000 C 
BRANCH  13  15
ATOM     14  C   UNL     1      44.118   2.508  10.376  0.00  0.00    +0.000 C 
ATOM     15  C   UNL     1      44.787   3.476   9.459  0.00  0.00    +0.000 C 
BRANCH  15  16
ATOM     16  C   UNL     1      45.645   2.990   8.382  0.00  0.00    +0.000 A 
ATOM     17  C   UNL     1      46.088   1.672   8.321  0.00  0.00    +0.000 A 
ATOM     18  N   UNL     1      46.875   1.200   7.323  0.00  0.00    +0.000 NA
ATOM     19  C   UNL     1      47.197   2.106   6.377  0.00  0.00    +0.000 A 
ATOM     20  C   UNL     1      46.757   3.418   6.426  0.00  0.00    +0.000 A 
ATOM     21  N   UNL     1      45.978   3.891   7.429  0.00  0.00    +0.000 NA
ENDBRANCH  15  16
ENDBRANCH  13  15
ENDBRANCH  12  13
ENDBRANCH   1  12
TORSDOF 5
ENDMDL
MODEL 6
REMARK VINA RESULT:    -5.848      3.304      5.672
REMARK INTER + INTRA:          -8.240
REMARK INTER:                  -7.735
REMARK INTRA:                  -0.505
REMARK UNBOUND:                -0.682
REMARK  Name = 
REMARK  6 active torsions:
REMARK  status: ('A' for Active; 'I' for Inactive)
REMARK    1  A    between atoms: C_1  and  C_2
REMARK    2  A    between atoms: C_2  and  C_3
REMARK    3  A    between atoms: C_2  and  C_14
REMARK    4  A    between atoms: C_3  and  O_4
REMARK    5  A    between atoms: O_4  and  C_5
REMARK    6  A    between atoms: C_8  and  C_9
REMARK                            x       y       z     vdW  Elec       q    Type
REMARK                         _______ _______ _______ _____ _____    ______ ____
ROOT
ATOM      1  C   UNL     1      47.200   5.457  13.044  0.00  0.00    +0.000 A 
ATOM      2  C   UNL     1      46.696   6.243  12.011  0.00  0.00    +0.000 A 
ATOM      3  C   UNL     1      45.587   5.801  11.288  0.00  0.00    +0.000 A 
ATOM      4  C   UNL     1      45.017   4.581  11.630  0.00  0.00    +0.000 A 
ATOM      5  N   UNL     1      45.471   3.787  12.638  0.00  0.00    +0.000 NA
ATOM      6  C   UNL     1      46.550   4.254  13.315  0.00  0.00    +0.000 A 
ENDROOT
BRANCH   4   7
ATOM      7  C   UNL     1      43.840   4.079  10.852  0.00  0.00    +0.000 C 
ATOM      8  N   UNL     1      43.756   4.521   9.560  0.00  0.00    +0.000 N 
ATOM      9  O   UNL     1      43.001   3.330  11.334  0.00  0.00    +0.000 OA
ATOM     10  H   UNL     1      44.463   5.151   9.199  0.00  0.00    +0.000 HD
ATOM     11  H   UNL     1      42.976   4.236   8.987  0.00  0.00    +0.000 HD
ENDBRANCH   4   7
BRANCH   1  12
ATOM     12  O   UNL     1      48.279   5.746  13.824  0.00  0.00    +0.000 OA
BRANCH  12  13
ATOM     13  C   UNL     1      48.089   6.696  14.877  0.00  0.00    +0.000 C 
BRANCH  13  15
ATOM     14  C   UNL     1      50.240   6.737  16.288  0.00  0.00    +0.000 C 
ATOM     15  C   UNL     1      48.867   6.203  16.053  0.00  0.00    +0.000 C 
BRANCH  15  16
ATOM     16  C   UNL     1      48.471   4.923  16.633  0.00  0.00    +0.000 A 
ATOM     17  C   UNL     1      47.137   4.569  16.812  0.00  0.00    +0.000 A 
ATOM     18  N   UNL     1      46.749   3.380  17.339  0.00  0.00    +0.000 NA
ATOM     19  C   UNL     1      47.760   2.552  17.675  0.00  0.00    +0.000 A 
ATOM     20  C   UNL     1      49.090   2.894  17.497  0.00  0.00    +0.000 A 
ATOM     21  N   UNL     1      49.476   4.085  16.979  0.00  0.00    +0.000 NA
ENDBRANCH  15  16
ENDBRANCH  13  15
ENDBRANCH  12  13
ENDBRANCH   1  12
TORSDOF 5
ENDMDL
MODEL 7
REMARK VINA RESULT:    -5.746      2.804      6.105
REMARK INTER + INTRA:          -8.107
REMARK INTER:                  -7.484
REMARK INTRA:                  -0.623
REMARK UNBOUND:                -0.682
REMARK  Name = 
REMARK  6 active torsions:
REMARK  status: ('A' for Active; 'I' for Inactive)
REMARK    1  A    between atoms: C_1  and  C_2
REMARK    2  A    between atoms: C_2  and  C_3
REMARK    3  A    between atoms: C_2  and  C_14
REMARK    4  A    between atoms: C_3  and  O_4
REMARK    5  A    between atoms: O_4  and  C_5
REMARK    6  A    between atoms: C_8  and  C_9
REMARK                            x       y       z     vdW  Elec       q    Type
REMARK                         _______ _______ _______ _____ _____    ______ ____
ROOT
ATOM      1  C   UNL     1      45.594   5.891  13.007  0.00  0.00    +0.000 A 
ATOM      2  C   UNL     1      44.943   6.996  12.466  0.00  0.00    +0.000 A 
ATOM      3  C   UNL     1      45.643   8.191  12.293  0.00  0.00    +0.000 A 
ATOM      4  C   UNL     1      46.981   8.235  12.668  0.00  0.00    +0.000 A 
ATOM      5  N   UNL     1      47.657   7.176  13.192  0.00  0.00    +0.000 NA
ATOM      6  C   UNL     1      46.939   6.034  13.342  0.00  0.00    +0.000 A 
ENDROOT
BRANCH   4   7
ATOM      7  C   UNL     1      47.743   9.514  12.512  0.00  0.00    +0.000 C 
ATOM      8  N   UNL     1      47.888  10.257  13.651  0.00  0.00    +0.000 N 
ATOM      9  O   UNL     1      48.202   9.882  11.439  0.00  0.00    +0.000 OA
ATOM     10  H   UNL     1      47.483   9.926  14.520  0.00  0.00    +0.000 HD
ATOM     11  H   UNL     1      48.374  11.140  13.611  0.00  0.00    +0.000 HD
ENDBRANCH   4   7
BRANCH   1  12
ATOM     12  O   UNL     1      45.041   4.669  13.249  0.00  0.00    +0.000 OA
BRANCH  12  13
ATOM     13  C   UNL     1      45.513   3.571  12.462  0.00  0.00    +0.000 C 
BRANCH  13  15
ATOM     14  C   UNL     1      43.246   2.725  11.588  0.00  0.00    +0.000 C 
ATOM     15  C   UNL     1      44.551   3.401  11.332  0.00  0.00    +0.000 C 
BRANCH  15  16
ATOM     16  C   UNL     1      45.088   3.464   9.976  0.00  0.00    +0.000 A 
ATOM     17  C   UNL     1      45.387   4.671   9.350  0.00  0.00    +0.000 A 
ATOM     18  N   UNL     1      45.896   4.750   8.095  0.00  0.00    +0.000 NA
ATOM     19  C   UNL     1      46.104   3.562   7.491  0.00  0.00    +0.000 A 
ATOM     20  C   UNL     1      45.815   2.355   8.107  0.00  0.00    +0.000 A 
ATOM     21  N   UNL     1      45.297   2.278   9.357  0.00  0.00    +0.000 NA
ENDBRANCH  15  16
ENDBRANCH  13  15
ENDBRANCH  12  13
ENDBRANCH   1  12
TORSDOF 5
ENDMDL
MODEL 8
REMARK VINA RESULT:    -5.498      3.868      6.328
REMARK INTER + INTRA:          -7.787
REMARK INTER:                  -7.224
REMARK INTRA:                  -0.563
REMARK UNBOUND:                -0.682
REMARK  Name = 
REMARK  6 active torsions:
REMARK  status: ('A' for Active; 'I' for Inactive)
REMARK    1  A    between atoms: C_1  and  C_2
REMARK    2  A    between atoms: C_2  and  C_3
REMARK    3  A    between atoms: C_2  and  C_14
REMARK    4  A    between atoms: C_3  and  O_4
REMARK    5  A    between atoms: O_4  and  C_5
REMARK    6  A    between atoms: C_8  and  C_9
REMARK                            x       y       z     vdW  Elec       q    Type
REMARK                         _______ _______ _______ _____ _____    ______ ____
ROOT
ATOM      1  C   UNL     1      47.137   5.125  13.959  0.00  0.00    +0.000 A 
ATOM      2  C   UNL     1      46.211   6.039  13.464  0.00  0.00    +0.000 A 
ATOM      3  C   UNL     1      45.068   5.576  12.811  0.00  0.00    +0.000 A 
ATOM      4  C   UNL     1      44.892   4.204  12.678  0.00  0.00    +0.000 A 
ATOM      5  N   UNL     1      45.767   3.277  13.155  0.00  0.00    +0.000 NA
ATOM      6  C   UNL     1      46.863   3.770  13.784  0.00  0.00    +0.000 A 
ENDROOT
BRANCH   4   7
ATOM      7  C   UNL     1      43.684   3.687  11.960  0.00  0.00    +0.000 C 
ATOM      8  N   UNL     1      43.589   2.326  11.870  0.00  0.00    +0.000 N 
ATOM      9  O   UNL     1      42.838   4.427  11.475  0.00  0.00    +0.000 OA
ATOM     10  H   UNL     1      44.316   1.745  12.273  0.00  0.00    +0.000 HD
ATOM     11  H   UNL     1      42.809   1.913  11.382  0.00  0.00    +0.000 HD
ENDBRANCH   4   7
BRANCH   1  12
ATOM     12  O   UNL     1      48.301   5.425  14.601  0.00  0.00    +0.000 OA
BRANCH  12  13
ATOM     13  C   UNL     1      48.196   6.030  15.894  0.00  0.00    +0.000 C 
BRANCH  13  15
ATOM     14  C   UNL     1      47.050   4.944  17.927  0.00  0.00    +0.000 C 
ATOM     15  C   UNL     1      48.122   4.918  16.889  0.00  0.00    +0.000 C 
BRANCH  15  16
ATOM     16  C   UNL     1      49.332   4.129  17.107  0.00  0.00    +0.000 A 
ATOM     17  C   UNL     1      50.519   4.697  17.560  0.00  0.00    +0.000 A 
ATOM     18  N   UNL     1      51.649   3.979  17.779  0.00  0.00    +0.000 NA
ATOM     19  C   UNL     1      51.538   2.657  17.531  0.00  0.00    +0.000 A 
ATOM     20  C   UNL     1      50.360   2.082  17.084  0.00  0.00    +0.000 A 
ATOM     21  N   UNL     1      49.234   2.802  16.857  0.00  0.00    +0.000 NA
ENDBRANCH  15  16
ENDBRANCH  13  15
ENDBRANCH  12  13
ENDBRANCH   1  12
TORSDOF 5
ENDMDL
MODEL 9
REMARK VINA RESULT:    -5.268      3.180      5.544
REMARK INTER + INTRA:          -7.490
REMARK INTER:                  -7.028
REMARK INTRA:                  -0.461
REMARK UNBOUND:                -0.682
REMARK  Name = 
REMARK  6 active torsions:
REMARK  status: ('A' for Active; 'I' for Inactive)
REMARK    1  A    between atoms: C_1  and  C_2
REMARK    2  A    between atoms: C_2  and  C_3
REMARK    3  A    between atoms: C_2  and  C_14
REMARK    4  A    between atoms: C_3  and  O_4
REMARK    5  A    between atoms: O_4  and  C_5
REMARK    6  A    between atoms: C_8  and  C_9
REMARK                            x       y       z     vdW  Elec       q    Type
REMARK                         _______ _______ _______ _____ _____    ______ ____
ROOT
ATOM      1  C   UNL     1      46.283   6.054  12.826  0.00  0.00    +0.000 A 
ATOM      2  C   UNL     1      45.726   6.228  11.562  0.00  0.00    +0.000 A 
ATOM      3  C   UNL     1      44.983   5.195  10.989  0.00  0.00    +0.000 A 
ATOM      4  C   UNL     1      44.820   4.017  11.709  0.00  0.00    +0.000 A 
ATOM      5  N   UNL     1      45.339   3.810  12.951  0.00  0.00    +0.000 NA
ATOM      6  C   UNL     1      46.054   4.839  13.470  0.00  0.00    +0.000 A 
ENDROOT
BRANCH   4   7
ATOM      7  C   UNL     1      44.045   2.889  11.103  0.00  0.00    +0.000 C 
ATOM      8  N   UNL     1      44.620   2.298  10.012  0.00  0.00    +0.000 N 
ATOM      9  O   UNL     1      42.964   2.520  11.542  0.00  0.00    +0.000 OA
ATOM     10  H   UNL     1      45.511   2.639   9.669  0.00  0.00    +0.000 HD
ATOM     11  H   UNL     1      44.140   1.544   9.544  0.00  0.00    +0.000 HD
ENDBRANCH   4   7
BRANCH   1  12
ATOM     12  O   UNL     1      47.043   6.960  13.504  0.00  0.00    +0.000 OA
BRANCH  12  13
ATOM     13  C   UNL     1      48.381   6.575  13.832  0.00  0.00    +0.000 C 
BRANCH  13  15
ATOM     14  C   UNL     1      48.835   8.435  15.550  0.00  0.00    +0.000 C 
ATOM     15  C   UNL     1      48.619   6.991  15.246  0.00  0.00    +0.000 C 
BRANCH  15  16
ATOM     16  C   UNL     1      49.089   5.969  16.178  0.00  0.00    +0.000 A 
ATOM     17  C   UNL     1      50.244   6.130  16.938  0.00  0.00    +0.000 A 
ATOM     18  N   UNL     1      50.690   5.198  17.816  0.00  0.00    +0.000 NA
ATOM     19  C   UNL     1      49.922   4.093  17.910  0.00  0.00    +0.000 A 
ATOM     20  C   UNL     1      48.768   3.925  17.162  0.00  0.00    +0.000 A 
ATOM     21  N   UNL     1      48.328   4.854  16.277  0.00  0.00    +0.000 NA
ENDBRANCH  15  16
ENDBRANCH  13  15
ENDBRANCH  12  13
ENDBRANCH   1  12
TORSDOF 5
ENDMDL
