MODEL 1
REMARK VINA RESULT:    -8.522      0.000      0.000
REMARK INTER + INTRA:         -13.636
REMARK INTER:                 -12.508
REMARK INTRA:                  -1.128
REMARK UNBOUND:                -1.128
REMARK  Name = 
REMARK  11 active torsions:
REMARK  status: ('A' for Active; 'I' for Inactive)
REMARK    1  A    between atoms: C_1  and  C_2
REMARK    2  A    between atoms: C_5  and  O_6
REMARK    3  A    between atoms: O_6  and  C_7
REMARK    4  A    between atoms: C_9  and  N_10
REMARK    5  A    between atoms: N_10  and  C_11
REMARK    6  A    between atoms: C_11  and  C_12
REMARK    7  A    between atoms: C_12  and  C_13
REMARK    8  A    between atoms: C_12  and  C_14
REMARK    9  A    between atoms: C_12  and  C_15
REMARK   10  A    between atoms: C_18  and  C_19
REMARK   11  A    between atoms: C_25  and  C_26
REMARK                            x       y       z     vdW  Elec       q    Type
REMARK                         _______ _______ _______ _____ _____    ______ ____
ROOT
ATOM      1  C   UNL     1      48.239   6.116  14.614  0.00  0.00    +0.000 A 
ATOM      2  C   UNL     1      47.067   5.668  14.000  0.00  0.00    +0.000 A 
ATOM      3  C   UNL     1      46.629   6.206  12.784  0.00  0.00    +0.000 A 
ATOM      4  C   UNL     1      47.455   7.140  12.147  0.00  0.00    +0.000 A 
ATOM      5  C   UNL     1      48.647   7.597  12.741  0.00  0.00    +0.000 A 
ATOM      6  C   UNL     1      49.030   7.070  13.982  0.00  0.00    +0.000 A 
ENDROOT
BRANCH   5   7
ATOM      7  C   UNL     1      49.496   8.645  12.071  0.00  0.00    +0.000 C 
ATOM      8  F   UNL     1      50.136   9.470  12.948  0.00  0.00    +0.000 F 
ATOM      9  F   UNL     1      50.477   8.101  11.298  0.00  0.00    +0.000 F 
ATOM     10  F   UNL     1      48.780   9.459  11.250  0.00  0.00    +0.000 F 
ENDBRANCH   5   7
BRANCH   3  11
ATOM     11  N   UNL     1      45.472   5.757  12.126  0.00  0.00    +0.000 N 
ATOM     12  H   UNL     1      44.667   6.307  12.410  0.00  0.00    +0.000 HD
BRANCH  11  13
ATOM     13  C   UNL     1      45.207   4.307  12.125  0.00  0.00    +0.000 C 
BRANCH  13  14
ATOM     14  C   UNL     1      44.209   3.856  11.010  0.00  0.00    +0.000 C 
ATOM     15  C   UNL     1      43.339   2.693  11.547  0.00  0.00    +0.000 C 
ATOM     16  C   UNL     1      43.258   5.017  10.643  0.00  0.00    +0.000 C 
BRANCH  14  17
ATOM     17  C   UNL     1      45.017   3.455   9.748  0.00  0.00    +0.000 A 
ATOM     18  C   UNL     1      45.560   4.404   8.865  0.00  0.00    +0.000 A 
ATOM     19  C   UNL     1      46.290   4.016   7.735  0.00  0.00    +0.000 A 
ATOM     20  C   UNL     1      46.506   2.666   7.456  0.00  0.00    +0.000 A 
ATOM     21  C   UNL     1      45.965   1.702   8.309  0.00  0.00    +0.000 A 
ATOM     22  C   UNL     1      45.236   2.095   9.440  0.00  0.00    +0.000 A 
BRANCH  20  23
ATOM     23  C   UNL     1      47.289   2.313   6.244  0.00  0.00    +0.000 C 
ATOM     24  N   UNL     1      47.095   3.071   5.122  0.00  0.00    +0.000 N 
ATOM     25  O   UNL     1      48.053   1.357   6.228  0.00  0.00    +0.000 OA
ATOM     26  H   UNL     1      46.320   3.709   5.017  0.00  0.00    +0.000 HD
ATOM     27  H   UNL     1      47.554   2.746   4.281  0.00  0.00    +0.000 HD
ENDBRANCH  20  23
ENDBRANCH  14  17
ENDBRANCH  13  14
ENDBRANCH  11  13
ENDBRANCH   3  11
BRANCH   1  28
ATOM     28  O   UNL     1      48.682   5.652  15.830  0.00  0.00    +0.000 OA
BRANCH  28  33
ATOM     29  C   UNL     1      49.009   2.189  16.711  0.00  0.00    +0.000 C 
ATOM     30  C   UNL     1      48.781   3.569  17.297  0.00  0.00    +0.000 C 
ATOM     31  N   UNL     1      47.680   3.559  18.292  0.00  0.00    +0.000 NA
ATOM     32  C   UNL     1      47.217   4.859  17.773  0.00  0.00    +0.000 C 
ATOM     33  C   UNL     1      47.946   4.561  16.439  0.00  0.00    +0.000 C 
ATOM     34  H   UNL     1      47.986   3.574  19.264  0.00  0.00    +0.000 HD
ENDBRANCH  28  33
ENDBRANCH   1  28
TORSDOF 8
ENDMDL
MODEL 2
REMARK VINA RESULT:    -8.109      3.091      4.508
REMARK INTER + INTRA:         -13.029
REMARK INTER:                 -11.874
REMARK INTRA:                  -1.155
REMARK UNBOUND:                -1.128
REMARK  Name = 
REMARK  11 active torsions:
REMARK  status: ('A' for Active; 'I' for Inactive)
REMARK    1  A    between atoms: C_1  and  C_2
REMARK    2  A    between atoms: C_5  and  O_6
REMARK    3  A    between atoms: O_6  and  C_7
REMARK    4  A    between atoms: C_9  and  N_10
REMARK    5  A    between atoms: N_10  and  C_11
REMARK    6  A    between atoms: C_11  and  C_12
REMARK    7  A    between atoms: C_12  and  C_13
REMARK    8  A    between atoms: C_12  and  C_14
REMARK    9  A    between atoms: C_12  and  C_15
REMARK   10  A    between atoms: C_18  and  C_19
REMARK   11  A    between atoms: C_25  and  C_26
REMARK                            x       y       z     vdW  Elec       q    Type
REMARK                         _______ _______ _______ _____ _____    ______ ____
ROOT
ATOM      1  C   UNL     1      48.266   6.200  15.074  0.00  0.00    +0.000 A 
ATOM      2  C   UNL     1      47.458   5.720  14.041  0.00  0.00    +0.000 A 
ATOM      3  C   UNL     1      46.833   4.470  14.125  0.00  0.00    +0.000 A 
ATOM      4  C   UNL     1      46.961   3.753  15.321  0.00  0.00    +0.000 A 
ATOM      5  C   UNL     1      47.760   4.223  16.380  0.00  0.00    +0.000 A 
ATOM      6  C   UNL     1      48.408   5.458  16.243  0.00  0.00    +0.000 A 
ENDROOT
BRANCH   5   7
ATOM      7  C   UNL     1      47.934   3.415  17.639  0.00  0.00    +0.000 C 
ATOM      8  F   UNL     1      46.987   2.447  17.801  0.00  0.00    +0.000 F 
ATOM      9  F   UNL     1      49.131   2.766  17.678  0.00  0.00    +0.000 F 
ATOM     10  F   UNL     1      47.884   4.176  18.766  0.00  0.00    +0.000 F 
ENDBRANCH   5   7
BRANCH   3  11
ATOM     11  N   UNL     1      45.990   3.971  13.116  0.00  0.00    +0.000 N 
ATOM     12  H   UNL     1      46.467   3.252  12.580  0.00  0.00    +0.000 HD
BRANCH  11  13
ATOM     13  C   UNL     1      45.287   4.950  12.269  0.00  0.00    +0.000 C 
BRANCH  13  14
ATOM     14  C   UNL     1      44.202   4.310  11.345  0.00  0.00    +0.000 C 
ATOM     15  C   UNL     1      43.468   3.190  12.123  0.00  0.00    +0.000 C 
ATOM     16  C   UNL     1      43.149   5.368  10.946  0.00  0.00    +0.000 C 
BRANCH  14  17
ATOM     17  C   UNL     1      44.890   3.781  10.058  0.00  0.00    +0.000 A 
ATOM     18  C   UNL     1      45.456   4.637   9.097  0.00  0.00    +0.000 A 
ATOM     19  C   UNL     1      46.075   4.135   7.946  0.00  0.00    +0.000 A 
ATOM     20  C   UNL     1      46.153   2.759   7.724  0.00  0.00    +0.000 A 
ATOM     21  C   UNL     1      45.586   1.888   8.654  0.00  0.00    +0.000 A 
ATOM     22  C   UNL     1      44.968   2.394   9.806  0.00  0.00    +0.000 A 
BRANCH  20  23
ATOM     23  C   UNL     1      46.823   2.283   6.485  0.00  0.00    +0.000 C 
ATOM     24  N   UNL     1      47.042   3.197   5.492  0.00  0.00    +0.000 N 
ATOM     25  O   UNL     1      47.136   1.109   6.335  0.00  0.00    +0.000 OA
ATOM     26  H   UNL     1      46.600   4.105   5.474  0.00  0.00    +0.000 HD
ATOM     27  H   UNL     1      47.396   2.830   4.619  0.00  0.00    +0.000 HD
ENDBRANCH  20  23
ENDBRANCH  14  17
ENDBRANCH  13  14
ENDBRANCH  11  13
ENDBRANCH   3  11
BRANCH   1  28
ATOM     28  O   UNL     1      48.938   7.398  15.017  0.00  0.00    +0.000 OA
BRANCH  28  33
ATOM     29  C   UNL     1      49.118   7.883  11.466  0.00  0.00    +0.000 C 
ATOM     30  C   UNL     1      49.461   8.531  12.794  0.00  0.00    +0.000 C 
ATOM     31  N   UNL     1      50.837   9.087  12.784  0.00  0.00    +0.000 NA
ATOM     32  C   UNL     1      51.024   8.615  14.168  0.00  0.00    +0.000 C 
ATOM     33  C   UNL     1      49.895   7.578  13.942  0.00  0.00    +0.000 C 
ATOM     34  H   UNL     1      50.885  10.099  12.670  0.00  0.00    +0.000 HD
ENDBRANCH  28  33
ENDBRANCH   1  28
TORSDOF 8
ENDMDL
MODEL 3
REMARK VINA RESULT:    -7.954      3.180      4.249
REMARK INTER + INTRA:         -12.802
REMARK INTER:                 -11.744
REMARK INTRA:                  -1.059
REMARK UNBOUND:                -1.128
REMARK  Name = 
REMARK  11 active torsions:
REMARK  status: ('A' for Active; 'I' for Inactive)
REMARK    1  A    between atoms: C_1  and  C_2
REMARK    2  A    between atoms: C_5  and  O_6
REMARK    3  A    between atoms: O_6  and  C_7
REMARK    4  A    between atoms: C_9  and  N_10
REMARK    5  A    between atoms: N_10  and  C_11
REMARK    6  A    between atoms: C_11  and  C_12
REMARK    7  A    between atoms: C_12  and  C_13
REMARK    8  A    between atoms: C_12  and  C_14
REMARK    9  A    between atoms: C_12  and  C_15
REMARK   10  A    between atoms: C_18  and  C_19
REMARK   11  A    between atoms: C_25  and  C_26
REMARK                            x       y       z     vdW  Elec       q    Type
REMARK                         _______ _______ _______ _____ _____    ______ ____
ROOT
ATOM      1  C   UNL     1      48.384   6.827  14.724  0.00  0.00    +0.000 A 
ATOM      2  C   UNL     1      47.535   6.636  13.631  0.00  0.00    +0.000 A 
ATOM      3  C   UNL     1      46.818   5.445  13.464  0.00  0.00    +0.000 A 
ATOM      4  C   UNL     1      46.900   4.484  14.479  0.00  0.00    +0.000 A 
ATOM      5  C   UNL     1      47.739   4.660  15.595  0.00  0.00    +0.000 A 
ATOM      6  C   UNL     1      48.478   5.847  15.706  0.00  0.00    +0.000 A 
ENDROOT
BRANCH   5   7
ATOM      7  C   UNL     1      47.861   3.593  16.651  0.00  0.00    +0.000 C 
ATOM      8  F   UNL     1      48.646   3.957  17.705  0.00  0.00    +0.000 F 
ATOM      9  F   UNL     1      46.657   3.256  17.190  0.00  0.00    +0.000 F 
ATOM     10  F   UNL     1      48.394   2.436  16.173  0.00  0.00    +0.000 F 
ENDBRANCH   5   7
BRANCH   3  11
ATOM     11  N   UNL     1      45.933   5.234  12.392  0.00  0.00    +0.000 N 
ATOM     12  H   UNL     1      45.305   6.025  12.290  0.00  0.00    +0.000 HD
BRANCH  11  13
ATOM     13  C   UNL     1      45.239   3.936  12.328  0.00  0.00    +0.000 C 
BRANCH  13  14
ATOM     14  C   UNL     1      44.241   3.821  11.131  0.00  0.00    +0.000 C 
ATOM     15  C   UNL     1      43.153   2.774  11.475  0.00  0.00    +0.000 C 
ATOM     16  C   UNL     1      43.530   5.173  10.897  0.00  0.00    +0.000 C 
BRANCH  14  17
ATOM     17  C   UNL     1      45.035   3.448   9.851  0.00  0.00    +0.000 A 
ATOM     18  C   UNL     1      45.541   4.416   8.966  0.00  0.00    +0.000 A 
ATOM     19  C   UNL     1      46.259   4.054   7.821  0.00  0.00    +0.000 A 
ATOM     20  C   UNL     1      46.499   2.710   7.527  0.00  0.00    +0.000 A 
ATOM     21  C   UNL     1      45.995   1.728   8.381  0.00  0.00    +0.000 A 
ATOM     22  C   UNL     1      45.278   2.095   9.528  0.00  0.00    +0.000 A 
BRANCH  20  23
ATOM     23  C   UNL     1      47.268   2.385   6.298  0.00  0.00    +0.000 C 
ATOM     24  N   UNL     1      47.103   3.200   5.212  0.00  0.00    +0.000 N 
ATOM     25  O   UNL     1      47.996   1.402   6.237  0.00  0.00    +0.000 OA
ATOM     26  H   UNL     1      46.352   3.871   5.139  0.00  0.00    +0.000 HD
ATOM     27  H   UNL     1      47.548   2.897   4.356  0.00  0.00    +0.000 HD
ENDBRANCH  20  23
ENDBRANCH  14  17
ENDBRANCH  13  14
ENDBRANCH  11  13
ENDBRANCH   3  11
BRANCH   1  28
ATOM     28  O   UNL     1      49.143   7.959  14.905  0.00  0.00    +0.000 OA
BRANCH  28  33
ATOM     29  C   UNL     1      47.973  10.099  17.535  0.00  0.00    +0.000 C 
ATOM     30  C   UNL     1      48.909  10.050  16.343  0.00  0.00    +0.000 C 
ATOM     31  N   UNL     1      48.783  11.268  15.506  0.00  0.00    +0.000 NA
ATOM     32  C   UNL     1      48.904  10.433  14.297  0.00  0.00    +0.000 C 
ATOM     33  C   UNL     1      48.441   9.208  15.124  0.00  0.00    +0.000 C 
ATOM     34  H   UNL     1      49.532  11.948  15.630  0.00  0.00    +0.000 HD
ENDBRANCH  28  33
ENDBRANCH   1  28
TORSDOF 8
ENDMDL
MODEL 4
REMARK VINA RESULT:    -7.371      2.787      7.971
REMARK INTER + INTRA:         -11.945
REMARK INTER:                 -11.257
REMARK INTRA:                  -0.688
REMARK UNBOUND:                -1.128
REMARK  Name = 
REMARK  11 active torsions:
REMARK  status: ('A' for Active; 'I' for Inactive)
REMARK    1  A    between atoms: C_1  and  C_2
REMARK    2  A    between atoms: C_5  and  O_6
REMARK    3  A    between atoms: O_6  and  C_7
REMARK    4  A    between atoms: C_9  and  N_10
REMARK    5  A    between atoms: N_10  and  C_11
REMARK    6  A    between atoms: C_11  and  C_12
REMARK    7  A    between atoms: C_12  and  C_13
REMARK    8  A    between atoms: C_12  and  C_14
REMARK    9  A    between atoms: C_12  and  C_15
REMARK   10  A    between atoms: C_18  and  C_19
REMARK   11  A    between atoms: C_25  and  C_26
REMARK                            x       y       z     vdW  Elec       q    Type
REMARK                         _______ _______ _______ _____ _____    ______ ____
ROOT
ATOM      1  C   UNL     1      45.045   5.793  12.143  0.00  0.00    +0.000 A 
ATOM      2  C   UNL     1      45.280   5.061  13.310  0.00  0.00    +0.000 A 
ATOM      3  C   UNL     1      46.502   5.142  13.987  0.00  0.00    +0.000 A 
ATOM      4  C   UNL     1      47.452   6.057  13.517  0.00  0.00    +0.000 A 
ATOM      5  C   UNL     1      47.233   6.814  12.351  0.00  0.00    +0.000 A 
ATOM      6  C   UNL     1      46.014   6.672  11.671  0.00  0.00    +0.000 A 
ENDROOT
BRANCH   5   7
ATOM      7  C   UNL     1      48.287   7.752  11.823  0.00  0.00    +0.000 C 
ATOM      8  F   UNL     1      47.826   9.014  11.592  0.00  0.00    +0.000 F 
ATOM      9  F   UNL     1      49.331   7.895  12.686  0.00  0.00    +0.000 F 
ATOM     10  F   UNL     1      48.827   7.331  10.647  0.00  0.00    +0.000 F 
ENDBRANCH   5   7
BRANCH   3  11
ATOM     11  N   UNL     1      46.759   4.443  15.179  0.00  0.00    +0.000 N 
ATOM     12  H   UNL     1      45.912   4.365  15.734  0.00  0.00    +0.000 HD
BRANCH  11  13
ATOM     13  C   UNL     1      47.930   4.855  15.973  0.00  0.00    +0.000 C 
BRANCH  13  14
ATOM     14  C   UNL     1      48.038   4.126  17.351  0.00  0.00    +0.000 C 
ATOM     15  C   UNL     1      47.705   5.129  18.483  0.00  0.00    +0.000 C 
ATOM     16  C   UNL     1      47.008   2.977  17.428  0.00  0.00    +0.000 C 
BRANCH  14  17
ATOM     17  C   UNL     1      49.463   3.529  17.491  0.00  0.00    +0.000 A 
ATOM     18  C   UNL     1      49.752   2.185  17.197  0.00  0.00    +0.000 A 
ATOM     19  C   UNL     1      51.048   1.672  17.327  0.00  0.00    +0.000 A 
ATOM     20  C   UNL     1      52.098   2.489  17.749  0.00  0.00    +0.000 A 
ATOM     21  C   UNL     1      51.835   3.824  18.062  0.00  0.00    +0.000 A 
ATOM     22  C   UNL     1      50.537   4.334  17.929  0.00  0.00    +0.000 A 
BRANCH  20  23
ATOM     23  C   UNL     1      53.453   1.890  17.867  0.00  0.00    +0.000 C 
ATOM     24  N   UNL     1      53.551   0.655  18.445  0.00  0.00    +0.000 N 
ATOM     25  O   UNL     1      54.454   2.490  17.500  0.00  0.00    +0.000 OA
ATOM     26  H   UNL     1      52.797   0.231  18.966  0.00  0.00    +0.000 HD
ATOM     27  H   UNL     1      54.489   0.316  18.615  0.00  0.00    +0.000 HD
ENDBRANCH  20  23
ENDBRANCH  14  17
ENDBRANCH  13  14
ENDBRANCH  11  13
ENDBRANCH   3  11
BRANCH   1  28
ATOM     28  O   UNL     1      43.880   5.710  11.418  0.00  0.00    +0.000 OA
BRANCH  28  33
ATOM     29  C   UNL     1      44.996   4.012   8.460  0.00  0.00    +0.000 C 
ATOM     30  C   UNL     1      44.907   3.881   9.968  0.00  0.00    +0.000 C 
ATOM     31  N   UNL     1      44.416   2.539  10.366  0.00  0.00    +0.000 NA
ATOM     32  C   UNL     1      43.611   3.164  11.432  0.00  0.00    +0.000 C 
ATOM     33  C   UNL     1      43.655   4.500  10.649  0.00  0.00    +0.000 C 
ATOM     34  H   UNL     1      45.140   1.903  10.698  0.00  0.00    +0.000 HD
ENDBRANCH  28  33
ENDBRANCH   1  28
TORSDOF 8
ENDMDL
MODEL 5
REMARK VINA RESULT:    -7.132      4.213      8.438
REMARK INTER + INTRA:         -11.595
REMARK INTER:                 -10.584
REMARK INTRA:                  -1.011
REMARK UNBOUND:                -1.128
REMARK  Name = 
REMARK  11 active torsions:
REMARK  status: ('A' for Active; 'I' for Inactive)
REMARK    1  A    between atoms: C_1  and  C_2
REMARK    2  A    between atoms: C_5  and  O_6
REMARK    3  A    between atoms: O_6  and  C_7
REMARK    4  A    between atoms: C_9  and  N_10
REMARK    5  A    between atoms: N_10  and  C_11
REMARK    6  A    between atoms: C_11  and  C_12
REMARK    7  A    between atoms: C_12  and  C_13
REMARK    8  A    between atoms: C_12  and  C_14
REMARK    9  A    between atoms: C_12  and  C_15
REMARK   10  A    between atoms: C_18  and  C_19
REMARK   11  A    between atoms: C_25  and  C_26
REMARK                            x       y       z     vdW  Elec       q    Type
REMARK                         _______ _______ _______ _____ _____    ______ ____
ROOT
ATOM      1  C   UNL     1      46.581   6.414  12.137  0.00  0.00    +0.000 A 
ATOM      2  C   UNL     1      47.033   5.826  13.322  0.00  0.00    +0.000 A 
ATOM      3  C   UNL     1      46.534   4.594  13.760  0.00  0.00    +0.000 A 
ATOM      4  C   UNL     1      45.640   3.915  12.923  0.00  0.00    +0.000 A 
ATOM      5  C   UNL     1      45.181   4.481  11.720  0.00  0.00    +0.000 A 
ATOM      6  C   UNL     1      45.666   5.739  11.335  0.00  0.00    +0.000 A 
ENDROOT
BRANCH   5   7
ATOM      7  C   UNL     1      44.174   3.765  10.858  0.00  0.00    +0.000 C 
ATOM      8  F   UNL     1      43.564   4.574   9.946  0.00  0.00    +0.000 F 
ATOM      9  F   UNL     1      44.735   2.756  10.135  0.00  0.00    +0.000 F 
ATOM     10  F   UNL     1      43.171   3.196  11.580  0.00  0.00    +0.000 F 
ENDBRANCH   5   7
BRANCH   3  11
ATOM     11  N   UNL     1      46.989   3.962  14.930  0.00  0.00    +0.000 N 
ATOM     12  H   UNL     1      46.212   3.537  15.428  0.00  0.00    +0.000 HD
BRANCH  11  13
ATOM     13  C   UNL     1      47.889   4.725  15.812  0.00  0.00    +0.000 C 
BRANCH  13  14
ATOM     14  C   UNL     1      48.033   4.109  17.241  0.00  0.00    +0.000 C 
ATOM     15  C   UNL     1      47.708   5.195  18.297  0.00  0.00    +0.000 C 
ATOM     16  C   UNL     1      47.020   2.958  17.430  0.00  0.00    +0.000 C 
BRANCH  14  17
ATOM     17  C   UNL     1      49.468   3.542  17.399  0.00  0.00    +0.000 A 
ATOM     18  C   UNL     1      50.550   4.331  17.825  0.00  0.00    +0.000 A 
ATOM     19  C   UNL     1      51.835   3.794  17.964  0.00  0.00    +0.000 A 
ATOM     20  C   UNL     1      52.077   2.447  17.688  0.00  0.00    +0.000 A 
ATOM     21  C   UNL     1      51.023   1.645  17.249  0.00  0.00    +0.000 A 
ATOM     22  C   UNL     1      49.737   2.186  17.113  0.00  0.00    +0.000 A 
BRANCH  20  23
ATOM     23  C   UNL     1      53.461   1.932  17.855  0.00  0.00    +0.000 C 
ATOM     24  N   UNL     1      53.655   0.915  18.747  0.00  0.00    +0.000 N 
ATOM     25  O   UNL     1      54.405   2.420  17.248  0.00  0.00    +0.000 OA
ATOM     26  H   UNL     1      52.962   0.643  19.430  0.00  0.00    +0.000 HD
ATOM     27  H   UNL     1      54.616   0.656  18.926  0.00  0.00    +0.000 HD
ENDBRANCH  20  23
ENDBRANCH  14  17
ENDBRANCH  13  14
ENDBRANCH  11  13
ENDBRANCH   3  11
BRANCH   1  28
ATOM     28  O   UNL     1      47.005   7.643  11.692  0.00  0.00    +0.000 OA
BRANCH  28  33
ATOM     29  C   UNL     1      48.301  10.783  12.847  0.00  0.00    +0.000 C 
ATOM     30  C   UNL     1      47.208  10.166  11.995  0.00  0.00    +0.000 C 
ATOM     31  N   UNL     1      45.888  10.782  12.280  0.00  0.00    +0.000 NA
ATOM     32  C   UNL     1      45.260   9.452  12.175  0.00  0.00    +0.000 C 
ATOM     33  C   UNL     1      46.634   8.804  12.477  0.00  0.00    +0.000 C 
ATOM     34  H   UNL     1      45.575  11.456  11.582  0.00  0.00    +0.000 HD
ENDBRANCH  28  33
ENDBRANCH   1  28
TORSDOF 8
ENDMDL
MODEL 6
REMARK VINA RESULT:    -7.117      4.002      5.752
REMARK INTER + INTRA:         -11.573
REMARK INTER:                 -10.006
REMARK INTRA:                  -1.566
REMARK UNBOUND:                -1.128
REMARK  Name = 
REMARK  11 active torsions:
REMARK  status: ('A' for Active; 'I' for Inactive)
REMARK    1  A    between atoms: C_1  and  C_2
REMARK    2  A    between atoms: C_5  and  O_6
REMARK    3  A    between atoms: O_6  and  C_7
REMARK    4  A    between atoms: C_9  and  N_10
REMARK    5  A    between atoms: N_10  and  C_11
REMARK    6  A    between atoms: C_11  and  C_12
REMARK    7  A    between atoms: C_12  and  C_13
REMARK    8  A    between atoms: C_12  and  C_14
REMARK    9  A    between atoms: C_12  and  C_15
REMARK   10  A    between atoms: C_18  and  C_19
REMARK   11  A    between atoms: C_25  and  C_26
REMARK                            x       y       z     vdW  Elec       q    Type
REMARK                         _______ _______ _______ _____ _____    ______ ____
ROOT
ATOM      1  C   UNL     1      49.913   5.553  17.841  0.00  0.00    +0.000 A 
ATOM      2  C   UNL     1      50.006   6.198  16.605  0.00  0.00    +0.000 A 
ATOM      3  C   UNL     1      49.333   7.400  16.357  0.00  0.00    +0.000 A 
ATOM      4  C   UNL     1      48.641   7.994  17.420  0.00  0.00    +0.000 A 
ATOM      5  C   UNL     1      48.544   7.369  18.678  0.00  0.00    +0.000 A 
ATOM      6  C   UNL     1      49.192   6.141  18.875  0.00  0.00    +0.000 A 
ENDROOT
BRANCH   5   7
ATOM      7  C   UNL     1      47.748   7.991  19.795  0.00  0.00    +0.000 C 
ATOM      8  F   UNL     1      47.144   7.078  20.607  0.00  0.00    +0.000 F 
ATOM      9  F   UNL     1      48.518   8.759  20.615  0.00  0.00    +0.000 F 
ATOM     10  F   UNL     1      46.754   8.805  19.345  0.00  0.00    +0.000 F 
ENDBRANCH   5   7
BRANCH   3  11
ATOM     11  N   UNL     1      49.430   8.089  15.136  0.00  0.00    +0.000 N 
ATOM     12  H   UNL     1      48.805   8.890  15.130  0.00  0.00    +0.000 HD
BRANCH  11  13
ATOM     13  C   UNL     1      49.357   7.294  13.897  0.00  0.00    +0.000 C 
BRANCH  13  14
ATOM     14  C   UNL     1      48.215   7.747  12.931  0.00  0.00    +0.000 C 
ATOM     15  C   UNL     1      47.503   8.984  13.532  0.00  0.00    +0.000 C 
ATOM     16  C   UNL     1      48.806   8.166  11.566  0.00  0.00    +0.000 C 
BRANCH  14  17
ATOM     17  C   UNL     1      47.245   6.556  12.711  0.00  0.00    +0.000 A 
ATOM     18  C   UNL     1      47.127   5.498  13.628  0.00  0.00    +0.000 A 
ATOM     19  C   UNL     1      46.241   4.437  13.408  0.00  0.00    +0.000 A 
ATOM     20  C   UNL     1      45.439   4.404  12.265  0.00  0.00    +0.000 A 
ATOM     21  C   UNL     1      45.548   5.435  11.331  0.00  0.00    +0.000 A 
ATOM     22  C   UNL     1      46.436   6.497  11.556  0.00  0.00    +0.000 A 
BRANCH  20  23
ATOM     23  C   UNL     1      44.516   3.254  12.085  0.00  0.00    +0.000 C 
ATOM     24  N   UNL     1      44.585   2.565  10.906  0.00  0.00    +0.000 N 
ATOM     25  O   UNL     1      43.693   2.951  12.939  0.00  0.00    +0.000 OA
ATOM     26  H   UNL     1      45.074   2.913  10.094  0.00  0.00    +0.000 HD
ATOM     27  H   UNL     1      43.876   1.859  10.760  0.00  0.00    +0.000 HD
ENDBRANCH  20  23
ENDBRANCH  14  17
ENDBRANCH  13  14
ENDBRANCH  11  13
ENDBRANCH   3  11
BRANCH   1  28
ATOM     28  O   UNL     1      50.515   4.349  18.114  0.00  0.00    +0.000 OA
BRANCH  28  33
ATOM     29  C   UNL     1      47.246   3.257  17.119  0.00  0.00    +0.000 C 
ATOM     30  C   UNL     1      48.707   3.224  16.714  0.00  0.00    +0.000 C 
ATOM     31  N   UNL     1      49.120   1.862  16.293  0.00  0.00    +0.000 NA
ATOM     32  C   UNL     1      50.409   2.055  16.984  0.00  0.00    +0.000 C 
ATOM     33  C   UNL     1      49.748   3.144  17.865  0.00  0.00    +0.000 C 
ATOM     34  H   UNL     1      49.194   1.733  15.285  0.00  0.00    +0.000 HD
ENDBRANCH  28  33
ENDBRANCH   1  28
TORSDOF 8
ENDMDL
MODEL 7
REMARK VINA RESULT:    -6.712      4.612      6.061
REMARK INTER + INTRA:         -10.979
REMARK INTER:                  -9.260
REMARK INTRA:                  -1.719
REMARK UNBOUND:                -1.128
REMARK  Name = 
REMARK  11 active torsions:
REMARK  status: ('A' for Active; 'I' for Inactive)
REMARK    1  A    between atoms: C_1  and  C_2
REMARK    2  A    between atoms: C_5  and  O_6
REMARK    3  A    between atoms: O_6  and  C_7
REMARK    4  A    between atoms: C_9  and  N_10
REMARK    5  A    between atoms: N_10  and  C_11
REMARK    6  A    between atoms: C_11  and  C_12
REMARK    7  A    between atoms: C_12  and  C_13
REMARK    8  A    between atoms: C_12  and  C_14
REMARK    9  A    between atoms: C_12  and  C_15
REMARK   10  A    between atoms: C_18  and  C_19
REMARK   11  A    between atoms: C_25  and  C_26
REMARK                            x       y       z     vdW  Elec       q    Type
REMARK                         _______ _______ _______ _____ _____    ______ ____
ROOT
ATOM      1  C   UNL     1      48.387   6.650  17.742  0.00  0.00    +0.000 A 
ATOM      2  C   UNL     1      48.753   7.138  16.485  0.00  0.00    +0.000 A 
ATOM      3  C   UNL     1      48.663   8.501  16.178  0.00  0.00    +0.000 A 
ATOM      4  C   UNL     1      48.289   9.379  17.202  0.00  0.00    +0.000 A 
ATOM      5  C   UNL     1      47.927   8.912  18.479  0.00  0.00    +0.000 A 
ATOM      6  C   UNL     1      47.985   7.535  18.737  0.00  0.00    +0.000 A 
ENDROOT
BRANCH   5   7
ATOM      7  C   UNL     1      47.471   9.863  19.554  0.00  0.00    +0.000 C 
ATOM      8  F   UNL     1      46.173   9.679  19.929  0.00  0.00    +0.000 F 
ATOM      9  F   UNL     1      48.203   9.744  20.696  0.00  0.00    +0.000 F 
ATOM     10  F   UNL     1      47.569  11.168  19.180  0.00  0.00    +0.000 F 
ENDBRANCH   5   7
BRANCH   3  11
ATOM     11  N   UNL     1      49.052   9.027  14.934  0.00  0.00    +0.000 N 
ATOM     12  H   UNL     1      48.340   9.658  14.578  0.00  0.00    +0.000 HD
BRANCH  11  13
ATOM     13  C   UNL     1      49.544   8.082  13.916  0.00  0.00    +0.000 C 
BRANCH  13  14
ATOM     14  C   UNL     1      48.745   8.139  12.574  0.00  0.00    +0.000 C 
ATOM     15  C   UNL     1      48.435   9.616  12.230  0.00  0.00    +0.000 C 
ATOM     16  C   UNL     1      49.597   7.561  11.422  0.00  0.00    +0.000 C 
BRANCH  14  17
ATOM     17  C   UNL     1      47.458   7.284  12.720  0.00  0.00    +0.000 A 
ATOM     18  C   UNL     1      46.179   7.786  12.426  0.00  0.00    +0.000 A 
ATOM     19  C   UNL     1      45.034   6.993  12.562  0.00  0.00    +0.000 A 
ATOM     20  C   UNL     1      45.134   5.668  12.991  0.00  0.00    +0.000 A 
ATOM     21  C   UNL     1      46.390   5.149  13.304  0.00  0.00    +0.000 A 
ATOM     22  C   UNL     1      47.535   5.946  13.165  0.00  0.00    +0.000 A 
BRANCH  20  23
ATOM     23  C   UNL     1      43.884   4.873  13.115  0.00  0.00    +0.000 C 
ATOM     24  N   UNL     1      42.697   5.551  13.095  0.00  0.00    +0.000 N 
ATOM     25  O   UNL     1      43.909   3.659  13.270  0.00  0.00    +0.000 OA
ATOM     26  H   UNL     1      42.635   6.552  13.203  0.00  0.00    +0.000 HD
ATOM     27  H   UNL     1      41.869   5.004  13.291  0.00  0.00    +0.000 HD
ENDBRANCH  20  23
ENDBRANCH  14  17
ENDBRANCH  13  14
ENDBRANCH  11  13
ENDBRANCH   3  11
BRANCH   1  28
ATOM     28  O   UNL     1      48.413   5.316  18.074  0.00  0.00    +0.000 OA
BRANCH  28  33
ATOM     29  C   UNL     1      51.008   2.907  17.496  0.00  0.00    +0.000 C 
ATOM     30  C   UNL     1      49.503   3.060  17.607  0.00  0.00    +0.000 C 
ATOM     31  N   UNL     1      48.804   2.340  16.514  0.00  0.00    +0.000 NA
ATOM     32  C   UNL     1      47.849   3.458  16.406  0.00  0.00    +0.000 C 
ATOM     33  C   UNL     1      48.896   4.386  17.072  0.00  0.00    +0.000 C 
ATOM     34  H   UNL     1      48.388   1.451  16.789  0.00  0.00    +0.000 HD
ENDBRANCH  28  33
ENDBRANCH   1  28
TORSDOF 8
ENDMDL
MODEL 8
REMARK VINA RESULT:    -6.541      1.749      2.051
REMARK INTER + INTRA:         -10.727
REMARK INTER:                 -10.294
REMARK INTRA:                  -0.433
REMARK UNBOUND:                -1.128
REMARK  Name = 
REMARK  11 active torsions:
REMARK  status: ('A' for Active; 'I' for Inactive)
REMARK    1  A    between atoms: C_1  and  C_2
REMARK    2  A    between atoms: C_5  and  O_6
REMARK    3  A    between atoms: O_6  and  C_7
REMARK    4  A    between atoms: C_9  and  N_10
REMARK    5  A    between atoms: N_10  and  C_11
REMARK    6  A    between atoms: C_11  and  C_12
REMARK    7  A    between atoms: C_12  and  C_13
REMARK    8  A    between atoms: C_12  and  C_14
REMARK    9  A    between atoms: C_12  and  C_15
REMARK   10  A    between atoms: C_18  and  C_19
REMARK   11  A    between atoms: C_25  and  C_26
REMARK                            x       y       z     vdW  Elec       q    Type
REMARK                         _______ _______ _______ _____ _____    ______ ____
ROOT
ATOM      1  C   UNL     1      48.455   6.679  14.235  0.00  0.00    +0.000 A 
ATOM      2  C   UNL     1      47.647   6.071  13.270  0.00  0.00    +0.000 A 
ATOM      3  C   UNL     1      47.211   6.771  12.140  0.00  0.00    +0.000 A 
ATOM      4  C   UNL     1      47.689   8.074  11.951  0.00  0.00    +0.000 A 
ATOM      5  C   UNL     1      48.513   8.702  12.904  0.00  0.00    +0.000 A 
ATOM      6  C   UNL     1      48.893   7.985  14.048  0.00  0.00    +0.000 A 
ENDROOT
BRANCH   5   7
ATOM      7  C   UNL     1      48.973  10.124  12.716  0.00  0.00    +0.000 C 
ATOM      8  F   UNL     1      50.096  10.431  13.427  0.00  0.00    +0.000 F 
ATOM      9  F   UNL     1      49.273  10.405  11.418  0.00  0.00    +0.000 F 
ATOM     10  F   UNL     1      48.035  11.036  13.090  0.00  0.00    +0.000 F 
ENDBRANCH   5   7
BRANCH   3  11
ATOM     11  N   UNL     1      46.424   6.181  11.136  0.00  0.00    +0.000 N 
ATOM     12  H   UNL     1      46.547   6.671  10.255  0.00  0.00    +0.000 HD
BRANCH  11  13
ATOM     13  C   UNL     1      45.010   5.909  11.449  0.00  0.00    +0.000 C 
BRANCH  13  14
ATOM     14  C   UNL     1      44.582   4.432  11.169  0.00  0.00    +0.000 C 
ATOM     15  C   UNL     1      44.983   3.550  12.376  0.00  0.00    +0.000 C 
ATOM     16  C   UNL     1      43.047   4.342  11.015  0.00  0.00    +0.000 C 
BRANCH  14  17
ATOM     17  C   UNL     1      45.244   3.961   9.847  0.00  0.00    +0.000 A 
ATOM     18  C   UNL     1      45.737   4.861   8.886  0.00  0.00    +0.000 A 
ATOM     19  C   UNL     1      46.334   4.411   7.703  0.00  0.00    +0.000 A 
ATOM     20  C   UNL     1      46.464   3.044   7.447  0.00  0.00    +0.000 A 
ATOM     21  C   UNL     1      45.970   2.130   8.378  0.00  0.00    +0.000 A 
ATOM     22  C   UNL     1      45.373   2.585   9.562  0.00  0.00    +0.000 A 
BRANCH  20  23
ATOM     23  C   UNL     1      47.108   2.624   6.175  0.00  0.00    +0.000 C 
ATOM     24  N   UNL     1      48.449   2.358   6.202  0.00  0.00    +0.000 N 
ATOM     25  O   UNL     1      46.477   2.554   5.129  0.00  0.00    +0.000 OA
ATOM     26  H   UNL     1      49.047   2.623   6.972  0.00  0.00    +0.000 HD
ATOM     27  H   UNL     1      48.886   2.183   5.307  0.00  0.00    +0.000 HD
ENDBRANCH  20  23
ENDBRANCH  14  17
ENDBRANCH  13  14
ENDBRANCH  11  13
ENDBRANCH   3  11
BRANCH   1  28
ATOM     28  O   UNL     1      48.868   6.047  15.384  0.00  0.00    +0.000 OA
BRANCH  28  33
ATOM     29  C   UNL     1      48.000   7.431  18.578  0.00  0.00    +0.000 C 
ATOM     30  C   UNL     1      48.975   6.494  17.891  0.00  0.00    +0.000 C 
ATOM     31  N   UNL     1      50.369   6.746  18.334  0.00  0.00    +0.000 NA
ATOM     32  C   UNL     1      50.832   6.539  16.950  0.00  0.00    +0.000 C 
ATOM     33  C   UNL     1      49.406   6.874  16.447  0.00  0.00    +0.000 C 
ATOM     34  H   UNL     1      50.729   6.070  19.008  0.00  0.00    +0.000 HD
ENDBRANCH  28  33
ENDBRANCH   1  28
TORSDOF 8
ENDMDL
MODEL 9
REMARK VINA RESULT:    -6.411      3.299      4.823
REMARK INTER + INTRA:         -10.538
REMARK INTER:                  -9.048
REMARK INTRA:                  -1.489
REMARK UNBOUND:                -1.128
REMARK  Name = 
REMARK  11 active torsions:
REMARK  status: ('A' for Active; 'I' for Inactive)
REMARK    1  A    between atoms: C_1  and  C_2
REMARK    2  A    between atoms: C_5  and  O_6
REMARK    3  A    between atoms: O_6  and  C_7
REMARK    4  A    between atoms: C_9  and  N_10
REMARK    5  A    between atoms: N_10  and  C_11
REMARK    6  A    between atoms: C_11  and  C_12
REMARK    7  A    between atoms: C_12  and  C_13
REMARK    8  A    between atoms: C_12  and  C_14
REMARK    9  A    between atoms: C_12  and  C_15
REMARK   10  A    between atoms: C_18  and  C_19
REMARK   11  A    between atoms: C_25  and  C_26
REMARK                            x       y       z     vdW  Elec       q    Type
REMARK                         _______ _______ _______ _____ _____    ______ ____
ROOT
ATOM      1  C   UNL     1      50.818   6.203  16.660  0.00  0.00    +0.000 A 
ATOM      2  C   UNL     1      49.814   6.873  15.955  0.00  0.00    +0.000 A 
ATOM      3  C   UNL     1      50.121   7.859  15.010  0.00  0.00    +0.000 A 
ATOM      4  C   UNL     1      51.471   8.087  14.717  0.00  0.00    +0.000 A 
ATOM      5  C   UNL     1      52.499   7.416  15.406  0.00  0.00    +0.000 A 
ATOM      6  C   UNL     1      52.154   6.467  16.380  0.00  0.00    +0.000 A 
ENDROOT
BRANCH   5   7
ATOM      7  C   UNL     1      53.948   7.713  15.121  0.00  0.00    +0.000 C 
ATOM      8  F   UNL     1      54.131   8.669  14.167  0.00  0.00    +0.000 F 
ATOM      9  F   UNL     1      54.612   8.162  16.222  0.00  0.00    +0.000 F 
ATOM     10  F   UNL     1      54.635   6.620  14.689  0.00  0.00    +0.000 F 
ENDBRANCH   5   7
BRANCH   3  11
ATOM     11  N   UNL     1      49.137   8.529  14.263  0.00  0.00    +0.000 N 
ATOM     12  H   UNL     1      48.986   9.462  14.633  0.00  0.00    +0.000 HD
BRANCH  11  13
ATOM     13  C   UNL     1      47.882   7.809  13.987  0.00  0.00    +0.000 C 
BRANCH  13  14
ATOM     14  C   UNL     1      47.481   7.809  12.476  0.00  0.00    +0.000 C 
ATOM     15  C   UNL     1      46.774   9.145  12.139  0.00  0.00    +0.000 C 
ATOM     16  C   UNL     1      48.744   7.714  11.590  0.00  0.00    +0.000 C 
BRANCH  14  17
ATOM     17  C   UNL     1      46.581   6.576  12.197  0.00  0.00    +0.000 A 
ATOM     18  C   UNL     1      45.731   6.498  11.080  0.00  0.00    +0.000 A 
ATOM     19  C   UNL     1      44.932   5.373  10.848  0.00  0.00    +0.000 A 
ATOM     20  C   UNL     1      44.964   4.286  11.724  0.00  0.00    +0.000 A 
ATOM     21  C   UNL     1      45.788   4.344  12.848  0.00  0.00    +0.000 A 
ATOM     22  C   UNL     1      46.587   5.472  13.076  0.00  0.00    +0.000 A 
BRANCH  20  23
ATOM     23  C   UNL     1      44.095   3.117  11.426  0.00  0.00    +0.000 C 
ATOM     24  N   UNL     1      43.689   2.345  12.479  0.00  0.00    +0.000 N 
ATOM     25  O   UNL     1      43.781   2.826  10.279  0.00  0.00    +0.000 OA
ATOM     26  H   UNL     1      44.104   2.406  13.397  0.00  0.00    +0.000 HD
ATOM     27  H   UNL     1      43.192   1.496  12.243  0.00  0.00    +0.000 HD
ENDBRANCH  20  23
ENDBRANCH  14  17
ENDBRANCH  13  14
ENDBRANCH  11  13
ENDBRANCH   3  11
BRANCH   1  28
ATOM     28  O   UNL     1      50.564   5.263  17.630  0.00  0.00    +0.000 OA
BRANCH  28  33
ATOM     29  C   UNL     1      47.617   3.755  16.247  0.00  0.00    +0.000 C 
ATOM     30  C   UNL     1      48.605   3.649  17.393  0.00  0.00    +0.000 C 
ATOM     31  N   UNL     1      47.910   3.451  18.689  0.00  0.00    +0.000 NA
ATOM     32  C   UNL     1      48.878   4.359  19.331  0.00  0.00    +0.000 C 
ATOM     33  C   UNL     1      49.176   4.985  17.946  0.00  0.00    +0.000 C 
ATOM     34  H   UNL     1      47.929   2.494  19.039  0.00  0.00    +0.000 HD
ENDBRANCH  28  33
ENDBRANCH   1  28
TORSDOF 8
ENDMDL
