MODEL 1
REMARK VINA RESULT:    -7.272      0.000      0.000
REMARK INTER + INTRA:         -10.647
REMARK INTER:                  -9.823
REMARK INTRA:                  -0.824
REMARK UNBOUND:                -0.824
REMARK  Name = 
REMARK  8 active torsions:
REMARK  status: ('A' for Active; 'I' for Inactive)
REMARK    1  A    between atoms: C_1  and  N_2
REMARK    2  A    between atoms: N_2  and  C_3
REMARK    3  A    between atoms: N_2  and  C_4
REMARK    4  A    between atoms: C_4  and  C_5
REMARK    5  A    between atoms: C_5  and  N_6
REMARK    6  A    between atoms: C_7  and  C_9
REMARK    7  A    between atoms: C_12  and  C_13
REMARK    8  A    between atoms: C_13  and  N_14
REMARK                            x       y       z     vdW  Elec       q    Type
REMARK                         _______ _______ _______ _____ _____    ______ ____
ROOT
ATOM      1  C   UNL     1      46.448   4.752  13.511  0.00  0.00    +0.000 A 
ATOM      2  C   UNL     1      46.197   5.786  12.602  0.00  0.00    +0.000 A 
ATOM      3  C   UNL     1      45.521   5.518  11.406  0.00  0.00    +0.000 A 
ATOM      4  C   UNL     1      45.095   4.217  11.097  0.00  0.00    +0.000 A 
ATOM      5  C   UNL     1      45.334   3.191  12.022  0.00  0.00    +0.000 A 
ATOM      6  C   UNL     1      46.007   3.456  13.217  0.00  0.00    +0.000 A 
ENDROOT
BRANCH   1   8
ATOM      7  N   UNL     1      46.884   4.231  15.864  0.00  0.00    +0.000 N 
ATOM      8  C   UNL     1      47.246   4.957  14.751  0.00  0.00    +0.000 C 
ATOM      9  O   UNL     1      48.185   5.750  14.749  0.00  0.00    +0.000 OA
ATOM     10  H   UNL     1      46.296   3.411  15.777  0.00  0.00    +0.000 HD
BRANCH   7  11
ATOM     11  C   UNL     1      47.631   4.357  17.102  0.00  0.00    +0.000 C 
BRANCH  11  12
ATOM     12  C   UNL     1      48.785   3.343  17.185  0.00  0.00    +0.000 C 
BRANCH  12  14
ATOM     13  C   UNL     1      50.219   5.270  17.590  0.00  0.00    +0.000 C 
ATOM     14  N   UNL     1      50.134   3.927  17.005  0.00  0.00    +0.000 NA
ATOM     15  C   UNL     1      51.127   3.058  17.652  0.00  0.00    +0.000 C 
ENDBRANCH  12  14
ENDBRANCH  11  12
ENDBRANCH   7  11
ENDBRANCH   1   8
BRANCH   4  16
ATOM     16  C   UNL     1      44.415   3.916   9.784  0.00  0.00    +0.000 C 
BRANCH  16  17
ATOM     17  N   UNL     1      45.364   3.761   8.686  0.00  0.00    +0.000 N 
ATOM     18  C   UNL     1      45.983   4.811   8.046  0.00  0.00    +0.000 A 
ATOM     19  C   UNL     1      46.908   4.296   7.169  0.00  0.00    +0.000 A 
ATOM     20  C   UNL     1      46.862   2.880   7.274  0.00  0.00    +0.000 A 
ATOM     21  C   UNL     1      47.573   1.836   6.662  0.00  0.00    +0.000 A 
ATOM     22  N   UNL     1      47.307   0.543   6.973  0.00  0.00    +0.000 NA
ATOM     23  C   UNL     1      46.343   0.281   7.877  0.00  0.00    +0.000 A 
ATOM     24  C   UNL     1      45.584   1.237   8.537  0.00  0.00    +0.000 A 
ATOM     25  C   UNL     1      45.877   2.566   8.216  0.00  0.00    +0.000 A 
ENDBRANCH  16  17
ENDBRANCH   4  16
TORSDOF 6
ENDMDL
MODEL 2
REMARK VINA RESULT:    -6.562      1.264      2.137
REMARK INTER + INTRA:          -9.687
REMARK INTER:                  -8.853
REMARK INTRA:                  -0.834
REMARK UNBOUND:                -0.824
REMARK  Name = 
REMARK  8 active torsions:
REMARK  status: ('A' for Active; 'I' for Inactive)
REMARK    1  A    between atoms: C_1  and  N_2
REMARK    2  A    between atoms: N_2  and  C_3
REMARK    3  A    between atoms: N_2  and  C_4
REMARK    4  A    between atoms: C_4  and  C_5
REMARK    5  A    between atoms: C_5  and  N_6
REMARK    6  A    between atoms: C_7  and  C_9
REMARK    7  A    between atoms: C_12  and  C_13
REMARK    8  A    between atoms: C_13  and  N_14
REMARK                            x       y       z     vdW  Elec       q    Type
REMARK                         _______ _______ _______ _____ _____    ______ ____
ROOT
ATOM      1  C   UNL     1      47.211   6.052  13.241  0.00  0.00    +0.000 A 
ATOM      2  C   UNL     1      47.114   6.769  12.043  0.00  0.00    +0.000 A 
ATOM      3  C   UNL     1      46.196   6.375  11.062  0.00  0.00    +0.000 A 
ATOM      4  C   UNL     1      45.369   5.258  11.259  0.00  0.00    +0.000 A 
ATOM      5  C   UNL     1      45.458   4.557  12.470  0.00  0.00    +0.000 A 
ATOM      6  C   UNL     1      46.373   4.949  13.450  0.00  0.00    +0.000 A 
ENDROOT
BRANCH   1   8
ATOM      7  N   UNL     1      47.871   6.194  15.595  0.00  0.00    +0.000 N 
ATOM      8  C   UNL     1      48.234   6.363  14.277  0.00  0.00    +0.000 C 
ATOM      9  O   UNL     1      49.347   6.755  13.936  0.00  0.00    +0.000 OA
ATOM     10  H   UNL     1      47.065   5.634  15.841  0.00  0.00    +0.000 HD
BRANCH   7  11
ATOM     11  C   UNL     1      48.823   6.452  16.659  0.00  0.00    +0.000 C 
BRANCH  11  12
ATOM     12  C   UNL     1      49.002   5.233  17.581  0.00  0.00    +0.000 C 
BRANCH  12  14
ATOM     13  C   UNL     1      50.725   3.511  17.569  0.00  0.00    +0.000 C 
ATOM     14  N   UNL     1      49.517   4.019  16.908  0.00  0.00    +0.000 NA
ATOM     15  C   UNL     1      48.483   2.977  16.932  0.00  0.00    +0.000 C 
ENDBRANCH  12  14
ENDBRANCH  11  12
ENDBRANCH   7  11
ENDBRANCH   1   8
BRANCH   4  16
ATOM     16  C   UNL     1      44.417   4.799  10.183  0.00  0.00    +0.000 C 
BRANCH  16  17
ATOM     17  N   UNL     1      44.847   3.556   9.550  0.00  0.00    +0.000 N 
ATOM     18  C   UNL     1      44.322   2.318   9.845  0.00  0.00    +0.000 A 
ATOM     19  C   UNL     1      44.857   1.404   8.968  0.00  0.00    +0.000 A 
ATOM     20  C   UNL     1      45.738   2.102   8.099  0.00  0.00    +0.000 A 
ATOM     21  C   UNL     1      46.535   1.719   7.009  0.00  0.00    +0.000 A 
ATOM     22  N   UNL     1      47.290   2.632   6.350  0.00  0.00    +0.000 NA
ATOM     23  C   UNL     1      47.265   3.913   6.766  0.00  0.00    +0.000 A 
ATOM     24  C   UNL     1      46.513   4.393   7.829  0.00  0.00    +0.000 A 
ATOM     25  C   UNL     1      45.730   3.444   8.492  0.00  0.00    +0.000 A 
ENDBRANCH  16  17
ENDBRANCH   4  16
TORSDOF 6
ENDMDL
MODEL 3
REMARK VINA RESULT:    -6.159      2.134      3.645
REMARK INTER + INTRA:          -9.143
REMARK INTER:                  -8.474
REMARK INTRA:                  -0.669
REMARK UNBOUND:                -0.824
REMARK  Name = 
REMARK  8 active torsions:
REMARK  status: ('A' for Active; 'I' for Inactive)
REMARK    1  A    between atoms: C_1  and  N_2
REMARK    2  A    between atoms: N_2  and  C_3
REMARK    3  A    between atoms: N_2  and  C_4
REMARK    4  A    between atoms: C_4  and  C_5
REMARK    5  A    between atoms: C_5  and  N_6
REMARK    6  A    between atoms: C_7  and  C_9
REMARK    7  A    between atoms: C_12  and  C_13
REMARK    8  A    between atoms: C_13  and  N_14
REMARK                            x       y       z     vdW  Elec       q    Type
REMARK                         _______ _______ _______ _____ _____    ______ ____
ROOT
ATOM      1  C   UNL     1      47.794   7.530  13.757  0.00  0.00    +0.000 A 
ATOM      2  C   UNL     1      47.691   6.257  13.187  0.00  0.00    +0.000 A 
ATOM      3  C   UNL     1      46.563   5.918  12.430  0.00  0.00    +0.000 A 
ATOM      4  C   UNL     1      45.522   6.839  12.238  0.00  0.00    +0.000 A 
ATOM      5  C   UNL     1      45.643   8.120  12.797  0.00  0.00    +0.000 A 
ATOM      6  C   UNL     1      46.768   8.460  13.552  0.00  0.00    +0.000 A 
ENDROOT
BRANCH   1   8
ATOM      7  N   UNL     1      50.006   7.068  14.703  0.00  0.00    +0.000 N 
ATOM      8  C   UNL     1      48.921   7.915  14.652  0.00  0.00    +0.000 C 
ATOM      9  O   UNL     1      48.853   8.953  15.306  0.00  0.00    +0.000 OA
ATOM     10  H   UNL     1      50.156   6.376  13.980  0.00  0.00    +0.000 HD
BRANCH   7  11
ATOM     11  C   UNL     1      51.152   7.389  15.532  0.00  0.00    +0.000 C 
BRANCH  11  12
ATOM     12  C   UNL     1      51.104   6.667  16.890  0.00  0.00    +0.000 C 
BRANCH  12  14
ATOM     13  C   UNL     1      51.215   4.298  17.446  0.00  0.00    +0.000 C 
ATOM     14  N   UNL     1      50.390   5.369  16.874  0.00  0.00    +0.000 NA
ATOM     15  C   UNL     1      49.151   5.489  17.654  0.00  0.00    +0.000 C 
ENDBRANCH  12  14
ENDBRANCH  11  12
ENDBRANCH   7  11
ENDBRANCH   1   8
BRANCH   4  16
ATOM     16  C   UNL     1      44.282   6.459  11.468  0.00  0.00    +0.000 C 
BRANCH  16  17
ATOM     17  N   UNL     1      44.176   5.018  11.257  0.00  0.00    +0.000 N 
ATOM     18  C   UNL     1      43.449   4.171  12.062  0.00  0.00    +0.000 A 
ATOM     19  C   UNL     1      43.458   2.920  11.490  0.00  0.00    +0.000 A 
ATOM     20  C   UNL     1      44.212   2.999  10.289  0.00  0.00    +0.000 A 
ATOM     21  C   UNL     1      44.543   2.075   9.286  0.00  0.00    +0.000 A 
ATOM     22  N   UNL     1      45.296   2.448   8.222  0.00  0.00    +0.000 NA
ATOM     23  C   UNL     1      45.725   3.723   8.150  0.00  0.00    +0.000 A 
ATOM     24  C   UNL     1      45.455   4.712   9.086  0.00  0.00    +0.000 A 
ATOM     25  C   UNL     1      44.668   4.317  10.171  0.00  0.00    +0.000 A 
ENDBRANCH  16  17
ENDBRANCH   4  16
TORSDOF 6
ENDMDL
MODEL 4
REMARK VINA RESULT:    -6.051      3.882      7.721
REMARK INTER + INTRA:          -8.997
REMARK INTER:                  -8.350
REMARK INTRA:                  -0.647
REMARK UNBOUND:                -0.824
REMARK  Name = 
REMARK  8 active torsions:
REMARK  status: ('A' for Active; 'I' for Inactive)
REMARK    1  A    between atoms: C_1  and  N_2
REMARK    2  A    between atoms: N_2  and  C_3
REMARK    3  A    between atoms: N_2  and  C_4
REMARK    4  A    between atoms: C_4  and  C_5
REMARK    5  A    between atoms: C_5  and  N_6
REMARK    6  A    between atoms: C_7  and  C_9
REMARK    7  A    between atoms: C_12  and  C_13
REMARK    8  A    between atoms: C_13  and  N_14
REMARK                            x       y       z     vdW  Elec       q    Type
REMARK                         _______ _______ _______ _____ _____    ______ ____
ROOT
ATOM      1  C   UNL     1      44.897   5.043  11.564  0.00  0.00    +0.000 A 
ATOM      2  C   UNL     1      45.883   4.894  12.545  0.00  0.00    +0.000 A 
ATOM      3  C   UNL     1      46.420   6.023  13.176  0.00  0.00    +0.000 A 
ATOM      4  C   UNL     1      45.989   7.313  12.830  0.00  0.00    +0.000 A 
ATOM      5  C   UNL     1      44.988   7.452  11.859  0.00  0.00    +0.000 A 
ATOM      6  C   UNL     1      44.449   6.327  11.230  0.00  0.00    +0.000 A 
ENDROOT
BRANCH   1   8
ATOM      7  N   UNL     1      45.197   3.300   9.869  0.00  0.00    +0.000 N 
ATOM      8  C   UNL     1      44.360   3.889  10.791  0.00  0.00    +0.000 C 
ATOM      9  O   UNL     1      43.210   3.504  10.992  0.00  0.00    +0.000 OA
ATOM     10  H   UNL     1      46.196   3.455   9.905  0.00  0.00    +0.000 HD
BRANCH   7  11
ATOM     11  C   UNL     1      44.752   2.155   9.097  0.00  0.00    +0.000 C 
BRANCH  11  12
ATOM     12  C   UNL     1      45.908   1.493   8.328  0.00  0.00    +0.000 C 
BRANCH  12  14
ATOM     13  C   UNL     1      47.889   1.735   6.930  0.00  0.00    +0.000 C 
ATOM     14  N   UNL     1      46.826   2.441   7.655  0.00  0.00    +0.000 NA
ATOM     15  C   UNL     1      46.062   3.262   6.706  0.00  0.00    +0.000 C 
ENDBRANCH  12  14
ENDBRANCH  11  12
ENDBRANCH   7  11
ENDBRANCH   1   8
BRANCH   4  16
ATOM     16  C   UNL     1      46.605   8.533  13.469  0.00  0.00    +0.000 C 
BRANCH  16  17
ATOM     17  N   UNL     1      47.369   9.335  12.518  0.00  0.00    +0.000 N 
ATOM     18  C   UNL     1      46.932  10.527  11.986  0.00  0.00    +0.000 A 
ATOM     19  C   UNL     1      47.956  11.070  11.246  0.00  0.00    +0.000 A 
ATOM     20  C   UNL     1      49.065  10.186  11.329  0.00  0.00    +0.000 A 
ATOM     21  C   UNL     1      50.371  10.214  10.815  0.00  0.00    +0.000 A 
ATOM     22  N   UNL     1      51.236   9.202  11.071  0.00  0.00    +0.000 NA
ATOM     23  C   UNL     1      50.815   8.166  11.822  0.00  0.00    +0.000 A 
ATOM     24  C   UNL     1      49.548   8.042  12.375  0.00  0.00    +0.000 A 
ATOM     25  C   UNL     1      48.671   9.098  12.115  0.00  0.00    +0.000 A 
ENDBRANCH  16  17
ENDBRANCH   4  16
TORSDOF 6
ENDMDL
MODEL 5
REMARK VINA RESULT:    -5.993      3.692      4.879
REMARK INTER + INTRA:          -8.918
REMARK INTER:                  -8.073
REMARK INTRA:                  -0.846
REMARK UNBOUND:                -0.824
REMARK  Name = 
REMARK  8 active torsions:
REMARK  status: ('A' for Active; 'I' for Inactive)
REMARK    1  A    between atoms: C_1  and  N_2
REMARK    2  A    between atoms: N_2  and  C_3
REMARK    3  A    between atoms: N_2  and  C_4
REMARK    4  A    between atoms: C_4  and  C_5
REMARK    5  A    between atoms: C_5  and  N_6
REMARK    6  A    between atoms: C_7  and  C_9
REMARK    7  A    between atoms: C_12  and  C_13
REMARK    8  A    between atoms: C_13  and  N_14
REMARK                            x       y       z     vdW  Elec       q    Type
REMARK                         _______ _______ _______ _____ _____    ______ ____
ROOT
ATOM      1  C   UNL     1      47.988   7.104  13.618  0.00  0.00    +0.000 A 
ATOM      2  C   UNL     1      47.194   8.037  12.942  0.00  0.00    +0.000 A 
ATOM      3  C   UNL     1      45.914   7.680  12.503  0.00  0.00    +0.000 A 
ATOM      4  C   UNL     1      45.412   6.388  12.724  0.00  0.00    +0.000 A 
ATOM      5  C   UNL     1      46.206   5.465  13.419  0.00  0.00    +0.000 A 
ATOM      6  C   UNL     1      47.484   5.820  13.859  0.00  0.00    +0.000 A 
ENDROOT
BRANCH   1   8
ATOM      7  N   UNL     1      50.056   8.385  13.334  0.00  0.00    +0.000 N 
ATOM      8  C   UNL     1      49.391   7.394  14.022  0.00  0.00    +0.000 C 
ATOM      9  O   UNL     1      49.907   6.755  14.936  0.00  0.00    +0.000 OA
ATOM     10  H   UNL     1      49.545   9.061  12.781  0.00  0.00    +0.000 HD
BRANCH   7  11
ATOM     11  C   UNL     1      51.417   8.742  13.689  0.00  0.00    +0.000 C 
BRANCH  11  12
ATOM     12  C   UNL     1      52.386   8.567  12.506  0.00  0.00    +0.000 C 
BRANCH  12  14
ATOM     13  C   UNL     1      52.079   9.866  10.469  0.00  0.00    +0.000 C 
ATOM     14  N   UNL     1      51.747   8.621  11.171  0.00  0.00    +0.000 NA
ATOM     15  C   UNL     1      52.208   7.480  10.369  0.00  0.00    +0.000 C 
ENDBRANCH  12  14
ENDBRANCH  11  12
ENDBRANCH   7  11
ENDBRANCH   1   8
BRANCH   4  16
ATOM     16  C   UNL     1      44.054   5.985  12.204  0.00  0.00    +0.000 C 
BRANCH  16  17
ATOM     17  N   UNL     1      44.035   4.615  11.697  0.00  0.00    +0.000 N 
ATOM     18  C   UNL     1      43.367   3.576  12.305  0.00  0.00    +0.000 A 
ATOM     19  C   UNL     1      43.448   2.475  11.486  0.00  0.00    +0.000 A 
ATOM     20  C   UNL     1      44.187   2.848  10.331  0.00  0.00    +0.000 A 
ATOM     21  C   UNL     1      44.565   2.174   9.160  0.00  0.00    +0.000 A 
ATOM     22  N   UNL     1      45.285   2.806   8.200  0.00  0.00    +0.000 NA
ATOM     23  C   UNL     1      45.635   4.092   8.397  0.00  0.00    +0.000 A 
ATOM     24  C   UNL     1      45.312   4.847   9.517  0.00  0.00    +0.000 A 
ATOM     25  C   UNL     1      44.560   4.187  10.492  0.00  0.00    +0.000 A 
ENDBRANCH  16  17
ENDBRANCH   4  16
TORSDOF 6
ENDMDL
MODEL 6
REMARK VINA RESULT:    -5.978      2.650      8.688
REMARK INTER + INTRA:          -8.899
REMARK INTER:                  -8.158
REMARK INTRA:                  -0.741
REMARK UNBOUND:                -0.824
REMARK  Name = 
REMARK  8 active torsions:
REMARK  status: ('A' for Active; 'I' for Inactive)
REMARK    1  A    between atoms: C_1  and  N_2
REMARK    2  A    between atoms: N_2  and  C_3
REMARK    3  A    between atoms: N_2  and  C_4
REMARK    4  A    between atoms: C_4  and  C_5
REMARK    5  A    between atoms: C_5  and  N_6
REMARK    6  A    between atoms: C_7  and  C_9
REMARK    7  A    between atoms: C_12  and  C_13
REMARK    8  A    between atoms: C_13  and  N_14
REMARK                            x       y       z     vdW  Elec       q    Type
REMARK                         _______ _______ _______ _____ _____    ______ ____
ROOT
ATOM      1  C   UNL     1      47.389   5.725  13.891  0.00  0.00    +0.000 A 
ATOM      2  C   UNL     1      48.285   6.608  14.503  0.00  0.00    +0.000 A 
ATOM      3  C   UNL     1      48.729   6.363  15.808  0.00  0.00    +0.000 A 
ATOM      4  C   UNL     1      48.279   5.241  16.521  0.00  0.00    +0.000 A 
ATOM      5  C   UNL     1      47.395   4.351  15.893  0.00  0.00    +0.000 A 
ATOM      6  C   UNL     1      46.953   4.593  14.590  0.00  0.00    +0.000 A 
ENDROOT
BRANCH   1   8
ATOM      7  N   UNL     1      45.854   5.103  12.086  0.00  0.00    +0.000 N 
ATOM      8  C   UNL     1      46.807   5.985  12.545  0.00  0.00    +0.000 C 
ATOM      9  O   UNL     1      47.186   6.957  11.894  0.00  0.00    +0.000 OA
ATOM     10  H   UNL     1      45.377   4.480  12.725  0.00  0.00    +0.000 HD
BRANCH   7  11
ATOM     11  C   UNL     1      45.224   5.305  10.795  0.00  0.00    +0.000 C 
BRANCH  11  12
ATOM     12  C   UNL     1      43.729   4.940  10.819  0.00  0.00    +0.000 C 
BRANCH  12  14
ATOM     13  C   UNL     1      44.477   2.929   9.665  0.00  0.00    +0.000 C 
ATOM     14  N   UNL     1      43.435   3.521  10.512  0.00  0.00    +0.000 NA
ATOM     15  C   UNL     1      43.349   2.763  11.767  0.00  0.00    +0.000 C 
ENDBRANCH  12  14
ENDBRANCH  11  12
ENDBRANCH   7  11
ENDBRANCH   1   8
BRANCH   4  16
ATOM     16  C   UNL     1      48.713   5.003  17.947  0.00  0.00    +0.000 C 
BRANCH  16  17
ATOM     17  N   UNL     1      50.143   4.731  18.057  0.00  0.00    +0.000 N 
ATOM     18  C   UNL     1      51.064   5.630  18.544  0.00  0.00    +0.000 A 
ATOM     19  C   UNL     1      52.280   4.994  18.635  0.00  0.00    +0.000 A 
ATOM     20  C   UNL     1      52.102   3.655  18.194  0.00  0.00    +0.000 A 
ATOM     21  C   UNL     1      52.954   2.545  18.086  0.00  0.00    +0.000 A 
ATOM     22  N   UNL     1      52.489   1.359  17.623  0.00  0.00    +0.000 NA
ATOM     23  C   UNL     1      51.195   1.269  17.261  0.00  0.00    +0.000 A 
ATOM     24  C   UNL     1      50.272   2.303  17.329  0.00  0.00    +0.000 A 
ATOM     25  C   UNL     1      50.761   3.517  17.820  0.00  0.00    +0.000 A 
ENDBRANCH  16  17
ENDBRANCH   4  16
TORSDOF 6
ENDMDL
MODEL 7
REMARK VINA RESULT:    -5.777      2.725      8.861
REMARK INTER + INTRA:          -8.626
REMARK INTER:                  -7.764
REMARK INTRA:                  -0.862
REMARK UNBOUND:                -0.824
REMARK  Name = 
REMARK  8 active torsions:
REMARK  status: ('A' for Active; 'I' for Inactive)
REMARK    1  A    between atoms: C_1  and  N_2
REMARK    2  A    between atoms: N_2  and  C_3
REMARK    3  A    between atoms: N_2  and  C_4
REMARK    4  A    between atoms: C_4  and  C_5
REMARK    5  A    between atoms: C_5  and  N_6
REMARK    6  A    between atoms: C_7  and  C_9
REMARK    7  A    between atoms: C_12  and  C_13
REMARK    8  A    between atoms: C_13  and  N_14
REMARK                            x       y       z     vdW  Elec       q    Type
REMARK                         _______ _______ _______ _____ _____    ______ ____
ROOT
ATOM      1  C   UNL     1      45.994   5.521  12.164  0.00  0.00    +0.000 A 
ATOM      2  C   UNL     1      46.455   4.924  13.342  0.00  0.00    +0.000 A 
ATOM      3  C   UNL     1      47.514   5.502  14.052  0.00  0.00    +0.000 A 
ATOM      4  C   UNL     1      48.132   6.675  13.593  0.00  0.00    +0.000 A 
ATOM      5  C   UNL     1      47.651   7.278  12.421  0.00  0.00    +0.000 A 
ATOM      6  C   UNL     1      46.593   6.704  11.712  0.00  0.00    +0.000 A 
ENDROOT
BRANCH   1   8
ATOM      7  N   UNL     1      45.138   3.602  10.905  0.00  0.00    +0.000 N 
ATOM      8  C   UNL     1      44.938   4.902  11.315  0.00  0.00    +0.000 C 
ATOM      9  O   UNL     1      43.941   5.553  11.011  0.00  0.00    +0.000 OA
ATOM     10  H   UNL     1      45.815   3.012  11.370  0.00  0.00    +0.000 HD
BRANCH   7  11
ATOM     11  C   UNL     1      44.141   2.924  10.098  0.00  0.00    +0.000 C 
BRANCH  11  12
ATOM     12  C   UNL     1      44.541   2.868   8.613  0.00  0.00    +0.000 C 
BRANCH  12  14
ATOM     13  C   UNL     1      46.337   1.330   8.027  0.00  0.00    +0.000 C 
ATOM     14  N   UNL     1      45.994   2.715   8.370  0.00  0.00    +0.000 NA
ATOM     15  C   UNL     1      46.394   3.596   7.265  0.00  0.00    +0.000 C 
ENDBRANCH  12  14
ENDBRANCH  11  12
ENDBRANCH   7  11
ENDBRANCH   1   8
BRANCH   4  16
ATOM     16  C   UNL     1      49.309   7.269  14.327  0.00  0.00    +0.000 C 
BRANCH  16  17
ATOM     17  N   UNL     1      48.921   7.907  15.581  0.00  0.00    +0.000 N 
ATOM     18  C   UNL     1      48.406   9.181  15.673  0.00  0.00    +0.000 A 
ATOM     19  C   UNL     1      48.025   9.398  16.976  0.00  0.00    +0.000 A 
ATOM     20  C   UNL     1      48.310   8.217  17.713  0.00  0.00    +0.000 A 
ATOM     21  C   UNL     1      48.123   7.837  19.051  0.00  0.00    +0.000 A 
ATOM     22  N   UNL     1      48.499   6.607  19.479  0.00  0.00    +0.000 NA
ATOM     23  C   UNL     1      49.061   5.759  18.596  0.00  0.00    +0.000 A 
ATOM     24  C   UNL     1      49.290   6.036  17.256  0.00  0.00    +0.000 A 
ATOM     25  C   UNL     1      48.886   7.303  16.824  0.00  0.00    +0.000 A 
ENDBRANCH  16  17
ENDBRANCH   4  16
TORSDOF 6
ENDMDL
MODEL 8
REMARK VINA RESULT:    -5.725      3.095      4.384
REMARK INTER + INTRA:          -8.556
REMARK INTER:                  -7.865
REMARK INTRA:                  -0.691
REMARK UNBOUND:                -0.824
REMARK  Name = 
REMARK  8 active torsions:
REMARK  status: ('A' for Active; 'I' for Inactive)
REMARK    1  A    between atoms: C_1  and  N_2
REMARK    2  A    between atoms: N_2  and  C_3
REMARK    3  A    between atoms: N_2  and  C_4
REMARK    4  A    between atoms: C_4  and  C_5
REMARK    5  A    between atoms: C_5  and  N_6
REMARK    6  A    between atoms: C_7  and  C_9
REMARK    7  A    between atoms: C_12  and  C_13
REMARK    8  A    between atoms: C_13  and  N_14
REMARK                            x       y       z     vdW  Elec       q    Type
REMARK                         _______ _______ _______ _____ _____    ______ ____
ROOT
ATOM      1  C   UNL     1      47.799   7.256  13.970  0.00  0.00    +0.000 A 
ATOM      2  C   UNL     1      47.568   5.949  13.528  0.00  0.00    +0.000 A 
ATOM      3  C   UNL     1      46.455   5.666  12.727  0.00  0.00    +0.000 A 
ATOM      4  C   UNL     1      45.555   6.680  12.363  0.00  0.00    +0.000 A 
ATOM      5  C   UNL     1      45.805   7.991  12.795  0.00  0.00    +0.000 A 
ATOM      6  C   UNL     1      46.915   8.275  13.593  0.00  0.00    +0.000 A 
ENDROOT
BRANCH   1   8
ATOM      7  N   UNL     1      48.588   7.773  16.230  0.00  0.00    +0.000 N 
ATOM      8  C   UNL     1      48.909   7.599  14.902  0.00  0.00    +0.000 C 
ATOM      9  O   UNL     1      50.053   7.715  14.471  0.00  0.00    +0.000 OA
ATOM     10  H   UNL     1      47.714   7.422  16.601  0.00  0.00    +0.000 HD
BRANCH   7  11
ATOM     11  C   UNL     1      49.620   8.083  17.202  0.00  0.00    +0.000 C 
BRANCH  11  12
ATOM     12  C   UNL     1      49.377   9.438  17.889  0.00  0.00    +0.000 C 
BRANCH  12  14
ATOM     13  C   UNL     1      47.584  11.067  18.147  0.00  0.00    +0.000 C 
ATOM     14  N   UNL     1      48.412  10.320  17.193  0.00  0.00    +0.000 NA
ATOM     15  C   UNL     1      49.148  11.271  16.350  0.00  0.00    +0.000 C 
ENDBRANCH  12  14
ENDBRANCH  11  12
ENDBRANCH   7  11
ENDBRANCH   1   8
BRANCH   4  16
ATOM     16  C   UNL     1      44.326   6.368  11.546  0.00  0.00    +0.000 C 
BRANCH  16  17
ATOM     17  N   UNL     1      44.202   4.945  11.245  0.00  0.00    +0.000 N 
ATOM     18  C   UNL     1      43.440   4.064  11.979  0.00  0.00    +0.000 A 
ATOM     19  C   UNL     1      43.443   2.850  11.332  0.00  0.00    +0.000 A 
ATOM     20  C   UNL     1      44.229   2.988  10.156  0.00  0.00    +0.000 A 
ATOM     21  C   UNL     1      44.569   2.121   9.108  0.00  0.00    +0.000 A 
ATOM     22  N   UNL     1      45.355   2.544   8.087  0.00  0.00    +0.000 NA
ATOM     23  C   UNL     1      45.807   3.813   8.103  0.00  0.00    +0.000 A 
ATOM     24  C   UNL     1      45.530   4.748   9.091  0.00  0.00    +0.000 A 
ATOM     25  C   UNL     1      44.709   4.302  10.130  0.00  0.00    +0.000 A 
ENDBRANCH  16  17
ENDBRANCH   4  16
TORSDOF 6
ENDMDL
MODEL 9
REMARK VINA RESULT:    -5.626      3.327      4.390
REMARK INTER + INTRA:          -8.423
REMARK INTER:                  -7.784
REMARK INTRA:                  -0.639
REMARK UNBOUND:                -0.824
REMARK  Name = 
REMARK  8 active torsions:
REMARK  status: ('A' for Active; 'I' for Inactive)
REMARK    1  A    between atoms: C_1  and  N_2
REMARK    2  A    between atoms: N_2  and  C_3
REMARK    3  A    between atoms: N_2  and  C_4
REMARK    4  A    between atoms: C_4  and  C_5
REMARK    5  A    between atoms: C_5  and  N_6
REMARK    6  A    between atoms: C_7  and  C_9
REMARK    7  A    between atoms: C_12  and  C_13
REMARK    8  A    between atoms: C_13  and  N_14
REMARK                            x       y       z     vdW  Elec       q    Type
REMARK                         _______ _______ _______ _____ _____    ______ ____
ROOT
ATOM      1  C   UNL     1      47.807   7.843  13.500  0.00  0.00    +0.000 A 
ATOM      2  C   UNL     1      46.645   8.621  13.469  0.00  0.00    +0.000 A 
ATOM      3  C   UNL     1      45.525   8.181  12.754  0.00  0.00    +0.000 A 
ATOM      4  C   UNL     1      45.551   6.964  12.054  0.00  0.00    +0.000 A 
ATOM      5  C   UNL     1      46.713   6.181  12.106  0.00  0.00    +0.000 A 
ATOM      6  C   UNL     1      47.832   6.618  12.821  0.00  0.00    +0.000 A 
ENDROOT
BRANCH   1   8
ATOM      7  N   UNL     1      50.157   7.475  14.084  0.00  0.00    +0.000 N 
ATOM      8  C   UNL     1      49.059   8.303  14.161  0.00  0.00    +0.000 C 
ATOM      9  O   UNL     1      49.078   9.385  14.744  0.00  0.00    +0.000 OA
ATOM     10  H   UNL     1      50.199   6.735  13.395  0.00  0.00    +0.000 HD
BRANCH   7  11
ATOM     11  C   UNL     1      51.419   7.868  14.682  0.00  0.00    +0.000 C 
BRANCH  11  12
ATOM     12  C   UNL     1      52.368   8.512  13.655  0.00  0.00    +0.000 C 
BRANCH  12  14
ATOM     13  C   UNL     1      54.001   7.258  14.956  0.00  0.00    +0.000 C 
ATOM     14  N   UNL     1      53.806   8.251  13.893  0.00  0.00    +0.000 NA
ATOM     15  C   UNL     1      54.419   7.754  12.655  0.00  0.00    +0.000 C 
ENDBRANCH  12  14
ENDBRANCH  11  12
ENDBRANCH   7  11
ENDBRANCH   1   8
BRANCH   4  16
ATOM     16  C   UNL     1      44.365   6.514  11.238  0.00  0.00    +0.000 C 
BRANCH  16  17
ATOM     17  N   UNL     1      44.316   5.063  11.080  0.00  0.00    +0.000 N 
ATOM     18  C   UNL     1      43.642   4.216  11.931  0.00  0.00    +0.000 A 
ATOM     19  C   UNL     1      43.691   2.947  11.402  0.00  0.00    +0.000 A 
ATOM     20  C   UNL     1      44.416   3.014  10.182  0.00  0.00    +0.000 A 
ATOM     21  C   UNL     1      44.763   2.069   9.204  0.00  0.00    +0.000 A 
ATOM     22  N   UNL     1      45.476   2.436   8.111  0.00  0.00    +0.000 NA
ATOM     23  C   UNL     1      45.850   3.724   7.985  0.00  0.00    +0.000 A 
ATOM     24  C   UNL     1      45.558   4.733   8.892  0.00  0.00    +0.000 A 
ATOM     25  C   UNL     1      44.812   4.345  10.008  0.00  0.00    +0.000 A 
ENDBRANCH  16  17
ENDBRANCH   4  16
TORSDOF 6
ENDMDL
