MODEL 1
REMARK VINA RESULT:    -8.173      0.000      0.000
REMARK INTER + INTRA:         -11.920
REMARK INTER:                 -11.040
REMARK INTRA:                  -0.881
REMARK UNBOUND:                -0.881
REMARK  Name = 
REMARK  7 active torsions:
REMARK  status: ('A' for Active; 'I' for Inactive)
REMARK    1  A    between atoms: C_1  and  C_2
REMARK    2  A    between atoms: C_2  and  C_3
REMARK    3  A    between atoms: C_2  and  C_15
REMARK    4  A    between atoms: C_3  and  N_4
REMARK    5  A    between atoms: N_4  and  C_5
REMARK    6  A    between atoms: C_8  and  C_9
REMARK    7  A    between atoms: C_19  and  C_20
REMARK                            x       y       z     vdW  Elec       q    Type
REMARK                         _______ _______ _______ _____ _____    ______ ____
ROOT
ATOM      1  N   UNL     1      43.801   4.928  10.050  0.00  0.00    +0.000 N 
ATOM      2  H   UNL     1      42.948   5.291   9.647  0.00  0.00    +0.000 HD
ENDROOT
BRANCH   1   3
ATOM      3  C   UNL     1      44.587   4.055   9.298  0.00  0.00    +0.000 A 
ATOM      4  C   UNL     1      45.494   4.589   8.373  0.00  0.00    +0.000 A 
ATOM      5  C   UNL     1      46.384   3.768   7.658  0.00  0.00    +0.000 A 
ATOM      6  C   UNL     1      46.386   2.383   7.859  0.00  0.00    +0.000 A 
ATOM      7  C   UNL     1      45.488   1.834   8.772  0.00  0.00    +0.000 A 
ATOM      8  C   UNL     1      44.615   2.658   9.475  0.00  0.00    +0.000 A 
ATOM      9  F   UNL     1      43.788   2.056  10.344  0.00  0.00    +0.000 F 
BRANCH   6  10
ATOM     10  C   UNL     1      47.307   1.440   7.156  0.00  0.00    +0.000 C 
ATOM     11  N   UNL     1      48.379   1.952   6.480  0.00  0.00    +0.000 N 
ATOM     12  O   UNL     1      47.123   0.233   7.180  0.00  0.00    +0.000 OA
ATOM     13  H   UNL     1      48.622   2.925   6.410  0.00  0.00    +0.000 HD
ATOM     14  H   UNL     1      48.983   1.279   6.023  0.00  0.00    +0.000 HD
ENDBRANCH   6  10
ENDBRANCH   1   3
BRANCH   1  15
ATOM     15  C   UNL     1      43.982   5.011  11.485  0.00  0.00    +0.000 C 
BRANCH  15  17
ATOM     16  C   UNL     1      45.984   4.114  12.864  0.00  0.00    +0.000 C 
ATOM     17  C   UNL     1      45.434   5.082  11.863  0.00  0.00    +0.000 C 
BRANCH  17  18
ATOM     18  C   UNL     1      45.994   6.445  11.935  0.00  0.00    +0.000 A 
ATOM     19  C   UNL     1      47.378   6.645  12.052  0.00  0.00    +0.000 A 
ATOM     20  C   UNL     1      47.907   7.928  12.174  0.00  0.00    +0.000 A 
ATOM     21  C   UNL     1      47.054   9.029  12.172  0.00  0.00    +0.000 A 
ATOM     22  C   UNL     1      45.672   8.845  12.032  0.00  0.00    +0.000 A 
ATOM     23  C   UNL     1      45.144   7.551  11.911  0.00  0.00    +0.000 A 
BRANCH  22  24
ATOM     24  C   UNL     1      44.798   9.974  12.022  0.00  0.00    +0.000 C 
ATOM     25  N   UNL     1      44.084  10.891  12.012  0.00  0.00    +0.000 NA
ENDBRANCH  22  24
ENDBRANCH  17  18
ENDBRANCH  15  17
ENDBRANCH   1  15
TORSDOF 6
ENDMDL
MODEL 2
REMARK VINA RESULT:    -8.086      1.477      2.029
REMARK INTER + INTRA:         -11.803
REMARK INTER:                 -10.859
REMARK INTRA:                  -0.944
REMARK UNBOUND:                -0.881
REMARK  Name = 
REMARK  7 active torsions:
REMARK  status: ('A' for Active; 'I' for Inactive)
REMARK    1  A    between atoms: C_1  and  C_2
REMARK    2  A    between atoms: C_2  and  C_3
REMARK    3  A    between atoms: C_2  and  C_15
REMARK    4  A    between atoms: C_3  and  N_4
REMARK    5  A    between atoms: N_4  and  C_5
REMARK    6  A    between atoms: C_8  and  C_9
REMARK    7  A    between atoms: C_19  and  C_20
REMARK                            x       y       z     vdW  Elec       q    Type
REMARK                         _______ _______ _______ _____ _____    ______ ____
ROOT
ATOM      1  N   UNL     1      43.793   4.876  10.045  0.00  0.00    +0.000 N 
ATOM      2  H   UNL     1      42.964   5.278   9.631  0.00  0.00    +0.000 HD
ENDROOT
BRANCH   1   3
ATOM      3  C   UNL     1      44.592   4.030   9.276  0.00  0.00    +0.000 A 
ATOM      4  C   UNL     1      45.508   4.597   8.378  0.00  0.00    +0.000 A 
ATOM      5  C   UNL     1      46.410   3.803   7.649  0.00  0.00    +0.000 A 
ATOM      6  C   UNL     1      46.417   2.413   7.806  0.00  0.00    +0.000 A 
ATOM      7  C   UNL     1      45.511   1.831   8.690  0.00  0.00    +0.000 A 
ATOM      8  C   UNL     1      44.625   2.628   9.409  0.00  0.00    +0.000 A 
ATOM      9  F   UNL     1      43.791   1.996  10.249  0.00  0.00    +0.000 F 
BRANCH   6  10
ATOM     10  C   UNL     1      47.351   1.496   7.085  0.00  0.00    +0.000 C 
ATOM     11  N   UNL     1      48.474   2.023   6.513  0.00  0.00    +0.000 N 
ATOM     12  O   UNL     1      47.131   0.298   7.004  0.00  0.00    +0.000 OA
ATOM     13  H   UNL     1      48.748   2.990   6.533  0.00  0.00    +0.000 HD
ATOM     14  H   UNL     1      49.085   1.368   6.039  0.00  0.00    +0.000 HD
ENDBRANCH   6  10
ENDBRANCH   1   3
BRANCH   1  15
ATOM     15  C   UNL     1      43.919   4.875  11.489  0.00  0.00    +0.000 C 
BRANCH  15  17
ATOM     16  C   UNL     1      45.875   3.901  12.881  0.00  0.00    +0.000 C 
ATOM     17  C   UNL     1      45.355   4.930  11.925  0.00  0.00    +0.000 C 
BRANCH  17  18
ATOM     18  C   UNL     1      45.899   6.289  12.109  0.00  0.00    +0.000 A 
ATOM     19  C   UNL     1      45.070   7.340  12.528  0.00  0.00    +0.000 A 
ATOM     20  C   UNL     1      45.568   8.636  12.653  0.00  0.00    +0.000 A 
ATOM     21  C   UNL     1      46.907   8.892  12.365  0.00  0.00    +0.000 A 
ATOM     22  C   UNL     1      47.750   7.845  11.970  0.00  0.00    +0.000 A 
ATOM     23  C   UNL     1      47.245   6.543  11.845  0.00  0.00    +0.000 A 
BRANCH  22  24
ATOM     24  C   UNL     1      49.125   8.106  11.683  0.00  0.00    +0.000 C 
ATOM     25  N   UNL     1      50.243   8.315  11.448  0.00  0.00    +0.000 NA
ENDBRANCH  22  24
ENDBRANCH  17  18
ENDBRANCH  15  17
ENDBRANCH   1  15
TORSDOF 6
ENDMDL
MODEL 3
REMARK VINA RESULT:    -8.033      2.258      3.338
REMARK INTER + INTRA:         -11.731
REMARK INTER:                 -10.898
REMARK INTRA:                  -0.833
REMARK UNBOUND:                -0.881
REMARK  Name = 
REMARK  7 active torsions:
REMARK  status: ('A' for Active; 'I' for Inactive)
REMARK    1  A    between atoms: C_1  and  C_2
REMARK    2  A    between atoms: C_2  and  C_3
REMARK    3  A    between atoms: C_2  and  C_15
REMARK    4  A    between atoms: C_3  and  N_4
REMARK    5  A    between atoms: N_4  and  C_5
REMARK    6  A    between atoms: C_8  and  C_9
REMARK    7  A    between atoms: C_19  and  C_20
REMARK                            x       y       z     vdW  Elec       q    Type
REMARK                         _______ _______ _______ _____ _____    ______ ____
ROOT
ATOM      1  N   UNL     1      43.806   5.015   9.863  0.00  0.00    +0.000 N 
ATOM      2  H   UNL     1      42.796   5.006   9.800  0.00  0.00    +0.000 HD
ENDROOT
BRANCH   1   3
ATOM      3  C   UNL     1      44.533   4.012   9.223  0.00  0.00    +0.000 A 
ATOM      4  C   UNL     1      45.435   4.371   8.211  0.00  0.00    +0.000 A 
ATOM      5  C   UNL     1      46.270   3.420   7.599  0.00  0.00    +0.000 A 
ATOM      6  C   UNL     1      46.220   2.078   7.990  0.00  0.00    +0.000 A 
ATOM      7  C   UNL     1      45.327   1.701   8.991  0.00  0.00    +0.000 A 
ATOM      8  C   UNL     1      44.508   2.653   9.592  0.00  0.00    +0.000 A 
ATOM      9  F   UNL     1      43.682   2.215  10.555  0.00  0.00    +0.000 F 
BRANCH   6  10
ATOM     10  C   UNL     1      47.081   1.006   7.406  0.00  0.00    +0.000 C 
ATOM     11  N   UNL     1      46.757  -0.299   7.646  0.00  0.00    +0.000 N 
ATOM     12  O   UNL     1      48.056   1.275   6.721  0.00  0.00    +0.000 OA
ATOM     13  H   UNL     1      45.973  -0.622   8.186  0.00  0.00    +0.000 HD
ATOM     14  H   UNL     1      47.362  -0.995   7.227  0.00  0.00    +0.000 HD
ENDBRANCH   6  10
ENDBRANCH   1   3
BRANCH   1  15
ATOM     15  C   UNL     1      44.430   5.813  10.898  0.00  0.00    +0.000 C 
BRANCH  15  17
ATOM     16  C   UNL     1      43.182   4.889  12.973  0.00  0.00    +0.000 C 
ATOM     17  C   UNL     1      44.458   5.095  12.218  0.00  0.00    +0.000 C 
BRANCH  17  18
ATOM     18  C   UNL     1      45.643   5.371  13.052  0.00  0.00    +0.000 A 
ATOM     19  C   UNL     1      46.454   6.486  12.795  0.00  0.00    +0.000 A 
ATOM     20  C   UNL     1      47.603   6.722  13.547  0.00  0.00    +0.000 A 
ATOM     21  C   UNL     1      47.949   5.845  14.573  0.00  0.00    +0.000 A 
ATOM     22  C   UNL     1      47.134   4.741  14.855  0.00  0.00    +0.000 A 
ATOM     23  C   UNL     1      45.979   4.507  14.095  0.00  0.00    +0.000 A 
BRANCH  22  24
ATOM     24  C   UNL     1      47.484   3.846  15.911  0.00  0.00    +0.000 C 
ATOM     25  N   UNL     1      47.769   3.121  16.773  0.00  0.00    +0.000 NA
ENDBRANCH  22  24
ENDBRANCH  17  18
ENDBRANCH  15  17
ENDBRANCH   1  15
TORSDOF 6
ENDMDL
MODEL 4
REMARK VINA RESULT:    -8.007      2.053      2.526
REMARK INTER + INTRA:         -11.696
REMARK INTER:                 -10.709
REMARK INTRA:                  -0.988
REMARK UNBOUND:                -0.881
REMARK  Name = 
REMARK  7 active torsions:
REMARK  status: ('A' for Active; 'I' for Inactive)
REMARK    1  A    between atoms: C_1  and  C_2
REMARK    2  A    between atoms: C_2  and  C_3
REMARK    3  A    between atoms: C_2  and  C_15
REMARK    4  A    between atoms: C_3  and  N_4
REMARK    5  A    between atoms: N_4  and  C_5
REMARK    6  A    between atoms: C_8  and  C_9
REMARK    7  A    between atoms: C_19  and  C_20
REMARK                            x       y       z     vdW  Elec       q    Type
REMARK                         _______ _______ _______ _____ _____    ______ ____
ROOT
ATOM      1  N   UNL     1      43.849   4.912  10.066  0.00  0.00    +0.000 N 
ATOM      2  H   UNL     1      42.872   4.691  10.209  0.00  0.00    +0.000 HD
ENDROOT
BRANCH   1   3
ATOM      3  C   UNL     1      44.632   4.052   9.297  0.00  0.00    +0.000 A 
ATOM      4  C   UNL     1      45.528   4.601   8.369  0.00  0.00    +0.000 A 
ATOM      5  C   UNL     1      46.415   3.792   7.637  0.00  0.00    +0.000 A 
ATOM      6  C   UNL     1      46.426   2.405   7.821  0.00  0.00    +0.000 A 
ATOM      7  C   UNL     1      45.540   1.841   8.737  0.00  0.00    +0.000 A 
ATOM      8  C   UNL     1      44.669   2.653   9.458  0.00  0.00    +0.000 A 
ATOM      9  F   UNL     1      43.853   2.037  10.328  0.00  0.00    +0.000 F 
BRANCH   6  10
ATOM     10  C   UNL     1      47.345   1.475   7.100  0.00  0.00    +0.000 C 
ATOM     11  N   UNL     1      48.487   1.980   6.546  0.00  0.00    +0.000 N 
ATOM     12  O   UNL     1      47.097   0.283   7.002  0.00  0.00    +0.000 OA
ATOM     13  H   UNL     1      48.784   2.940   6.580  0.00  0.00    +0.000 HD
ATOM     14  H   UNL     1      49.086   1.315   6.071  0.00  0.00    +0.000 HD
ENDBRANCH   6  10
ENDBRANCH   1   3
BRANCH   1  15
ATOM     15  C   UNL     1      44.481   5.871  10.949  0.00  0.00    +0.000 C 
BRANCH  15  17
ATOM     16  C   UNL     1      44.763   4.363  13.037  0.00  0.00    +0.000 C 
ATOM     17  C   UNL     1      45.372   5.202  11.956  0.00  0.00    +0.000 C 
BRANCH  17  18
ATOM     18  C   UNL     1      46.553   5.987  12.363  0.00  0.00    +0.000 A 
ATOM     19  C   UNL     1      47.207   6.822  11.444  0.00  0.00    +0.000 A 
ATOM     20  C   UNL     1      48.354   7.525  11.808  0.00  0.00    +0.000 A 
ATOM     21  C   UNL     1      48.856   7.404  13.102  0.00  0.00    +0.000 A 
ATOM     22  C   UNL     1      48.198   6.592  14.035  0.00  0.00    +0.000 A 
ATOM     23  C   UNL     1      47.045   5.886  13.664  0.00  0.00    +0.000 A 
BRANCH  22  24
ATOM     24  C   UNL     1      48.708   6.474  15.364  0.00  0.00    +0.000 C 
ATOM     25  N   UNL     1      49.125   6.375  16.444  0.00  0.00    +0.000 NA
ENDBRANCH  22  24
ENDBRANCH  17  18
ENDBRANCH  15  17
ENDBRANCH   1  15
TORSDOF 6
ENDMDL
MODEL 5
REMARK VINA RESULT:    -7.814      1.594      1.864
REMARK INTER + INTRA:         -11.436
REMARK INTER:                 -10.476
REMARK INTRA:                  -0.960
REMARK UNBOUND:                -0.881
REMARK  Name = 
REMARK  7 active torsions:
REMARK  status: ('A' for Active; 'I' for Inactive)
REMARK    1  A    between atoms: C_1  and  C_2
REMARK    2  A    between atoms: C_2  and  C_3
REMARK    3  A    between atoms: C_2  and  C_15
REMARK    4  A    between atoms: C_3  and  N_4
REMARK    5  A    between atoms: N_4  and  C_5
REMARK    6  A    between atoms: C_8  and  C_9
REMARK    7  A    between atoms: C_19  and  C_20
REMARK                            x       y       z     vdW  Elec       q    Type
REMARK                         _______ _______ _______ _____ _____    ______ ____
ROOT
ATOM      1  N   UNL     1      43.965   5.020  10.032  0.00  0.00    +0.000 N 
ATOM      2  H   UNL     1      42.975   4.857  10.159  0.00  0.00    +0.000 HD
ENDROOT
BRANCH   1   3
ATOM      3  C   UNL     1      44.707   4.120   9.268  0.00  0.00    +0.000 A 
ATOM      4  C   UNL     1      45.614   4.621   8.324  0.00  0.00    +0.000 A 
ATOM      5  C   UNL     1      46.463   3.769   7.596  0.00  0.00    +0.000 A 
ATOM      6  C   UNL     1      46.422   2.385   7.800  0.00  0.00    +0.000 A 
ATOM      7  C   UNL     1      45.524   1.869   8.731  0.00  0.00    +0.000 A 
ATOM      8  C   UNL     1      44.691   2.723   9.449  0.00  0.00    +0.000 A 
ATOM      9  F   UNL     1      43.861   2.151  10.334  0.00  0.00    +0.000 F 
BRANCH   6  10
ATOM     10  C   UNL     1      47.298   1.410   7.084  0.00  0.00    +0.000 C 
ATOM     11  N   UNL     1      48.331   1.889   6.329  0.00  0.00    +0.000 N 
ATOM     12  O   UNL     1      47.111   0.206   7.165  0.00  0.00    +0.000 OA
ATOM     13  H   UNL     1      48.573   2.857   6.207  0.00  0.00    +0.000 HD
ATOM     14  H   UNL     1      48.905   1.196   5.864  0.00  0.00    +0.000 HD
ENDBRANCH   6  10
ENDBRANCH   1   3
BRANCH   1  15
ATOM     15  C   UNL     1      44.639   5.935  10.931  0.00  0.00    +0.000 C 
BRANCH  15  17
ATOM     16  C   UNL     1      44.652   4.350  12.981  0.00  0.00    +0.000 C 
ATOM     17  C   UNL     1      45.396   5.207  12.005  0.00  0.00    +0.000 C 
BRANCH  17  18
ATOM     18  C   UNL     1      46.545   5.943  12.566  0.00  0.00    +0.000 A 
ATOM     19  C   UNL     1      47.130   5.541  13.776  0.00  0.00    +0.000 A 
ATOM     20  C   UNL     1      48.182   6.264  14.336  0.00  0.00    +0.000 A 
ATOM     21  C   UNL     1      48.664   7.397  13.686  0.00  0.00    +0.000 A 
ATOM     22  C   UNL     1      48.104   7.795  12.465  0.00  0.00    +0.000 A 
ATOM     23  C   UNL     1      47.046   7.065  11.905  0.00  0.00    +0.000 A 
BRANCH  22  24
ATOM     24  C   UNL     1      48.604   8.953  11.793  0.00  0.00    +0.000 C 
ATOM     25  N   UNL     1      49.012   9.892  11.244  0.00  0.00    +0.000 NA
ENDBRANCH  22  24
ENDBRANCH  17  18
ENDBRANCH  15  17
ENDBRANCH   1  15
TORSDOF 6
ENDMDL
MODEL 6
REMARK VINA RESULT:    -7.739      1.571      2.138
REMARK INTER + INTRA:         -11.335
REMARK INTER:                 -10.278
REMARK INTRA:                  -1.056
REMARK UNBOUND:                -0.881
REMARK  Name = 
REMARK  7 active torsions:
REMARK  status: ('A' for Active; 'I' for Inactive)
REMARK    1  A    between atoms: C_1  and  C_2
REMARK    2  A    between atoms: C_2  and  C_3
REMARK    3  A    between atoms: C_2  and  C_15
REMARK    4  A    between atoms: C_3  and  N_4
REMARK    5  A    between atoms: N_4  and  C_5
REMARK    6  A    between atoms: C_8  and  C_9
REMARK    7  A    between atoms: C_19  and  C_20
REMARK                            x       y       z     vdW  Elec       q    Type
REMARK                         _______ _______ _______ _____ _____    ______ ____
ROOT
ATOM      1  N   UNL     1      43.802   3.156  10.704  0.00  0.00    +0.000 N 
ATOM      2  H   UNL     1      42.847   2.868  10.533  0.00  0.00    +0.000 HD
ENDROOT
BRANCH   1   3
ATOM      3  C   UNL     1      44.730   3.075   9.666  0.00  0.00    +0.000 A 
ATOM      4  C   UNL     1      45.042   1.816   9.135  0.00  0.00    +0.000 A 
ATOM      5  C   UNL     1      45.891   1.677   8.023  0.00  0.00    +0.000 A 
ATOM      6  C   UNL     1      46.449   2.806   7.413  0.00  0.00    +0.000 A 
ATOM      7  C   UNL     1      46.153   4.065   7.930  0.00  0.00    +0.000 A 
ATOM      8  C   UNL     1      45.308   4.190   9.028  0.00  0.00    +0.000 A 
ATOM      9  F   UNL     1      45.063   5.436   9.461  0.00  0.00    +0.000 F 
BRANCH   6  10
ATOM     10  C   UNL     1      47.346   2.752   6.220  0.00  0.00    +0.000 C 
ATOM     11  N   UNL     1      48.674   2.491   6.409  0.00  0.00    +0.000 N 
ATOM     12  O   UNL     1      46.916   2.929   5.091  0.00  0.00    +0.000 OA
ATOM     13  H   UNL     1      49.121   2.322   7.293  0.00  0.00    +0.000 HD
ATOM     14  H   UNL     1      49.247   2.456   5.574  0.00  0.00    +0.000 HD
ENDBRANCH   6  10
ENDBRANCH   1   3
BRANCH   1  15
ATOM     15  C   UNL     1      44.257   3.273  12.074  0.00  0.00    +0.000 C 
BRANCH  15  17
ATOM     16  C   UNL     1      42.628   5.274  12.313  0.00  0.00    +0.000 C 
ATOM     17  C   UNL     1      43.928   4.617  12.660  0.00  0.00    +0.000 C 
BRANCH  17  18
ATOM     18  C   UNL     1      45.075   5.533  12.802  0.00  0.00    +0.000 A 
ATOM     19  C   UNL     1      46.304   5.068  13.294  0.00  0.00    +0.000 A 
ATOM     20  C   UNL     1      47.375   5.940  13.480  0.00  0.00    +0.000 A 
ATOM     21  C   UNL     1      47.228   7.290  13.168  0.00  0.00    +0.000 A 
ATOM     22  C   UNL     1      46.014   7.762  12.653  0.00  0.00    +0.000 A 
ATOM     23  C   UNL     1      44.938   6.881  12.469  0.00  0.00    +0.000 A 
BRANCH  22  24
ATOM     24  C   UNL     1      45.866   9.144  12.325  0.00  0.00    +0.000 C 
ATOM     25  N   UNL     1      45.742  10.268  12.060  0.00  0.00    +0.000 NA
ENDBRANCH  22  24
ENDBRANCH  17  18
ENDBRANCH  15  17
ENDBRANCH   1  15
TORSDOF 6
ENDMDL
MODEL 7
REMARK VINA RESULT:    -7.644      3.039      6.546
REMARK INTER + INTRA:         -11.207
REMARK INTER:                 -10.066
REMARK INTRA:                  -1.141
REMARK UNBOUND:                -0.881
REMARK  Name = 
REMARK  7 active torsions:
REMARK  status: ('A' for Active; 'I' for Inactive)
REMARK    1  A    between atoms: C_1  and  C_2
REMARK    2  A    between atoms: C_2  and  C_3
REMARK    3  A    between atoms: C_2  and  C_15
REMARK    4  A    between atoms: C_3  and  N_4
REMARK    5  A    between atoms: N_4  and  C_5
REMARK    6  A    between atoms: C_8  and  C_9
REMARK    7  A    between atoms: C_19  and  C_20
REMARK                            x       y       z     vdW  Elec       q    Type
REMARK                         _______ _______ _______ _____ _____    ______ ____
ROOT
ATOM      1  N   UNL     1      43.549   5.398  12.460  0.00  0.00    +0.000 N 
ATOM      2  H   UNL     1      42.884   5.597  13.196  0.00  0.00    +0.000 HD
ENDROOT
BRANCH   1   3
ATOM      3  C   UNL     1      44.847   5.896  12.569  0.00  0.00    +0.000 A 
ATOM      4  C   UNL     1      45.786   5.175  13.322  0.00  0.00    +0.000 A 
ATOM      5  C   UNL     1      47.134   5.570  13.387  0.00  0.00    +0.000 A 
ATOM      6  C   UNL     1      47.575   6.702  12.693  0.00  0.00    +0.000 A 
ATOM      7  C   UNL     1      46.655   7.432  11.943  0.00  0.00    +0.000 A 
ATOM      8  C   UNL     1      45.325   7.030  11.884  0.00  0.00    +0.000 A 
ATOM      9  F   UNL     1      44.502   7.778  11.133  0.00  0.00    +0.000 F 
BRANCH   6  10
ATOM     10  C   UNL     1      48.989   7.182  12.693  0.00  0.00    +0.000 C 
ATOM     11  N   UNL     1      49.707   7.107  13.853  0.00  0.00    +0.000 N 
ATOM     12  O   UNL     1      49.510   7.630  11.684  0.00  0.00    +0.000 OA
ATOM     13  H   UNL     1      49.374   6.746  14.731  0.00  0.00    +0.000 HD
ATOM     14  H   UNL     1      50.664   7.436  13.810  0.00  0.00    +0.000 HD
ENDBRANCH   6  10
ENDBRANCH   1   3
BRANCH   1  15
ATOM     15  C   UNL     1      43.051   4.950  11.176  0.00  0.00    +0.000 C 
BRANCH  15  17
ATOM     16  C   UNL     1      43.612   2.549  11.972  0.00  0.00    +0.000 C 
ATOM     17  C   UNL     1      43.492   3.548  10.864  0.00  0.00    +0.000 C 
BRANCH  17  18
ATOM     18  C   UNL     1      44.513   3.436   9.805  0.00  0.00    +0.000 A 
ATOM     19  C   UNL     1      44.999   4.581   9.156  0.00  0.00    +0.000 A 
ATOM     20  C   UNL     1      45.925   4.477   8.120  0.00  0.00    +0.000 A 
ATOM     21  C   UNL     1      46.380   3.221   7.725  0.00  0.00    +0.000 A 
ATOM     22  C   UNL     1      45.921   2.072   8.381  0.00  0.00    +0.000 A 
ATOM     23  C   UNL     1      44.989   2.181   9.423  0.00  0.00    +0.000 A 
BRANCH  22  24
ATOM     24  C   UNL     1      46.394   0.784   7.983  0.00  0.00    +0.000 C 
ATOM     25  N   UNL     1      46.781  -0.261   7.656  0.00  0.00    +0.000 NA
ENDBRANCH  22  24
ENDBRANCH  17  18
ENDBRANCH  15  17
ENDBRANCH   1  15
TORSDOF 6
ENDMDL
MODEL 8
REMARK VINA RESULT:    -6.806      3.498      7.230
REMARK INTER + INTRA:         -10.074
REMARK INTER:                  -9.983
REMARK INTRA:                  -0.091
REMARK UNBOUND:                -0.881
REMARK  Name = 
REMARK  7 active torsions:
REMARK  status: ('A' for Active; 'I' for Inactive)
REMARK    1  A    between atoms: C_1  and  C_2
REMARK    2  A    between atoms: C_2  and  C_3
REMARK    3  A    between atoms: C_2  and  C_15
REMARK    4  A    between atoms: C_3  and  N_4
REMARK    5  A    between atoms: N_4  and  C_5
REMARK    6  A    between atoms: C_8  and  C_9
REMARK    7  A    between atoms: C_19  and  C_20
REMARK                            x       y       z     vdW  Elec       q    Type
REMARK                         _______ _______ _______ _____ _____    ______ ____
ROOT
ATOM      1  N   UNL     1      45.730   5.638  10.836  0.00  0.00    +0.000 N 
ATOM      2  H   UNL     1      46.325   5.546  10.023  0.00  0.00    +0.000 HD
ENDROOT
BRANCH   1   3
ATOM      3  C   UNL     1      46.318   5.712  12.099  0.00  0.00    +0.000 A 
ATOM      4  C   UNL     1      46.019   4.719  13.043  0.00  0.00    +0.000 A 
ATOM      5  C   UNL     1      46.656   4.681  14.296  0.00  0.00    +0.000 A 
ATOM      6  C   UNL     1      47.614   5.643  14.633  0.00  0.00    +0.000 A 
ATOM      7  C   UNL     1      47.920   6.640  13.709  0.00  0.00    +0.000 A 
ATOM      8  C   UNL     1      47.286   6.665  12.471  0.00  0.00    +0.000 A 
ATOM      9  F   UNL     1      47.642   7.650  11.632  0.00  0.00    +0.000 F 
BRANCH   6  10
ATOM     10  C   UNL     1      48.349   5.668  15.933  0.00  0.00    +0.000 C 
ATOM     11  N   UNL     1      48.426   6.847  16.620  0.00  0.00    +0.000 N 
ATOM     12  O   UNL     1      48.872   4.663  16.389  0.00  0.00    +0.000 OA
ATOM     13  H   UNL     1      48.022   7.723  16.336  0.00  0.00    +0.000 HD
ATOM     14  H   UNL     1      48.928   6.820  17.500  0.00  0.00    +0.000 HD
ENDBRANCH   6  10
ENDBRANCH   1   3
BRANCH   1  15
ATOM     15  C   UNL     1      44.324   5.312  10.710  0.00  0.00    +0.000 C 
BRANCH  15  17
ATOM     16  C   UNL     1      43.658   2.836  11.085  0.00  0.00    +0.000 C 
ATOM     17  C   UNL     1      44.118   3.926  10.168  0.00  0.00    +0.000 C 
BRANCH  17  18
ATOM     18  C   UNL     1      45.085   3.510   9.135  0.00  0.00    +0.000 A 
ATOM     19  C   UNL     1      45.694   4.461   8.301  0.00  0.00    +0.000 A 
ATOM     20  C   UNL     1      46.569   4.068   7.290  0.00  0.00    +0.000 A 
ATOM     21  C   UNL     1      46.849   2.716   7.106  0.00  0.00    +0.000 A 
ATOM     22  C   UNL     1      46.266   1.759   7.947  0.00  0.00    +0.000 A 
ATOM     23  C   UNL     1      45.386   2.159   8.963  0.00  0.00    +0.000 A 
BRANCH  22  24
ATOM     24  C   UNL     1      46.559   0.373   7.764  0.00  0.00    +0.000 C 
ATOM     25  N   UNL     1      46.794  -0.754   7.617  0.00  0.00    +0.000 NA
ENDBRANCH  22  24
ENDBRANCH  17  18
ENDBRANCH  15  17
ENDBRANCH   1  15
TORSDOF 6
ENDMDL
MODEL 9
REMARK VINA RESULT:    -6.370      4.194      7.056
REMARK INTER + INTRA:          -9.485
REMARK INTER:                  -8.223
REMARK INTRA:                  -1.262
REMARK UNBOUND:                -0.881
REMARK  Name = 
REMARK  7 active torsions:
REMARK  status: ('A' for Active; 'I' for Inactive)
REMARK    1  A    between atoms: C_1  and  C_2
REMARK    2  A    between atoms: C_2  and  C_3
REMARK    3  A    between atoms: C_2  and  C_15
REMARK    4  A    between atoms: C_3  and  N_4
REMARK    5  A    between atoms: N_4  and  C_5
REMARK    6  A    between atoms: C_8  and  C_9
REMARK    7  A    between atoms: C_19  and  C_20
REMARK                            x       y       z     vdW  Elec       q    Type
REMARK                         _______ _______ _______ _____ _____    ______ ____
ROOT
ATOM      1  N   UNL     1      47.374   6.391  12.791  0.00  0.00    +0.000 N 
ATOM      2  H   UNL     1      47.647   5.975  11.911  0.00  0.00    +0.000 HD
ENDROOT
BRANCH   1   3
ATOM      3  C   UNL     1      47.603   5.688  13.973  0.00  0.00    +0.000 A 
ATOM      4  C   UNL     1      48.256   6.337  15.030  0.00  0.00    +0.000 A 
ATOM      5  C   UNL     1      48.426   5.716  16.280  0.00  0.00    +0.000 A 
ATOM      6  C   UNL     1      47.940   4.423  16.501  0.00  0.00    +0.000 A 
ATOM      7  C   UNL     1      47.292   3.761  15.460  0.00  0.00    +0.000 A 
ATOM      8  C   UNL     1      47.127   4.387  14.229  0.00  0.00    +0.000 A 
ATOM      9  F   UNL     1      46.484   3.689  13.280  0.00  0.00    +0.000 F 
BRANCH   6  10
ATOM     10  C   UNL     1      48.062   3.696  17.800  0.00  0.00    +0.000 C 
ATOM     11  N   UNL     1      47.122   2.756  18.117  0.00  0.00    +0.000 N 
ATOM     12  O   UNL     1      48.981   3.922  18.573  0.00  0.00    +0.000 OA
ATOM     13  H   UNL     1      46.338   2.492  17.547  0.00  0.00    +0.000 HD
ATOM     14  H   UNL     1      47.245   2.282  19.004  0.00  0.00    +0.000 HD
ENDBRANCH   6  10
ENDBRANCH   1   3
BRANCH   1  15
ATOM     15  C   UNL     1      46.435   7.495  12.775  0.00  0.00    +0.000 C 
BRANCH  15  17
ATOM     16  C   UNL     1      44.533   8.485  11.320  0.00  0.00    +0.000 C 
ATOM     17  C   UNL     1      45.379   7.316  11.722  0.00  0.00    +0.000 C 
BRANCH  17  18
ATOM     18  C   UNL     1      44.680   6.017  11.754  0.00  0.00    +0.000 A 
ATOM     19  C   UNL     1      43.844   5.682  12.830  0.00  0.00    +0.000 A 
ATOM     20  C   UNL     1      43.223   4.436  12.890  0.00  0.00    +0.000 A 
ATOM     21  C   UNL     1      43.427   3.513  11.868  0.00  0.00    +0.000 A 
ATOM     22  C   UNL     1      44.241   3.845  10.777  0.00  0.00    +0.000 A 
ATOM     23  C   UNL     1      44.865   5.099  10.720  0.00  0.00    +0.000 A 
BRANCH  22  24
ATOM     24  C   UNL     1      44.444   2.901   9.724  0.00  0.00    +0.000 C 
ATOM     25  N   UNL     1      44.606   2.133   8.868  0.00  0.00    +0.000 NA
ENDBRANCH  22  24
ENDBRANCH  17  18
ENDBRANCH  15  17
ENDBRANCH   1  15
TORSDOF 6
ENDMDL
