MODEL 1
REMARK VINA RESULT:    -8.965      0.000      0.000
REMARK INTER + INTRA:         -13.491
REMARK INTER:                 -12.634
REMARK INTRA:                  -0.858
REMARK UNBOUND:                -0.858
REMARK  Name = 
REMARK  7 active torsions:
REMARK  status: ('A' for Active; 'I' for Inactive)
REMARK    1  A    between atoms: C_2  and  C_4
REMARK    2  A    between atoms: C_7  and  N_8
REMARK    3  A    between atoms: N_8  and  C_9
REMARK    4  A    between atoms: C_9  and  C_10
REMARK    5  A    between atoms: C_10  and  C_13
REMARK    6  A    between atoms: C_17  and  O_18
REMARK    7  A    between atoms: O_18  and  C_19
REMARK                            x       y       z     vdW  Elec       q    Type
REMARK                         _______ _______ _______ _____ _____    ______ ____
ROOT
ATOM      1  C   UNL     1      43.159   4.070  11.336  0.00  0.00    +0.000 C 
ENDROOT
BRANCH   1   2
ATOM      2  C   UNL     1      43.231   4.984  12.582  0.00  0.00    +0.000 C 
ATOM      3  F   UNL     1      42.415   6.063  12.377  0.00  0.00    +0.000 F 
ATOM      4  F   UNL     1      42.683   4.309  13.637  0.00  0.00    +0.000 F 
BRANCH   2   5
ATOM      5  C   UNL     1      44.668   5.412  12.852  0.00  0.00    +0.000 A 
ATOM      6  C   UNL     1      45.141   6.687  12.504  0.00  0.00    +0.000 A 
ATOM      7  C   UNL     1      46.427   7.089  12.858  0.00  0.00    +0.000 A 
ATOM      8  C   UNL     1      47.272   6.220  13.556  0.00  0.00    +0.000 A 
ATOM      9  C   UNL     1      46.837   4.929  13.874  0.00  0.00    +0.000 A 
ATOM     10  C   UNL     1      45.541   4.533  13.520  0.00  0.00    +0.000 A 
BRANCH   9  11
ATOM     11  O   UNL     1      47.562   3.977  14.556  0.00  0.00    +0.000 OA
BRANCH  11  12
ATOM     12  C   UNL     1      47.418   3.845  15.994  0.00  0.00    +0.000 C 
ATOM     13  C   UNL     1      48.087   4.850  16.938  0.00  0.00    +0.000 C 
ATOM     14  O   UNL     1      48.803   3.805  17.639  0.00  0.00    +0.000 OA
ATOM     15  C   UNL     1      48.307   2.808  16.712  0.00  0.00    +0.000 C 
ENDBRANCH  11  12
ENDBRANCH   9  11
ENDBRANCH   2   5
ENDBRANCH   1   2
BRANCH   1  16
ATOM     16  N   UNL     1      43.677   4.644  10.083  0.00  0.00    +0.000 N 
ATOM     17  H   UNL     1      43.009   5.173   9.522  0.00  0.00    +0.000 HD
BRANCH  16  21
ATOM     18  C   UNL     1      46.388   2.331   7.832  0.00  0.00    +0.000 A 
ATOM     19  C   UNL     1      46.351   3.712   7.643  0.00  0.00    +0.000 A 
ATOM     20  C   UNL     1      45.462   4.485   8.390  0.00  0.00    +0.000 A 
ATOM     21  C   UNL     1      44.623   3.913   9.361  0.00  0.00    +0.000 A 
ATOM     22  C   UNL     1      44.649   2.520   9.506  0.00  0.00    +0.000 A 
ATOM     23  C   UNL     1      45.521   1.732   8.748  0.00  0.00    +0.000 A 
BRANCH  18  25
ATOM     24  N   UNL     1      48.414   2.088   6.522  0.00  0.00    +0.000 N 
ATOM     25  C   UNL     1      47.306   1.489   7.037  0.00  0.00    +0.000 C 
ATOM     26  O   UNL     1      47.095   0.283   6.872  0.00  0.00    +0.000 OA
ATOM     27  H   UNL     1      49.084   1.487   6.063  0.00  0.00    +0.000 HD
ATOM     28  H   UNL     1      48.742   2.985   6.864  0.00  0.00    +0.000 HD
ENDBRANCH  18  25
ENDBRANCH  16  21
ENDBRANCH   1  16
TORSDOF 7
ENDMDL
MODEL 2
REMARK VINA RESULT:    -8.201      2.892      4.662
REMARK INTER + INTRA:         -12.414
REMARK INTER:                 -11.503
REMARK INTRA:                  -0.911
REMARK UNBOUND:                -0.858
REMARK  Name = 
REMARK  7 active torsions:
REMARK  status: ('A' for Active; 'I' for Inactive)
REMARK    1  A    between atoms: C_2  and  C_4
REMARK    2  A    between atoms: C_7  and  N_8
REMARK    3  A    between atoms: N_8  and  C_9
REMARK    4  A    between atoms: C_9  and  C_10
REMARK    5  A    between atoms: C_10  and  C_13
REMARK    6  A    between atoms: C_17  and  O_18
REMARK    7  A    between atoms: O_18  and  C_19
REMARK                            x       y       z     vdW  Elec       q    Type
REMARK                         _______ _______ _______ _____ _____    ______ ____
ROOT
ATOM      1  C   UNL     1      43.197   4.302  11.255  0.00  0.00    +0.000 C 
ENDROOT
BRANCH   1   2
ATOM      2  C   UNL     1      44.136   4.326  12.485  0.00  0.00    +0.000 C 
ATOM      3  F   UNL     1      43.367   4.320  13.617  0.00  0.00    +0.000 F 
ATOM      4  F   UNL     1      44.831   3.149  12.512  0.00  0.00    +0.000 F 
BRANCH   2   5
ATOM      5  C   UNL     1      45.053   5.540  12.438  0.00  0.00    +0.000 A 
ATOM      6  C   UNL     1      46.451   5.416  12.423  0.00  0.00    +0.000 A 
ATOM      7  C   UNL     1      47.263   6.538  12.273  0.00  0.00    +0.000 A 
ATOM      8  C   UNL     1      46.695   7.810  12.146  0.00  0.00    +0.000 A 
ATOM      9  C   UNL     1      45.304   7.962  12.203  0.00  0.00    +0.000 A 
ATOM     10  C   UNL     1      44.494   6.830  12.349  0.00  0.00    +0.000 A 
BRANCH   9  11
ATOM     11  O   UNL     1      44.617   9.151  12.091  0.00  0.00    +0.000 OA
BRANCH  11  12
ATOM     12  C   UNL     1      44.135   9.593  10.796  0.00  0.00    +0.000 C 
ATOM     13  C   UNL     1      44.403  11.023  10.315  0.00  0.00    +0.000 C 
ATOM     14  O   UNL     1      42.992  11.286  10.124  0.00  0.00    +0.000 OA
ATOM     15  C   UNL     1      42.649   9.994  10.682  0.00  0.00    +0.000 C 
ENDBRANCH  11  12
ENDBRANCH   9  11
ENDBRANCH   2   5
ENDBRANCH   1   2
BRANCH   1  16
ATOM     16  N   UNL     1      43.769   4.807   9.996  0.00  0.00    +0.000 N 
ATOM     17  H   UNL     1      43.177   5.436   9.455  0.00  0.00    +0.000 HD
BRANCH  16  21
ATOM     18  C   UNL     1      46.372   2.309   7.816  0.00  0.00    +0.000 A 
ATOM     19  C   UNL     1      45.438   1.734   8.676  0.00  0.00    +0.000 A 
ATOM     20  C   UNL     1      44.568   2.553   9.395  0.00  0.00    +0.000 A 
ATOM     21  C   UNL     1      44.580   3.951   9.248  0.00  0.00    +0.000 A 
ATOM     22  C   UNL     1      45.552   4.509   8.408  0.00  0.00    +0.000 A 
ATOM     23  C   UNL     1      46.443   3.699   7.698  0.00  0.00    +0.000 A 
BRANCH  18  25
ATOM     24  N   UNL     1      48.409   2.071   6.523  0.00  0.00    +0.000 N 
ATOM     25  C   UNL     1      47.317   1.462   7.059  0.00  0.00    +0.000 C 
ATOM     26  O   UNL     1      47.142   0.245   6.944  0.00  0.00    +0.000 OA
ATOM     27  H   UNL     1      49.098   1.472   6.091  0.00  0.00    +0.000 HD
ATOM     28  H   UNL     1      48.710   2.991   6.827  0.00  0.00    +0.000 HD
ENDBRANCH  18  25
ENDBRANCH  16  21
ENDBRANCH   1  16
TORSDOF 7
ENDMDL
MODEL 3
REMARK VINA RESULT:    -8.082      2.086      3.407
REMARK INTER + INTRA:         -12.247
REMARK INTER:                 -11.386
REMARK INTRA:                  -0.862
REMARK UNBOUND:                -0.858
REMARK  Name = 
REMARK  7 active torsions:
REMARK  status: ('A' for Active; 'I' for Inactive)
REMARK    1  A    between atoms: C_2  and  C_4
REMARK    2  A    between atoms: C_7  and  N_8
REMARK    3  A    between atoms: N_8  and  C_9
REMARK    4  A    between atoms: C_9  and  C_10
REMARK    5  A    between atoms: C_10  and  C_13
REMARK    6  A    between atoms: C_17  and  O_18
REMARK    7  A    between atoms: O_18  and  C_19
REMARK                            x       y       z     vdW  Elec       q    Type
REMARK                         _______ _______ _______ _____ _____    ______ ____
ROOT
ATOM      1  C   UNL     1      43.304   4.038  11.397  0.00  0.00    +0.000 C 
ENDROOT
BRANCH   1   2
ATOM      2  C   UNL     1      43.422   5.062  12.552  0.00  0.00    +0.000 C 
ATOM      3  F   UNL     1      42.730   6.190  12.203  0.00  0.00    +0.000 F 
ATOM      4  F   UNL     1      42.766   4.555  13.638  0.00  0.00    +0.000 F 
BRANCH   2   5
ATOM      5  C   UNL     1      44.883   5.371  12.849  0.00  0.00    +0.000 A 
ATOM      6  C   UNL     1      45.669   4.538  13.661  0.00  0.00    +0.000 A 
ATOM      7  C   UNL     1      47.029   4.788  13.830  0.00  0.00    +0.000 A 
ATOM      8  C   UNL     1      47.630   5.882  13.200  0.00  0.00    +0.000 A 
ATOM      9  C   UNL     1      46.857   6.751  12.421  0.00  0.00    +0.000 A 
ATOM     10  C   UNL     1      45.492   6.492  12.252  0.00  0.00    +0.000 A 
BRANCH   9  11
ATOM     11  O   UNL     1      47.320   7.860  11.747  0.00  0.00    +0.000 OA
BRANCH  11  12
ATOM     12  C   UNL     1      48.410   8.643  12.298  0.00  0.00    +0.000 C 
ATOM     13  C   UNL     1      48.192   9.510  13.543  0.00  0.00    +0.000 C 
ATOM     14  O   UNL     1      48.634  10.707  12.859  0.00  0.00    +0.000 OA
ATOM     15  C   UNL     1      48.750   9.983  11.611  0.00  0.00    +0.000 C 
ENDBRANCH  11  12
ENDBRANCH   9  11
ENDBRANCH   2   5
ENDBRANCH   1   2
BRANCH   1  16
ATOM     16  N   UNL     1      43.613   4.546  10.050  0.00  0.00    +0.000 N 
ATOM     17  H   UNL     1      42.847   5.004   9.557  0.00  0.00    +0.000 HD
BRANCH  16  21
ATOM     18  C   UNL     1      46.402   2.423   7.709  0.00  0.00    +0.000 A 
ATOM     19  C   UNL     1      45.579   1.722   8.590  0.00  0.00    +0.000 A 
ATOM     20  C   UNL     1      44.648   2.417   9.362  0.00  0.00    +0.000 A 
ATOM     21  C   UNL     1      44.488   3.808   9.250  0.00  0.00    +0.000 A 
ATOM     22  C   UNL     1      45.352   4.496   8.388  0.00  0.00    +0.000 A 
ATOM     23  C   UNL     1      46.303   3.813   7.624  0.00  0.00    +0.000 A 
BRANCH  18  25
ATOM     24  N   UNL     1      48.490   2.423   6.477  0.00  0.00    +0.000 N 
ATOM     25  C   UNL     1      47.410   1.711   6.896  0.00  0.00    +0.000 C 
ATOM     26  O   UNL     1      47.293   0.509   6.632  0.00  0.00    +0.000 OA
ATOM     27  H   UNL     1      49.220   1.907   6.005  0.00  0.00    +0.000 HD
ATOM     28  H   UNL     1      48.739   3.311   6.899  0.00  0.00    +0.000 HD
ENDBRANCH  18  25
ENDBRANCH  16  21
ENDBRANCH   1  16
TORSDOF 7
ENDMDL
MODEL 4
REMARK VINA RESULT:    -8.063      1.907      2.436
REMARK INTER + INTRA:         -12.219
REMARK INTER:                 -11.214
REMARK INTRA:                  -1.005
REMARK UNBOUND:                -0.858
REMARK  Name = 
REMARK  7 active torsions:
REMARK  status: ('A' for Active; 'I' for Inactive)
REMARK    1  A    between atoms: C_2  and  C_4
REMARK    2  A    between atoms: C_7  and  N_8
REMARK    3  A    between atoms: N_8  and  C_9
REMARK    4  A    between atoms: C_9  and  C_10
REMARK    5  A    between atoms: C_10  and  C_13
REMARK    6  A    between atoms: C_17  and  O_18
REMARK    7  A    between atoms: O_18  and  C_19
REMARK                            x       y       z     vdW  Elec       q    Type
REMARK                         _______ _______ _______ _____ _____    ______ ____
ROOT
ATOM      1  C   UNL     1      44.071   4.874  11.267  0.00  0.00    +0.000 C 
ENDROOT
BRANCH   1   2
ATOM      2  C   UNL     1      44.954   4.496  12.481  0.00  0.00    +0.000 C 
ATOM      3  F   UNL     1      44.192   4.583  13.614  0.00  0.00    +0.000 F 
ATOM      4  F   UNL     1      45.290   3.176  12.368  0.00  0.00    +0.000 F 
BRANCH   2   5
ATOM      5  C   UNL     1      46.177   5.401  12.558  0.00  0.00    +0.000 A 
ATOM      6  C   UNL     1      46.455   6.360  11.571  0.00  0.00    +0.000 A 
ATOM      7  C   UNL     1      47.521   7.245  11.721  0.00  0.00    +0.000 A 
ATOM      8  C   UNL     1      48.338   7.182  12.854  0.00  0.00    +0.000 A 
ATOM      9  C   UNL     1      48.106   6.205  13.829  0.00  0.00    +0.000 A 
ATOM     10  C   UNL     1      47.030   5.322  13.675  0.00  0.00    +0.000 A 
BRANCH   9  11
ATOM     11  O   UNL     1      48.829   6.033  14.989  0.00  0.00    +0.000 OA
BRANCH  11  12
ATOM     12  C   UNL     1      49.635   7.121  15.511  0.00  0.00    +0.000 C 
ATOM     13  C   UNL     1      50.658   6.865  16.623  0.00  0.00    +0.000 C 
ATOM     14  O   UNL     1      50.054   7.857  17.488  0.00  0.00    +0.000 OA
ATOM     15  C   UNL     1      48.981   8.070  16.538  0.00  0.00    +0.000 C 
ENDBRANCH  11  12
ENDBRANCH   9  11
ENDBRANCH   2   5
ENDBRANCH   1   2
BRANCH   1  16
ATOM     16  N   UNL     1      43.692   3.766  10.375  0.00  0.00    +0.000 N 
ATOM     17  H   UNL     1      43.148   3.014  10.799  0.00  0.00    +0.000 HD
BRANCH  16  21
ATOM     18  C   UNL     1      46.562   2.682   7.485  0.00  0.00    +0.000 A 
ATOM     19  C   UNL     1      45.937   1.684   8.231  0.00  0.00    +0.000 A 
ATOM     20  C   UNL     1      44.980   2.034   9.183  0.00  0.00    +0.000 A 
ATOM     21  C   UNL     1      44.598   3.371   9.388  0.00  0.00    +0.000 A 
ATOM     22  C   UNL     1      45.268   4.360   8.656  0.00  0.00    +0.000 A 
ATOM     23  C   UNL     1      46.244   4.022   7.713  0.00  0.00    +0.000 A 
BRANCH  18  25
ATOM     24  N   UNL     1      47.529   2.963   5.279  0.00  0.00    +0.000 N 
ATOM     25  C   UNL     1      47.594   2.337   6.485  0.00  0.00    +0.000 C 
ATOM     26  O   UNL     1      48.498   1.535   6.742  0.00  0.00    +0.000 OA
ATOM     27  H   UNL     1      48.291   2.794   4.638  0.00  0.00    +0.000 HD
ATOM     28  H   UNL     1      46.978   3.803   5.144  0.00  0.00    +0.000 HD
ENDBRANCH  18  25
ENDBRANCH  16  21
ENDBRANCH   1  16
TORSDOF 7
ENDMDL
MODEL 5
REMARK VINA RESULT:    -7.263      2.548      7.567
REMARK INTER + INTRA:         -11.092
REMARK INTER:                 -10.472
REMARK INTRA:                  -0.621
REMARK UNBOUND:                -0.858
REMARK  Name = 
REMARK  7 active torsions:
REMARK  status: ('A' for Active; 'I' for Inactive)
REMARK    1  A    between atoms: C_2  and  C_4
REMARK    2  A    between atoms: C_7  and  N_8
REMARK    3  A    between atoms: N_8  and  C_9
REMARK    4  A    between atoms: C_9  and  C_10
REMARK    5  A    between atoms: C_10  and  C_13
REMARK    6  A    between atoms: C_17  and  O_18
REMARK    7  A    between atoms: O_18  and  C_19
REMARK                            x       y       z     vdW  Elec       q    Type
REMARK                         _______ _______ _______ _____ _____    ______ ____
ROOT
ATOM      1  C   UNL     1      46.918   6.560  11.723  0.00  0.00    +0.000 C 
ENDROOT
BRANCH   1   2
ATOM      2  C   UNL     1      45.411   6.398  11.409  0.00  0.00    +0.000 C 
ATOM      3  F   UNL     1      44.722   6.379  12.591  0.00  0.00    +0.000 F 
ATOM      4  F   UNL     1      44.988   7.524  10.760  0.00  0.00    +0.000 F 
BRANCH   2   5
ATOM      5  C   UNL     1      45.163   5.133  10.597  0.00  0.00    +0.000 A 
ATOM      6  C   UNL     1      44.364   4.085  11.080  0.00  0.00    +0.000 A 
ATOM      7  C   UNL     1      44.069   2.988  10.274  0.00  0.00    +0.000 A 
ATOM      8  C   UNL     1      44.576   2.909   8.972  0.00  0.00    +0.000 A 
ATOM      9  C   UNL     1      45.411   3.922   8.486  0.00  0.00    +0.000 A 
ATOM     10  C   UNL     1      45.700   5.024   9.300  0.00  0.00    +0.000 A 
BRANCH   9  11
ATOM     11  O   UNL     1      45.975   3.971   7.231  0.00  0.00    +0.000 OA
BRANCH  11  12
ATOM     12  C   UNL     1      46.335   2.743   6.547  0.00  0.00    +0.000 C 
ATOM     13  C   UNL     1      47.288   1.739   7.205  0.00  0.00    +0.000 C 
ATOM     14  O   UNL     1      48.202   1.782   6.083  0.00  0.00    +0.000 OA
ATOM     15  C   UNL     1      47.418   2.823   5.450  0.00  0.00    +0.000 C 
ENDBRANCH  11  12
ENDBRANCH   9  11
ENDBRANCH   2   5
ENDBRANCH   1   2
BRANCH   1  16
ATOM     16  N   UNL     1      47.251   6.981  13.093  0.00  0.00    +0.000 N 
ATOM     17  H   UNL     1      47.831   7.815  13.178  0.00  0.00    +0.000 HD
BRANCH  16  21
ATOM     18  C   UNL     1      47.843   4.107  16.119  0.00  0.00    +0.000 A 
ATOM     19  C   UNL     1      47.139   3.750  14.971  0.00  0.00    +0.000 A 
ATOM     20  C   UNL     1      46.946   4.693  13.961  0.00  0.00    +0.000 A 
ATOM     21  C   UNL     1      47.477   5.991  14.053  0.00  0.00    +0.000 A 
ATOM     22  C   UNL     1      48.147   6.339  15.232  0.00  0.00    +0.000 A 
ATOM     23  C   UNL     1      48.329   5.409  16.260  0.00  0.00    +0.000 A 
BRANCH  18  25
ATOM     24  N   UNL     1      46.930   2.589  17.775  0.00  0.00    +0.000 N 
ATOM     25  C   UNL     1      48.043   3.131  17.211  0.00  0.00    +0.000 C 
ATOM     26  O   UNL     1      49.174   2.796  17.578  0.00  0.00    +0.000 OA
ATOM     27  H   UNL     1      47.075   1.854  18.452  0.00  0.00    +0.000 HD
ATOM     28  H   UNL     1      46.024   2.638  17.321  0.00  0.00    +0.000 HD
ENDBRANCH  18  25
ENDBRANCH  16  21
ENDBRANCH   1  16
TORSDOF 7
ENDMDL
MODEL 6
REMARK VINA RESULT:    -6.662      3.223      8.035
REMARK INTER + INTRA:         -10.246
REMARK INTER:                  -9.708
REMARK INTRA:                  -0.539
REMARK UNBOUND:                -0.858
REMARK  Name = 
REMARK  7 active torsions:
REMARK  status: ('A' for Active; 'I' for Inactive)
REMARK    1  A    between atoms: C_2  and  C_4
REMARK    2  A    between atoms: C_7  and  N_8
REMARK    3  A    between atoms: N_8  and  C_9
REMARK    4  A    between atoms: C_9  and  C_10
REMARK    5  A    between atoms: C_10  and  C_13
REMARK    6  A    between atoms: C_17  and  O_18
REMARK    7  A    between atoms: O_18  and  C_19
REMARK                            x       y       z     vdW  Elec       q    Type
REMARK                         _______ _______ _______ _____ _____    ______ ____
ROOT
ATOM      1  C   UNL     1      47.456   6.232  13.331  0.00  0.00    +0.000 C 
ENDROOT
BRANCH   1   2
ATOM      2  C   UNL     1      46.411   7.064  12.550  0.00  0.00    +0.000 C 
ATOM      3  F   UNL     1      45.698   7.814  13.445  0.00  0.00    +0.000 F 
ATOM      4  F   UNL     1      47.082   7.966  11.772  0.00  0.00    +0.000 F 
BRANCH   2   5
ATOM      5  C   UNL     1      45.503   6.156  11.732  0.00  0.00    +0.000 A 
ATOM      6  C   UNL     1      44.211   5.815  12.162  0.00  0.00    +0.000 A 
ATOM      7  C   UNL     1      43.364   5.070  11.345  0.00  0.00    +0.000 A 
ATOM      8  C   UNL     1      43.794   4.639  10.085  0.00  0.00    +0.000 A 
ATOM      9  C   UNL     1      45.094   4.930   9.655  0.00  0.00    +0.000 A 
ATOM     10  C   UNL     1      45.939   5.683  10.479  0.00  0.00    +0.000 A 
BRANCH   9  11
ATOM     11  O   UNL     1      45.644   4.569   8.445  0.00  0.00    +0.000 OA
BRANCH  11  12
ATOM     12  C   UNL     1      45.420   3.238   7.912  0.00  0.00    +0.000 C 
ATOM     13  C   UNL     1      45.561   2.007   8.813  0.00  0.00    +0.000 C 
ATOM     14  O   UNL     1      46.547   1.407   7.939  0.00  0.00    +0.000 OA
ATOM     15  C   UNL     1      46.561   2.588   7.101  0.00  0.00    +0.000 C 
ENDBRANCH  11  12
ENDBRANCH   9  11
ENDBRANCH   2   5
ENDBRANCH   1   2
BRANCH   1  16
ATOM     16  N   UNL     1      46.918   5.188  14.219  0.00  0.00    +0.000 N 
ATOM     17  H   UNL     1      45.915   5.012  14.148  0.00  0.00    +0.000 HD
BRANCH  16  21
ATOM     18  C   UNL     1      48.622   4.638  18.034  0.00  0.00    +0.000 A 
ATOM     19  C   UNL     1      49.024   5.725  17.260  0.00  0.00    +0.000 A 
ATOM     20  C   UNL     1      48.459   5.918  15.999  0.00  0.00    +0.000 A 
ATOM     21  C   UNL     1      47.461   5.064  15.499  0.00  0.00    +0.000 A 
ATOM     22  C   UNL     1      47.101   3.957  16.278  0.00  0.00    +0.000 A 
ATOM     23  C   UNL     1      47.675   3.741  17.534  0.00  0.00    +0.000 A 
BRANCH  18  25
ATOM     24  N   UNL     1      48.514   3.639  20.241  0.00  0.00    +0.000 N 
ATOM     25  C   UNL     1      49.221   4.401  19.364  0.00  0.00    +0.000 C 
ATOM     26  O   UNL     1      50.334   4.850  19.659  0.00  0.00    +0.000 OA
ATOM     27  H   UNL     1      48.972   3.401  21.110  0.00  0.00    +0.000 HD
ATOM     28  H   UNL     1      47.748   3.047  19.937  0.00  0.00    +0.000 HD
ENDBRANCH  18  25
ENDBRANCH  16  21
ENDBRANCH   1  16
TORSDOF 7
ENDMDL
MODEL 7
REMARK VINA RESULT:    -6.512      3.290      4.812
REMARK INTER + INTRA:         -10.035
REMARK INTER:                  -8.812
REMARK INTRA:                  -1.223
REMARK UNBOUND:                -0.858
REMARK  Name = 
REMARK  7 active torsions:
REMARK  status: ('A' for Active; 'I' for Inactive)
REMARK    1  A    between atoms: C_2  and  C_4
REMARK    2  A    between atoms: C_7  and  N_8
REMARK    3  A    between atoms: N_8  and  C_9
REMARK    4  A    between atoms: C_9  and  C_10
REMARK    5  A    between atoms: C_10  and  C_13
REMARK    6  A    between atoms: C_17  and  O_18
REMARK    7  A    between atoms: O_18  and  C_19
REMARK                            x       y       z     vdW  Elec       q    Type
REMARK                         _______ _______ _______ _____ _____    ______ ____
ROOT
ATOM      1  C   UNL     1      46.818   8.721  12.391  0.00  0.00    +0.000 C 
ENDROOT
BRANCH   1   2
ATOM      2  C   UNL     1      48.309   8.371  12.616  0.00  0.00    +0.000 C 
ATOM      3  F   UNL     1      48.595   7.228  11.920  0.00  0.00    +0.000 F 
ATOM      4  F   UNL     1      49.068   9.349  12.036  0.00  0.00    +0.000 F 
BRANCH   2   5
ATOM      5  C   UNL     1      48.606   8.211  14.101  0.00  0.00    +0.000 A 
ATOM      6  C   UNL     1      48.507   9.286  14.998  0.00  0.00    +0.000 A 
ATOM      7  C   UNL     1      48.681   9.088  16.366  0.00  0.00    +0.000 A 
ATOM      8  C   UNL     1      48.969   7.813  16.865  0.00  0.00    +0.000 A 
ATOM      9  C   UNL     1      49.116   6.736  15.984  0.00  0.00    +0.000 A 
ATOM     10  C   UNL     1      48.935   6.941  14.611  0.00  0.00    +0.000 A 
BRANCH   9  11
ATOM     11  O   UNL     1      49.397   5.435  16.339  0.00  0.00    +0.000 OA
BRANCH  11  12
ATOM     12  C   UNL     1      48.467   4.690  17.167  0.00  0.00    +0.000 C 
ATOM     13  C   UNL     1      48.719   3.212  17.482  0.00  0.00    +0.000 C 
ATOM     14  O   UNL     1      47.434   2.817  16.943  0.00  0.00    +0.000 OA
ATOM     15  C   UNL     1      47.172   4.172  16.504  0.00  0.00    +0.000 C 
ENDBRANCH  11  12
ENDBRANCH   9  11
ENDBRANCH   2   5
ENDBRANCH   1   2
BRANCH   1  16
ATOM     16  N   UNL     1      45.849   7.975  13.211  0.00  0.00    +0.000 N 
ATOM     17  H   UNL     1      45.966   8.047  14.221  0.00  0.00    +0.000 HD
BRANCH  16  21
ATOM     18  C   UNL     1      44.570   4.285  11.626  0.00  0.00    +0.000 A 
ATOM     19  C   UNL     1      45.454   4.293  12.704  0.00  0.00    +0.000 A 
ATOM     20  C   UNL     1      45.875   5.509  13.239  0.00  0.00    +0.000 A 
ATOM     21  C   UNL     1      45.402   6.737  12.743  0.00  0.00    +0.000 A 
ATOM     22  C   UNL     1      44.546   6.705  11.635  0.00  0.00    +0.000 A 
ATOM     23  C   UNL     1      44.133   5.492  11.077  0.00  0.00    +0.000 A 
BRANCH  18  25
ATOM     24  N   UNL     1      44.948   2.427  10.114  0.00  0.00    +0.000 N 
ATOM     25  C   UNL     1      44.125   3.008  11.029  0.00  0.00    +0.000 C 
ATOM     26  O   UNL     1      43.065   2.472  11.368  0.00  0.00    +0.000 OA
ATOM     27  H   UNL     1      44.684   1.509   9.783  0.00  0.00    +0.000 HD
ATOM     28  H   UNL     1      45.921   2.697  10.025  0.00  0.00    +0.000 HD
ENDBRANCH  18  25
ENDBRANCH  16  21
ENDBRANCH   1  16
TORSDOF 7
ENDMDL
MODEL 8
REMARK VINA RESULT:    -6.328      3.427      5.466
REMARK INTER + INTRA:          -9.775
REMARK INTER:                  -9.133
REMARK INTRA:                  -0.642
REMARK UNBOUND:                -0.858
REMARK  Name = 
REMARK  7 active torsions:
REMARK  status: ('A' for Active; 'I' for Inactive)
REMARK    1  A    between atoms: C_2  and  C_4
REMARK    2  A    between atoms: C_7  and  N_8
REMARK    3  A    between atoms: N_8  and  C_9
REMARK    4  A    between atoms: C_9  and  C_10
REMARK    5  A    between atoms: C_10  and  C_13
REMARK    6  A    between atoms: C_17  and  O_18
REMARK    7  A    between atoms: O_18  and  C_19
REMARK                            x       y       z     vdW  Elec       q    Type
REMARK                         _______ _______ _______ _____ _____    ______ ____
ROOT
ATOM      1  C   UNL     1      48.451   7.368  13.776  0.00  0.00    +0.000 C 
ENDROOT
BRANCH   1   2
ATOM      2  C   UNL     1      49.075   8.015  15.036  0.00  0.00    +0.000 C 
ATOM      3  F   UNL     1      49.843   9.076  14.642  0.00  0.00    +0.000 F 
ATOM      4  F   UNL     1      48.064   8.554  15.782  0.00  0.00    +0.000 F 
BRANCH   2   5
ATOM      5  C   UNL     1      49.890   6.993  15.817  0.00  0.00    +0.000 A 
ATOM      6  C   UNL     1      51.294   7.008  15.820  0.00  0.00    +0.000 A 
ATOM      7  C   UNL     1      52.012   6.129  16.627  0.00  0.00    +0.000 A 
ATOM      8  C   UNL     1      51.343   5.206  17.438  0.00  0.00    +0.000 A 
ATOM      9  C   UNL     1      49.945   5.144  17.418  0.00  0.00    +0.000 A 
ATOM     10  C   UNL     1      49.229   6.034  16.608  0.00  0.00    +0.000 A 
BRANCH   9  11
ATOM     11  O   UNL     1      49.164   4.289  18.163  0.00  0.00    +0.000 OA
BRANCH  11  12
ATOM     12  C   UNL     1      49.055   2.891  17.790  0.00  0.00    +0.000 C 
ATOM     13  C   UNL     1      50.241   2.164  17.147  0.00  0.00    +0.000 C 
ATOM     14  O   UNL     1      49.459   1.789  15.988  0.00  0.00    +0.000 OA
ATOM     15  C   UNL     1      48.328   2.556  16.470  0.00  0.00    +0.000 C 
ENDBRANCH  11  12
ENDBRANCH   9  11
ENDBRANCH   2   5
ENDBRANCH   1   2
BRANCH   1  16
ATOM     16  N   UNL     1      46.990   7.491  13.643  0.00  0.00    +0.000 N 
ATOM     17  H   UNL     1      46.512   7.991  14.392  0.00  0.00    +0.000 HD
BRANCH  16  21
ATOM     18  C   UNL     1      44.938   4.311  11.788  0.00  0.00    +0.000 A 
ATOM     19  C   UNL     1      45.788   4.040  12.860  0.00  0.00    +0.000 A 
ATOM     20  C   UNL     1      46.464   5.088  13.484  0.00  0.00    +0.000 A 
ATOM     21  C   UNL     1      46.284   6.424  13.085  0.00  0.00    +0.000 A 
ATOM     22  C   UNL     1      45.456   6.668  11.981  0.00  0.00    +0.000 A 
ATOM     23  C   UNL     1      44.789   5.623  11.335  0.00  0.00    +0.000 A 
BRANCH  18  25
ATOM     24  N   UNL     1      44.942   2.465  10.216  0.00  0.00    +0.000 N 
ATOM     25  C   UNL     1      44.227   3.214  11.098  0.00  0.00    +0.000 C 
ATOM     26  O   UNL     1      43.040   2.966  11.335  0.00  0.00    +0.000 OA
ATOM     27  H   UNL     1      44.476   1.659   9.822  0.00  0.00    +0.000 HD
ATOM     28  H   UNL     1      45.956   2.472  10.209  0.00  0.00    +0.000 HD
ENDBRANCH  18  25
ENDBRANCH  16  21
ENDBRANCH   1  16
TORSDOF 7
ENDMDL
