MODEL 1
REMARK VINA RESULT:    -7.322      0.000      0.000
REMARK INTER + INTRA:          -9.978
REMARK INTER:                  -9.463
REMARK INTRA:                  -0.515
REMARK UNBOUND:                -0.515
REMARK  Name = 
REMARK  5 active torsions:
REMARK  status: ('A' for Active; 'I' for Inactive)
REMARK    1  A    between atoms: C_2  and  C_5
REMARK    2  A    between atoms: C_5  and  N_6
REMARK    3  A    between atoms: C_14  and  C_15
REMARK    4  A    between atoms: C_15  and  C_16
REMARK    5  A    between atoms: C_16  and  N_17
REMARK                            x       y       z     vdW  Elec       q    Type
REMARK                         _______ _______ _______ _____ _____    ______ ____
ROOT
ATOM      1  N   UNL     1      49.237   8.209  12.718  0.00  0.00    +0.000 NA
ATOM      2  C   UNL     1      48.061   8.927  12.177  0.00  0.00    +0.000 C 
ATOM      3  C   UNL     1      46.709   8.596  12.851  0.00  0.00    +0.000 C 
ATOM      4  N   UNL     1      46.489   7.146  12.929  0.00  0.00    +0.000 N 
ATOM      5  C   UNL     1      45.470   6.518  12.238  0.00  0.00    +0.000 A 
ATOM      6  C   UNL     1      44.274   7.162  11.900  0.00  0.00    +0.000 A 
ATOM      7  N   UNL     1      43.239   6.579  11.248  0.00  0.00    +0.000 NA
ATOM      8  C   UNL     1      43.419   5.281  10.950  0.00  0.00    +0.000 A 
ATOM      9  C   UNL     1      44.573   4.581  11.283  0.00  0.00    +0.000 A 
ATOM     10  N   UNL     1      45.599   5.205  11.923  0.00  0.00    +0.000 NA
ATOM     11  C   UNL     1      47.627   6.344  13.404  0.00  0.00    +0.000 C 
ATOM     12  C   UNL     1      48.939   6.755  12.697  0.00  0.00    +0.000 C 
ENDROOT
BRANCH   1  13
ATOM     13  C   UNL     1      49.618   8.666  14.083  0.00  0.00    +0.000 C 
BRANCH  13  15
ATOM     14  F   UNL     1      51.459   9.067  15.612  0.00  0.00    +0.000 F 
ATOM     15  C   UNL     1      50.978   8.219  14.679  0.00  0.00    +0.000 C 
ATOM     16  F   UNL     1      51.915   8.108  13.709  0.00  0.00    +0.000 F 
ATOM     17  F   UNL     1      50.855   7.002  15.263  0.00  0.00    +0.000 F 
ENDBRANCH  13  15
ENDBRANCH   1  13
BRANCH   9  18
ATOM     18  C   UNL     1      44.772   3.112  10.989  0.00  0.00    +0.000 C 
BRANCH  18  19
ATOM     19  C   UNL     1      44.348   2.695   9.581  0.00  0.00    +0.000 C 
BRANCH  19  20
ATOM     20  N   UNL     1      45.014   3.479   8.540  0.00  0.00    +0.000 N 
ATOM     21  C   UNL     1      45.993   2.718   7.858  0.00  0.00    +0.000 A 
ATOM     22  C   UNL     1      46.707   3.323   6.845  0.00  0.00    +0.000 A 
ATOM     23  C   UNL     1      47.637   2.541   6.191  0.00  0.00    +0.000 A 
ATOM     24  N   UNL     1      47.875   1.255   6.497  0.00  0.00    +0.000 NA
ATOM     25  C   UNL     1      47.121   0.758   7.485  0.00  0.00    +0.000 A 
ATOM     26  N   UNL     1      46.187   1.424   8.179  0.00  0.00    +0.000 NA
ATOM     27  H   UNL     1      45.453   4.322   8.903  0.00  0.00    +0.000 HD
ENDBRANCH  19  20
ENDBRANCH  18  19
ENDBRANCH   9  18
TORSDOF 5
ENDMDL
MODEL 2
REMARK VINA RESULT:    -6.976      1.523      2.258
REMARK INTER + INTRA:          -9.530
REMARK INTER:                  -8.985
REMARK INTRA:                  -0.546
REMARK UNBOUND:                -0.515
REMARK  Name = 
REMARK  5 active torsions:
REMARK  status: ('A' for Active; 'I' for Inactive)
REMARK    1  A    between atoms: C_2  and  C_5
REMARK    2  A    between atoms: C_5  and  N_6
REMARK    3  A    between atoms: C_14  and  C_15
REMARK    4  A    between atoms: C_15  and  C_16
REMARK    5  A    between atoms: C_16  and  N_17
REMARK                            x       y       z     vdW  Elec       q    Type
REMARK                         _______ _______ _______ _____ _____    ______ ____
ROOT
ATOM      1  N   UNL     1      49.109   9.467  13.332  0.00  0.00    +0.000 NA
ATOM      2  C   UNL     1      48.787   8.531  14.432  0.00  0.00    +0.000 C 
ATOM      3  C   UNL     1      48.945   7.030  14.097  0.00  0.00    +0.000 C 
ATOM      4  N   UNL     1      48.252   6.682  12.849  0.00  0.00    +0.000 N 
ATOM      5  C   UNL     1      47.165   5.828  12.823  0.00  0.00    +0.000 A 
ATOM      6  C   UNL     1      46.976   4.814  13.770  0.00  0.00    +0.000 A 
ATOM      7  N   UNL     1      45.942   3.938  13.769  0.00  0.00    +0.000 NA
ATOM      8  C   UNL     1      45.079   4.085  12.748  0.00  0.00    +0.000 A 
ATOM      9  C   UNL     1      45.229   5.055  11.764  0.00  0.00    +0.000 A 
ATOM     10  N   UNL     1      46.272   5.929  11.809  0.00  0.00    +0.000 NA
ATOM     11  C   UNL     1      48.469   7.593  11.715  0.00  0.00    +0.000 C 
ATOM     12  C   UNL     1      48.316   9.070  12.142  0.00  0.00    +0.000 C 
ENDROOT
BRANCH   1  13
ATOM     13  C   UNL     1      50.564   9.521  13.022  0.00  0.00    +0.000 C 
BRANCH  13  15
ATOM     14  F   UNL     1      52.260  11.251  13.152  0.00  0.00    +0.000 F 
ATOM     15  C   UNL     1      51.489  10.419  13.883  0.00  0.00    +0.000 C 
ATOM     16  F   UNL     1      52.314   9.666  14.647  0.00  0.00    +0.000 F 
ATOM     17  F   UNL     1      50.749  11.185  14.722  0.00  0.00    +0.000 F 
ENDBRANCH  13  15
ENDBRANCH   1  13
BRANCH   9  18
ATOM     18  C   UNL     1      44.289   5.206  10.590  0.00  0.00    +0.000 C 
BRANCH  18  19
ATOM     19  C   UNL     1      44.384   4.075   9.567  0.00  0.00    +0.000 C 
BRANCH  19  20
ATOM     20  N   UNL     1      45.183   4.444   8.397  0.00  0.00    +0.000 N 
ATOM     21  C   UNL     1      45.911   3.340   7.893  0.00  0.00    +0.000 A 
ATOM     22  C   UNL     1      46.714   3.532   6.788  0.00  0.00    +0.000 A 
ATOM     23  C   UNL     1      47.390   2.427   6.314  0.00  0.00    +0.000 A 
ATOM     24  N   UNL     1      47.309   1.209   6.875  0.00  0.00    +0.000 NA
ATOM     25  C   UNL     1      46.495   1.124   7.933  0.00  0.00    +0.000 A 
ATOM     26  N   UNL     1      45.788   2.129   8.469  0.00  0.00    +0.000 NA
ATOM     27  H   UNL     1      45.834   5.201   8.590  0.00  0.00    +0.000 HD
ENDBRANCH  19  20
ENDBRANCH  18  19
ENDBRANCH   9  18
TORSDOF 5
ENDMDL
MODEL 3
REMARK VINA RESULT:    -6.798      4.651      8.033
REMARK INTER + INTRA:          -9.301
REMARK INTER:                  -8.513
REMARK INTRA:                  -0.788
REMARK UNBOUND:                -0.515
REMARK  Name = 
REMARK  5 active torsions:
REMARK  status: ('A' for Active; 'I' for Inactive)
REMARK    1  A    between atoms: C_2  and  C_5
REMARK    2  A    between atoms: C_5  and  N_6
REMARK    3  A    between atoms: C_14  and  C_15
REMARK    4  A    between atoms: C_15  and  C_16
REMARK    5  A    between atoms: C_16  and  N_17
REMARK                            x       y       z     vdW  Elec       q    Type
REMARK                         _______ _______ _______ _____ _____    ______ ____
ROOT
ATOM      1  N   UNL     1      44.852   4.907  12.516  0.00  0.00    +0.000 NA
ATOM      2  C   UNL     1      45.143   6.237  11.939  0.00  0.00    +0.000 C 
ATOM      3  C   UNL     1      46.640   6.553  11.711  0.00  0.00    +0.000 C 
ATOM      4  N   UNL     1      47.435   6.283  12.917  0.00  0.00    +0.000 N 
ATOM      5  C   UNL     1      48.078   7.288  13.616  0.00  0.00    +0.000 A 
ATOM      6  C   UNL     1      48.522   8.468  13.009  0.00  0.00    +0.000 A 
ATOM      7  N   UNL     1      49.178   9.467  13.647  0.00  0.00    +0.000 NA
ATOM      8  C   UNL     1      49.414   9.244  14.951  0.00  0.00    +0.000 A 
ATOM      9  C   UNL     1      49.021   8.081  15.603  0.00  0.00    +0.000 A 
ATOM     10  N   UNL     1      48.347   7.107  14.932  0.00  0.00    +0.000 NA
ATOM     11  C   UNL     1      47.170   5.004  13.592  0.00  0.00    +0.000 C 
ATOM     12  C   UNL     1      45.653   4.758  13.757  0.00  0.00    +0.000 C 
ENDROOT
BRANCH   1  13
ATOM     13  C   UNL     1      45.112   3.792  11.565  0.00  0.00    +0.000 C 
BRANCH  13  15
ATOM     14  F   UNL     1      42.973   2.652  11.447  0.00  0.00    +0.000 F 
ATOM     15  C   UNL     1      43.942   3.236  10.712  0.00  0.00    +0.000 C 
ATOM     16  F   UNL     1      44.389   2.317   9.825  0.00  0.00    +0.000 F 
ATOM     17  F   UNL     1      43.365   4.236  10.002  0.00  0.00    +0.000 F 
ENDBRANCH  13  15
ENDBRANCH   1  13
BRANCH   9  18
ATOM     18  C   UNL     1      49.313   7.800  17.059  0.00  0.00    +0.000 C 
BRANCH  18  19
ATOM     19  C   UNL     1      48.849   6.424  17.534  0.00  0.00    +0.000 C 
BRANCH  19  20
ATOM     20  N   UNL     1      49.967   5.535  17.853  0.00  0.00    +0.000 N 
ATOM     21  C   UNL     1      49.758   4.230  17.346  0.00  0.00    +0.000 A 
ATOM     22  C   UNL     1      50.729   3.276  17.568  0.00  0.00    +0.000 A 
ATOM     23  C   UNL     1      50.498   2.023  17.040  0.00  0.00    +0.000 A 
ATOM     24  N   UNL     1      49.393   1.700  16.346  0.00  0.00    +0.000 NA
ATOM     25  C   UNL     1      48.519   2.699  16.174  0.00  0.00    +0.000 A 
ATOM     26  N   UNL     1      48.648   3.950  16.636  0.00  0.00    +0.000 NA
ATOM     27  H   UNL     1      50.144   5.470  18.853  0.00  0.00    +0.000 HD
ENDBRANCH  19  20
ENDBRANCH  18  19
ENDBRANCH   9  18
TORSDOF 5
ENDMDL
MODEL 4
REMARK VINA RESULT:    -6.151      5.801      8.760
REMARK INTER + INTRA:          -8.464
REMARK INTER:                  -8.003
REMARK INTRA:                  -0.461
REMARK UNBOUND:                -0.515
REMARK  Name = 
REMARK  5 active torsions:
REMARK  status: ('A' for Active; 'I' for Inactive)
REMARK    1  A    between atoms: C_2  and  C_5
REMARK    2  A    between atoms: C_5  and  N_6
REMARK    3  A    between atoms: C_14  and  C_15
REMARK    4  A    between atoms: C_15  and  C_16
REMARK    5  A    between atoms: C_16  and  N_17
REMARK                            x       y       z     vdW  Elec       q    Type
REMARK                         _______ _______ _______ _____ _____    ______ ____
ROOT
ATOM      1  N   UNL     1      44.713   5.824  12.346  0.00  0.00    +0.000 NA
ATOM      2  C   UNL     1      45.357   7.099  12.733  0.00  0.00    +0.000 C 
ATOM      3  C   UNL     1      46.903   7.079  12.772  0.00  0.00    +0.000 C 
ATOM      4  N   UNL     1      47.406   5.941  13.552  0.00  0.00    +0.000 N 
ATOM      5  C   UNL     1      48.103   6.110  14.735  0.00  0.00    +0.000 A 
ATOM      6  C   UNL     1      48.871   7.248  15.006  0.00  0.00    +0.000 A 
ATOM      7  N   UNL     1      49.591   7.444  16.137  0.00  0.00    +0.000 NA
ATOM      8  C   UNL     1      49.546   6.429  17.017  0.00  0.00    +0.000 A 
ATOM      9  C   UNL     1      48.824   5.263  16.792  0.00  0.00    +0.000 A 
ATOM     10  N   UNL     1      48.098   5.110  15.650  0.00  0.00    +0.000 NA
ATOM     11  C   UNL     1      46.781   4.640  13.275  0.00  0.00    +0.000 C 
ATOM     12  C   UNL     1      45.240   4.754  13.230  0.00  0.00    +0.000 C 
ENDROOT
BRANCH   1  13
ATOM     13  C   UNL     1      44.908   5.487  10.909  0.00  0.00    +0.000 C 
BRANCH  13  15
ATOM     14  F   UNL     1      43.841   4.438   9.000  0.00  0.00    +0.000 F 
ATOM     15  C   UNL     1      44.148   4.279  10.304  0.00  0.00    +0.000 C 
ATOM     16  F   UNL     1      42.990   4.059  10.969  0.00  0.00    +0.000 F 
ATOM     17  F   UNL     1      44.896   3.154  10.410  0.00  0.00    +0.000 F 
ENDBRANCH  13  15
ENDBRANCH   1  13
BRANCH   9  18
ATOM     18  C   UNL     1      48.797   4.099  17.755  0.00  0.00    +0.000 C 
BRANCH  18  19
ATOM     19  C   UNL     1      49.935   3.099  17.555  0.00  0.00    +0.000 C 
BRANCH  19  20
ATOM     20  N   UNL     1      51.180   3.533  18.190  0.00  0.00    +0.000 N 
ATOM     21  C   UNL     1      52.157   2.510  18.178  0.00  0.00    +0.000 A 
ATOM     22  C   UNL     1      53.388   2.770  18.743  0.00  0.00    +0.000 A 
ATOM     23  C   UNL     1      54.320   1.754  18.692  0.00  0.00    +0.000 A 
ATOM     24  N   UNL     1      54.082   0.553  18.140  0.00  0.00    +0.000 NA
ATOM     25  C   UNL     1      52.863   0.405  17.608  0.00  0.00    +0.000 A 
ATOM     26  N   UNL     1      51.888   1.325  17.596  0.00  0.00    +0.000 NA
ATOM     27  H   UNL     1      51.044   3.841  19.150  0.00  0.00    +0.000 HD
ENDBRANCH  19  20
ENDBRANCH  18  19
ENDBRANCH   9  18
TORSDOF 5
ENDMDL
MODEL 5
REMARK VINA RESULT:    -6.033      4.254      7.677
REMARK INTER + INTRA:          -8.312
REMARK INTER:                  -7.905
REMARK INTRA:                  -0.407
REMARK UNBOUND:                -0.515
REMARK  Name = 
REMARK  5 active torsions:
REMARK  status: ('A' for Active; 'I' for Inactive)
REMARK    1  A    between atoms: C_2  and  C_5
REMARK    2  A    between atoms: C_5  and  N_6
REMARK    3  A    between atoms: C_14  and  C_15
REMARK    4  A    between atoms: C_15  and  C_16
REMARK    5  A    between atoms: C_16  and  N_17
REMARK                            x       y       z     vdW  Elec       q    Type
REMARK                         _______ _______ _______ _____ _____    ______ ____
ROOT
ATOM      1  N   UNL     1      46.503   2.359   7.846  0.00  0.00    +0.000 NA
ATOM      2  C   UNL     1      45.561   1.748   8.809  0.00  0.00    +0.000 C 
ATOM      3  C   UNL     1      44.256   2.539   9.059  0.00  0.00    +0.000 C 
ATOM      4  N   UNL     1      44.533   3.948   9.368  0.00  0.00    +0.000 N 
ATOM      5  C   UNL     1      44.246   4.501  10.603  0.00  0.00    +0.000 A 
ATOM      6  C   UNL     1      43.216   4.028  11.424  0.00  0.00    +0.000 A 
ATOM      7  N   UNL     1      42.882   4.555  12.627  0.00  0.00    +0.000 NA
ATOM      8  C   UNL     1      43.611   5.622  12.998  0.00  0.00    +0.000 A 
ATOM      9  C   UNL     1      44.628   6.153  12.213  0.00  0.00    +0.000 A 
ATOM     10  N   UNL     1      44.946   5.585  11.017  0.00  0.00    +0.000 NA
ATOM     11  C   UNL     1      45.504   4.622   8.495  0.00  0.00    +0.000 C 
ATOM     12  C   UNL     1      46.765   3.755   8.280  0.00  0.00    +0.000 C 
ENDROOT
BRANCH   1  13
ATOM     13  C   UNL     1      46.011   2.310   6.442  0.00  0.00    +0.000 C 
BRANCH  13  15
ATOM     14  F   UNL     1      48.159   2.354   5.314  0.00  0.00    +0.000 F 
ATOM     15  C   UNL     1      46.909   2.863   5.305  0.00  0.00    +0.000 C 
ATOM     16  F   UNL     1      47.017   4.209   5.389  0.00  0.00    +0.000 F 
ATOM     17  F   UNL     1      46.364   2.576   4.097  0.00  0.00    +0.000 F 
ENDBRANCH  13  15
ENDBRANCH   1  13
BRANCH   9  18
ATOM     18  C   UNL     1      45.428   7.375  12.599  0.00  0.00    +0.000 C 
BRANCH  18  19
ATOM     19  C   UNL     1      46.934   7.130  12.691  0.00  0.00    +0.000 C 
BRANCH  19  20
ATOM     20  N   UNL     1      47.410   7.078  14.073  0.00  0.00    +0.000 N 
ATOM     21  C   UNL     1      47.488   5.748  14.550  0.00  0.00    +0.000 A 
ATOM     22  C   UNL     1      47.922   5.537  15.842  0.00  0.00    +0.000 A 
ATOM     23  C   UNL     1      48.003   4.225  16.261  0.00  0.00    +0.000 A 
ATOM     24  N   UNL     1      47.678   3.175  15.488  0.00  0.00    +0.000 NA
ATOM     25  C   UNL     1      47.280   3.485  14.249  0.00  0.00    +0.000 A 
ATOM     26  N   UNL     1      47.173   4.720  13.738  0.00  0.00    +0.000 NA
ATOM     27  H   UNL     1      46.828   7.617  14.710  0.00  0.00    +0.000 HD
ENDBRANCH  19  20
ENDBRANCH  18  19
ENDBRANCH   9  18
TORSDOF 5
ENDMDL
MODEL 6
REMARK VINA RESULT:    -5.973      2.347      3.485
REMARK INTER + INTRA:          -8.234
REMARK INTER:                  -7.636
REMARK INTRA:                  -0.599
REMARK UNBOUND:                -0.515
REMARK  Name = 
REMARK  5 active torsions:
REMARK  status: ('A' for Active; 'I' for Inactive)
REMARK    1  A    between atoms: C_2  and  C_5
REMARK    2  A    between atoms: C_5  and  N_6
REMARK    3  A    between atoms: C_14  and  C_15
REMARK    4  A    between atoms: C_15  and  C_16
REMARK    5  A    between atoms: C_16  and  N_17
REMARK                            x       y       z     vdW  Elec       q    Type
REMARK                         _______ _______ _______ _____ _____    ______ ____
ROOT
ATOM      1  N   UNL     1      49.053   8.166  17.337  0.00  0.00    +0.000 NA
ATOM      2  C   UNL     1      48.516   6.820  17.634  0.00  0.00    +0.000 C 
ATOM      3  C   UNL     1      48.879   5.717  16.613  0.00  0.00    +0.000 C 
ATOM      4  N   UNL     1      48.588   6.141  15.238  0.00  0.00    +0.000 N 
ATOM      5  C   UNL     1      47.622   5.524  14.464  0.00  0.00    +0.000 A 
ATOM      6  C   UNL     1      47.260   4.183  14.634  0.00  0.00    +0.000 A 
ATOM      7  N   UNL     1      46.339   3.529  13.884  0.00  0.00    +0.000 NA
ATOM      8  C   UNL     1      45.783   4.265  12.906  0.00  0.00    +0.000 A 
ATOM      9  C   UNL     1      46.122   5.592  12.672  0.00  0.00    +0.000 A 
ATOM     10  N   UNL     1      47.039   6.220  13.458  0.00  0.00    +0.000 NA
ATOM     11  C   UNL     1      49.036   7.493  14.870  0.00  0.00    +0.000 C 
ATOM     12  C   UNL     1      48.655   8.527  15.953  0.00  0.00    +0.000 C 
ENDROOT
BRANCH   1  13
ATOM     13  C   UNL     1      50.529   8.255  17.518  0.00  0.00    +0.000 C 
BRANCH  13  15
ATOM     14  F   UNL     1      51.417  10.159  16.304  0.00  0.00    +0.000 F 
ATOM     15  C   UNL     1      51.207   9.649  17.535  0.00  0.00    +0.000 C 
ATOM     16  F   UNL     1      52.405   9.592  18.161  0.00  0.00    +0.000 F 
ATOM     17  F   UNL     1      50.438  10.535  18.214  0.00  0.00    +0.000 F 
ENDBRANCH  13  15
ENDBRANCH   1  13
BRANCH   9  18
ATOM     18  C   UNL     1      45.534   6.419  11.552  0.00  0.00    +0.000 C 
BRANCH  18  19
ATOM     19  C   UNL     1      44.809   5.598  10.486  0.00  0.00    +0.000 C 
BRANCH  19  20
ATOM     20  N   UNL     1      45.560   5.518   9.233  0.00  0.00    +0.000 N 
ATOM     21  C   UNL     1      45.703   4.180   8.795  0.00  0.00    +0.000 A 
ATOM     22  C   UNL     1      46.391   3.942   7.623  0.00  0.00    +0.000 A 
ATOM     23  C   UNL     1      46.490   2.627   7.219  0.00  0.00    +0.000 A 
ATOM     24  N   UNL     1      45.967   1.597   7.904  0.00  0.00    +0.000 NA
ATOM     25  C   UNL     1      45.308   1.933   9.020  0.00  0.00    +0.000 A 
ATOM     26  N   UNL     1      45.146   3.175   9.498  0.00  0.00    +0.000 NA
ATOM     27  H   UNL     1      46.485   5.937   9.302  0.00  0.00    +0.000 HD
ENDBRANCH  19  20
ENDBRANCH  18  19
ENDBRANCH   9  18
TORSDOF 5
ENDMDL
MODEL 7
REMARK VINA RESULT:    -5.767      4.605      8.655
REMARK INTER + INTRA:          -7.967
REMARK INTER:                  -7.148
REMARK INTRA:                  -0.819
REMARK UNBOUND:                -0.515
REMARK  Name = 
REMARK  5 active torsions:
REMARK  status: ('A' for Active; 'I' for Inactive)
REMARK    1  A    between atoms: C_2  and  C_5
REMARK    2  A    between atoms: C_5  and  N_6
REMARK    3  A    between atoms: C_14  and  C_15
REMARK    4  A    between atoms: C_15  and  C_16
REMARK    5  A    between atoms: C_16  and  N_17
REMARK                            x       y       z     vdW  Elec       q    Type
REMARK                         _______ _______ _______ _____ _____    ______ ____
ROOT
ATOM      1  N   UNL     1      44.836   4.869  12.767  0.00  0.00    +0.000 NA
ATOM      2  C   UNL     1      44.550   6.216  12.225  0.00  0.00    +0.000 C 
ATOM      3  C   UNL     1      45.732   6.912  11.511  0.00  0.00    +0.000 C 
ATOM      4  N   UNL     1      46.947   6.890  12.336  0.00  0.00    +0.000 N 
ATOM      5  C   UNL     1      47.518   8.045  12.837  0.00  0.00    +0.000 A 
ATOM      6  C   UNL     1      47.397   9.287  12.203  0.00  0.00    +0.000 A 
ATOM      7  N   UNL     1      47.960  10.438  12.643  0.00  0.00    +0.000 NA
ATOM      8  C   UNL     1      48.697  10.315  13.761  0.00  0.00    +0.000 A 
ATOM      9  C   UNL     1      48.875   9.105  14.420  0.00  0.00    +0.000 A 
ATOM     10  N   UNL     1      48.279   7.972  13.957  0.00  0.00    +0.000 NA
ATOM     11  C   UNL     1      47.279   5.602  12.963  0.00  0.00    +0.000 C 
ATOM     12  C   UNL     1      46.039   4.966  13.632  0.00  0.00    +0.000 C 
ENDROOT
BRANCH   1  13
ATOM     13  C   UNL     1      45.013   3.842  11.704  0.00  0.00    +0.000 C 
BRANCH  13  15
ATOM     14  F   UNL     1      42.622   3.562  11.400  0.00  0.00    +0.000 F 
ATOM     15  C   UNL     1      43.818   3.497  10.778  0.00  0.00    +0.000 C 
ATOM     16  F   UNL     1      43.946   2.248  10.274  0.00  0.00    +0.000 F 
ATOM     17  F   UNL     1      43.776   4.354   9.730  0.00  0.00    +0.000 F 
ENDBRANCH  13  15
ENDBRANCH   1  13
BRANCH   9  18
ATOM     18  C   UNL     1      49.732   8.944  15.654  0.00  0.00    +0.000 C 
BRANCH  18  19
ATOM     19  C   UNL     1      48.946   8.594  16.917  0.00  0.00    +0.000 C 
BRANCH  19  20
ATOM     20  N   UNL     1      48.292   7.288  16.826  0.00  0.00    +0.000 N 
ATOM     21  C   UNL     1      48.744   6.405  17.835  0.00  0.00    +0.000 A 
ATOM     22  C   UNL     1      48.216   5.132  17.879  0.00  0.00    +0.000 A 
ATOM     23  C   UNL     1      48.668   4.309  18.890  0.00  0.00    +0.000 A 
ATOM     24  N   UNL     1      49.580   4.684  19.803  0.00  0.00    +0.000 NA
ATOM     25  C   UNL     1      50.020   5.942  19.682  0.00  0.00    +0.000 A 
ATOM     26  N   UNL     1      49.644   6.824  18.746  0.00  0.00    +0.000 NA
ATOM     27  H   UNL     1      48.427   6.843  15.921  0.00  0.00    +0.000 HD
ENDBRANCH  19  20
ENDBRANCH  18  19
ENDBRANCH   9  18
TORSDOF 5
ENDMDL
MODEL 8
REMARK VINA RESULT:    -5.487      4.932      9.571
REMARK INTER + INTRA:          -7.606
REMARK INTER:                  -6.918
REMARK INTRA:                  -0.687
REMARK UNBOUND:                -0.515
REMARK  Name = 
REMARK  5 active torsions:
REMARK  status: ('A' for Active; 'I' for Inactive)
REMARK    1  A    between atoms: C_2  and  C_5
REMARK    2  A    between atoms: C_5  and  N_6
REMARK    3  A    between atoms: C_14  and  C_15
REMARK    4  A    between atoms: C_15  and  C_16
REMARK    5  A    between atoms: C_16  and  N_17
REMARK                            x       y       z     vdW  Elec       q    Type
REMARK                         _______ _______ _______ _____ _____    ______ ____
ROOT
ATOM      1  N   UNL     1      44.852   6.123  12.199  0.00  0.00    +0.000 NA
ATOM      2  C   UNL     1      45.710   7.328  12.155  0.00  0.00    +0.000 C 
ATOM      3  C   UNL     1      47.233   7.060  12.108  0.00  0.00    +0.000 C 
ATOM      4  N   UNL     1      47.646   6.120  13.158  0.00  0.00    +0.000 N 
ATOM      5  C   UNL     1      48.479   6.494  14.195  0.00  0.00    +0.000 A 
ATOM      6  C   UNL     1      49.427   7.517  14.075  0.00  0.00    +0.000 A 
ATOM      7  N   UNL     1      50.282   7.899  15.054  0.00  0.00    +0.000 NA
ATOM      8  C   UNL     1      50.184   7.195  16.195  0.00  0.00    +0.000 A 
ATOM      9  C   UNL     1      49.282   6.152  16.365  0.00  0.00    +0.000 A 
ATOM     10  N   UNL     1      48.427   5.808  15.363  0.00  0.00    +0.000 NA
ATOM     11  C   UNL     1      46.813   4.917  13.312  0.00  0.00    +0.000 C 
ATOM     12  C   UNL     1      45.309   5.272  13.326  0.00  0.00    +0.000 C 
ENDROOT
BRANCH   1  13
ATOM     13  C   UNL     1      44.845   5.368  10.916  0.00  0.00    +0.000 C 
BRANCH  13  15
ATOM     14  F   UNL     1      42.719   4.294  11.372  0.00  0.00    +0.000 F 
ATOM     15  C   UNL     1      43.914   4.138  10.765  0.00  0.00    +0.000 C 
ATOM     16  F   UNL     1      44.492   3.031  11.286  0.00  0.00    +0.000 F 
ATOM     17  F   UNL     1      43.673   3.891   9.455  0.00  0.00    +0.000 F 
ENDBRANCH  13  15
ENDBRANCH   1  13
BRANCH   9  18
ATOM     18  C   UNL     1      49.188   5.326  17.627  0.00  0.00    +0.000 C 
BRANCH  18  19
ATOM     19  C   UNL     1      49.222   6.149  18.914  0.00  0.00    +0.000 C 
BRANCH  19  20
ATOM     20  N   UNL     1      47.985   6.900  19.132  0.00  0.00    +0.000 N 
ATOM     21  C   UNL     1      48.242   8.266  19.399  0.00  0.00    +0.000 A 
ATOM     22  C   UNL     1      47.171   9.104  19.627  0.00  0.00    +0.000 A 
ATOM     23  C   UNL     1      47.463  10.431  19.863  0.00  0.00    +0.000 A 
ATOM     24  N   UNL     1      48.712  10.926  19.888  0.00  0.00    +0.000 NA
ATOM     25  C   UNL     1      49.680  10.034  19.644  0.00  0.00    +0.000 A 
ATOM     26  N   UNL     1      49.508   8.728  19.396  0.00  0.00    +0.000 NA
ATOM     27  H   UNL     1      47.424   6.521  19.892  0.00  0.00    +0.000 HD
ENDBRANCH  19  20
ENDBRANCH  18  19
ENDBRANCH   9  18
TORSDOF 5
ENDMDL
MODEL 9
REMARK VINA RESULT:    -5.295      4.630      8.298
REMARK INTER + INTRA:          -7.358
REMARK INTER:                  -6.220
REMARK INTRA:                  -1.138
REMARK UNBOUND:                -0.515
REMARK  Name = 
REMARK  5 active torsions:
REMARK  status: ('A' for Active; 'I' for Inactive)
REMARK    1  A    between atoms: C_2  and  C_5
REMARK    2  A    between atoms: C_5  and  N_6
REMARK    3  A    between atoms: C_14  and  C_15
REMARK    4  A    between atoms: C_15  and  C_16
REMARK    5  A    between atoms: C_16  and  N_17
REMARK                            x       y       z     vdW  Elec       q    Type
REMARK                         _______ _______ _______ _____ _____    ______ ____
ROOT
ATOM      1  N   UNL     1      47.059   7.684  12.297  0.00  0.00    +0.000 NA
ATOM      2  C   UNL     1      48.308   8.404  11.967  0.00  0.00    +0.000 C 
ATOM      3  C   UNL     1      49.618   7.690  12.376  0.00  0.00    +0.000 C 
ATOM      4  N   UNL     1      49.578   7.258  13.779  0.00  0.00    +0.000 N 
ATOM      5  C   UNL     1      50.423   7.788  14.737  0.00  0.00    +0.000 A 
ATOM      6  C   UNL     1      51.692   8.294  14.432  0.00  0.00    +0.000 A 
ATOM      7  N   UNL     1      52.563   8.797  15.339  0.00  0.00    +0.000 NA
ATOM      8  C   UNL     1      52.134   8.761  16.613  0.00  0.00    +0.000 A 
ATOM      9  C   UNL     1      50.897   8.247  16.980  0.00  0.00    +0.000 A 
ATOM     10  N   UNL     1      50.041   7.765  16.038  0.00  0.00    +0.000 NA
ATOM     11  C   UNL     1      48.346   6.582  14.213  0.00  0.00    +0.000 C 
ATOM     12  C   UNL     1      47.088   7.348  13.743  0.00  0.00    +0.000 C 
ENDROOT
BRANCH   1  13
ATOM     13  C   UNL     1      46.851   6.469  11.462  0.00  0.00    +0.000 C 
BRANCH  13  15
ATOM     14  F   UNL     1      44.520   7.065  11.145  0.00  0.00    +0.000 F 
ATOM     15  C   UNL     1      45.407   6.050  11.080  0.00  0.00    +0.000 C 
ATOM     16  F   UNL     1      44.961   5.068  11.897  0.00  0.00    +0.000 F 
ATOM     17  F   UNL     1      45.379   5.568   9.814  0.00  0.00    +0.000 F 
ENDBRANCH  13  15
ENDBRANCH   1  13
BRANCH   9  18
ATOM     18  C   UNL     1      50.418   8.164  18.412  0.00  0.00    +0.000 C 
BRANCH  18  19
ATOM     19  C   UNL     1      49.479   6.992  18.688  0.00  0.00    +0.000 C 
BRANCH  19  20
ATOM     20  N   UNL     1      50.102   5.697  18.414  0.00  0.00    +0.000 N 
ATOM     21  C   UNL     1      49.178   4.777  17.864  0.00  0.00    +0.000 A 
ATOM     22  C   UNL     1      49.619   3.509  17.551  0.00  0.00    +0.000 A 
ATOM     23  C   UNL     1      48.693   2.649  16.998  0.00  0.00    +0.000 A 
ATOM     24  N   UNL     1      47.413   2.984  16.766  0.00  0.00    +0.000 NA
ATOM     25  C   UNL     1      47.087   4.241  17.092  0.00  0.00    +0.000 A 
ATOM     26  N   UNL     1      47.907   5.157  17.626  0.00  0.00    +0.000 NA
ATOM     27  H   UNL     1      50.521   5.279  19.242  0.00  0.00    +0.000 HD
ENDBRANCH  19  20
ENDBRANCH  18  19
ENDBRANCH   9  18
TORSDOF 5
ENDMDL
