MODEL 1
REMARK VINA RESULT:    -7.929      0.000      0.000
REMARK INTER + INTRA:         -10.703
REMARK INTER:                 -10.478
REMARK INTRA:                  -0.225
REMARK UNBOUND:                -0.225
REMARK  Name = 
REMARK  6 active torsions:
REMARK  status: ('A' for Active; 'I' for Inactive)
REMARK    1  A    between atoms: N_1  and  C_2
REMARK    2  A    between atoms: C_2  and  C_3
REMARK    3  A    between atoms: C_6  and  O_7
REMARK    4  A    between atoms: O_7  and  C_8
REMARK    5  A    between atoms: C_8  and  C_9
REMARK    6  A    between atoms: C_12  and  C_13
REMARK                            x       y       z     vdW  Elec       q    Type
REMARK                         _______ _______ _______ _____ _____    ______ ____
ROOT
ATOM      1  C   UNL     1      43.973   4.761  10.218  0.00  0.00    +0.000 C 
ENDROOT
BRANCH   1   2
ATOM      2  C   UNL     1      44.867   4.631  11.427  0.00  0.00    +0.000 A 
ATOM      3  C   UNL     1      45.008   3.424  12.114  0.00  0.00    +0.000 A 
ATOM      4  N   UNL     1      45.764   3.285  13.236  0.00  0.00    +0.000 NA
ATOM      5  C   UNL     1      46.380   4.426  13.653  0.00  0.00    +0.000 A 
ATOM      6  C   UNL     1      46.242   5.633  12.986  0.00  0.00    +0.000 A 
ATOM      7  N   UNL     1      45.481   5.762  11.870  0.00  0.00    +0.000 NA
BRANCH   5   8
ATOM      8  C   UNL     1      47.223   4.362  14.880  0.00  0.00    +0.000 C 
ATOM      9  N   UNL     1      47.562   5.558  15.449  0.00  0.00    +0.000 N 
ATOM     10  O   UNL     1      47.595   3.298  15.358  0.00  0.00    +0.000 OA
ATOM     11  H   UNL     1      47.249   6.431  15.040  0.00  0.00    +0.000 HD
ATOM     12  H   UNL     1      48.138   5.564  16.278  0.00  0.00    +0.000 HD
ENDBRANCH   5   8
ENDBRANCH   1   2
BRANCH   1  13
ATOM     13  O   UNL     1      43.780   3.496   9.581  0.00  0.00    +0.000 OA
BRANCH  13  17
ATOM     14  C   UNL     1      47.030   2.345   7.210  0.00  0.00    +0.000 A 
ATOM     15  C   UNL     1      46.399   1.383   8.011  0.00  0.00    +0.000 A 
ATOM     16  C   UNL     1      45.304   1.720   8.813  0.00  0.00    +0.000 A 
ATOM     17  C   UNL     1      44.823   3.029   8.827  0.00  0.00    +0.000 A 
ATOM     18  C   UNL     1      45.433   3.987   8.013  0.00  0.00    +0.000 A 
ATOM     19  C   UNL     1      46.528   3.651   7.211  0.00  0.00    +0.000 A 
BRANCH  14  20
ATOM     20  C   UNL     1      48.251   1.984   6.403  0.00  0.00    +0.000 C 
BRANCH  20  21
ATOM     21  N   UNL     1      48.226   2.595   5.079  0.00  0.00    +0.000 NA
ATOM     22  H   UNL     1      47.509   2.139   4.518  0.00  0.00    +0.000 HD
ATOM     23  H   UNL     1      49.115   2.410   4.616  0.00  0.00    +0.000 HD
ENDBRANCH  20  21
ENDBRANCH  14  20
ENDBRANCH  13  17
ENDBRANCH   1  13
TORSDOF 6
ENDMDL
MODEL 2
REMARK VINA RESULT:    -7.537      1.804      2.461
REMARK INTER + INTRA:         -10.185
REMARK INTER:                  -9.710
REMARK INTRA:                  -0.475
REMARK UNBOUND:                -0.225
REMARK  Name = 
REMARK  6 active torsions:
REMARK  status: ('A' for Active; 'I' for Inactive)
REMARK    1  A    between atoms: N_1  and  C_2
REMARK    2  A    between atoms: C_2  and  C_3
REMARK    3  A    between atoms: C_6  and  O_7
REMARK    4  A    between atoms: O_7  and  C_8
REMARK    5  A    between atoms: C_8  and  C_9
REMARK    6  A    between atoms: C_12  and  C_13
REMARK                            x       y       z     vdW  Elec       q    Type
REMARK                         _______ _______ _______ _____ _____    ______ ____
ROOT
ATOM      1  C   UNL     1      43.488   4.591  11.164  0.00  0.00    +0.000 C 
ENDROOT
BRANCH   1   2
ATOM      2  C   UNL     1      44.649   5.238  11.878  0.00  0.00    +0.000 A 
ATOM      3  C   UNL     1      45.048   6.547  11.603  0.00  0.00    +0.000 A 
ATOM      4  N   UNL     1      46.119   7.143  12.191  0.00  0.00    +0.000 NA
ATOM      5  C   UNL     1      46.792   6.358  13.078  0.00  0.00    +0.000 A 
ATOM      6  C   UNL     1      46.414   5.054  13.353  0.00  0.00    +0.000 A 
ATOM      7  N   UNL     1      45.345   4.467  12.758  0.00  0.00    +0.000 NA
BRANCH   5   8
ATOM      8  C   UNL     1      47.985   6.931  13.761  0.00  0.00    +0.000 C 
ATOM      9  N   UNL     1      47.743   7.873  14.723  0.00  0.00    +0.000 N 
ATOM     10  O   UNL     1      49.125   6.582  13.481  0.00  0.00    +0.000 OA
ATOM     11  H   UNL     1      46.795   8.154  14.942  0.00  0.00    +0.000 HD
ATOM     12  H   UNL     1      48.522   8.294  15.208  0.00  0.00    +0.000 HD
ENDBRANCH   5   8
ENDBRANCH   1   2
BRANCH   1  13
ATOM     13  O   UNL     1      43.606   4.739   9.747  0.00  0.00    +0.000 OA
BRANCH  13  17
ATOM     14  C   UNL     1      46.245   2.041   7.941  0.00  0.00    +0.000 A 
ATOM     15  C   UNL     1      46.362   3.407   7.645  0.00  0.00    +0.000 A 
ATOM     16  C   UNL     1      45.508   4.345   8.233  0.00  0.00    +0.000 A 
ATOM     17  C   UNL     1      44.520   3.931   9.125  0.00  0.00    +0.000 A 
ATOM     18  C   UNL     1      44.413   2.574   9.441  0.00  0.00    +0.000 A 
ATOM     19  C   UNL     1      45.267   1.635   8.854  0.00  0.00    +0.000 A 
BRANCH  14  20
ATOM     20  C   UNL     1      47.128   1.033   7.249  0.00  0.00    +0.000 C 
BRANCH  20  21
ATOM     21  N   UNL     1      46.889  -0.320   7.737  0.00  0.00    +0.000 NA
ATOM     22  H   UNL     1      46.009  -0.661   7.355  0.00  0.00    +0.000 HD
ATOM     23  H   UNL     1      46.770  -0.287   8.749  0.00  0.00    +0.000 HD
ENDBRANCH  20  21
ENDBRANCH  14  20
ENDBRANCH  13  17
ENDBRANCH   1  13
TORSDOF 6
ENDMDL
MODEL 3
REMARK VINA RESULT:    -7.530      2.357      6.287
REMARK INTER + INTRA:         -10.175
REMARK INTER:                  -9.687
REMARK INTRA:                  -0.488
REMARK UNBOUND:                -0.225
REMARK  Name = 
REMARK  6 active torsions:
REMARK  status: ('A' for Active; 'I' for Inactive)
REMARK    1  A    between atoms: N_1  and  C_2
REMARK    2  A    between atoms: C_2  and  C_3
REMARK    3  A    between atoms: C_6  and  O_7
REMARK    4  A    between atoms: O_7  and  C_8
REMARK    5  A    between atoms: C_8  and  C_9
REMARK    6  A    between atoms: C_12  and  C_13
REMARK                            x       y       z     vdW  Elec       q    Type
REMARK                         _______ _______ _______ _____ _____    ______ ____
ROOT
ATOM      1  C   UNL     1      43.790   4.724  10.065  0.00  0.00    +0.000 C 
ENDROOT
BRANCH   1   2
ATOM      2  C   UNL     1      44.687   3.858   9.214  0.00  0.00    +0.000 A 
ATOM      3  C   UNL     1      44.750   2.474   9.380  0.00  0.00    +0.000 A 
ATOM      4  N   UNL     1      45.583   1.671   8.666  0.00  0.00    +0.000 NA
ATOM      5  C   UNL     1      46.370   2.323   7.766  0.00  0.00    +0.000 A 
ATOM      6  C   UNL     1      46.326   3.697   7.598  0.00  0.00    +0.000 A 
ATOM      7  N   UNL     1      45.494   4.491   8.319  0.00  0.00    +0.000 NA
BRANCH   5   8
ATOM      8  C   UNL     1      47.319   1.518   6.947  0.00  0.00    +0.000 C 
ATOM      9  N   UNL     1      48.423   2.171   6.475  0.00  0.00    +0.000 N 
ATOM     10  O   UNL     1      47.126   0.332   6.707  0.00  0.00    +0.000 OA
ATOM     11  H   UNL     1      48.568   3.153   6.679  0.00  0.00    +0.000 HD
ATOM     12  H   UNL     1      49.090   1.667   5.909  0.00  0.00    +0.000 HD
ENDBRANCH   5   8
ENDBRANCH   1   2
BRANCH   1  13
ATOM     13  O   UNL     1      44.045   4.519  11.456  0.00  0.00    +0.000 OA
BRANCH  13  17
ATOM     14  C   UNL     1      47.392   6.312  13.214  0.00  0.00    +0.000 A 
ATOM     15  C   UNL     1      46.731   6.980  12.174  0.00  0.00    +0.000 A 
ATOM     16  C   UNL     1      45.603   6.423  11.563  0.00  0.00    +0.000 A 
ATOM     17  C   UNL     1      45.118   5.185  11.983  0.00  0.00    +0.000 A 
ATOM     18  C   UNL     1      45.759   4.524  13.035  0.00  0.00    +0.000 A 
ATOM     19  C   UNL     1      46.888   5.080  13.646  0.00  0.00    +0.000 A 
BRANCH  14  20
ATOM     20  C   UNL     1      48.646   6.891  13.817  0.00  0.00    +0.000 C 
BRANCH  20  21
ATOM     21  N   UNL     1      49.752   6.896  12.867  0.00  0.00    +0.000 NA
ATOM     22  H   UNL     1      50.551   6.422  13.284  0.00  0.00    +0.000 HD
ATOM     23  H   UNL     1      50.041   7.860  12.705  0.00  0.00    +0.000 HD
ENDBRANCH  20  21
ENDBRANCH  14  20
ENDBRANCH  13  17
ENDBRANCH   1  13
TORSDOF 6
ENDMDL
MODEL 4
REMARK VINA RESULT:    -7.049      2.381      6.619
REMARK INTER + INTRA:          -9.540
REMARK INTER:                  -9.109
REMARK INTRA:                  -0.431
REMARK UNBOUND:                -0.225
REMARK  Name = 
REMARK  6 active torsions:
REMARK  status: ('A' for Active; 'I' for Inactive)
REMARK    1  A    between atoms: N_1  and  C_2
REMARK    2  A    between atoms: C_2  and  C_3
REMARK    3  A    between atoms: C_6  and  O_7
REMARK    4  A    between atoms: O_7  and  C_8
REMARK    5  A    between atoms: C_8  and  C_9
REMARK    6  A    between atoms: C_12  and  C_13
REMARK                            x       y       z     vdW  Elec       q    Type
REMARK                         _______ _______ _______ _____ _____    ______ ____
ROOT
ATOM      1  C   UNL     1      43.650   3.994  10.561  0.00  0.00    +0.000 C 
ENDROOT
BRANCH   1   2
ATOM      2  C   UNL     1      44.659   3.577   9.519  0.00  0.00    +0.000 A 
ATOM      3  C   UNL     1      45.233   4.495   8.639  0.00  0.00    +0.000 A 
ATOM      4  N   UNL     1      46.106   4.145   7.656  0.00  0.00    +0.000 NA
ATOM      5  C   UNL     1      46.380   2.813   7.586  0.00  0.00    +0.000 A 
ATOM      6  C   UNL     1      45.810   1.889   8.446  0.00  0.00    +0.000 A 
ATOM      7  N   UNL     1      44.936   2.248   9.421  0.00  0.00    +0.000 NA
BRANCH   5   8
ATOM      8  C   UNL     1      47.322   2.343   6.531  0.00  0.00    +0.000 C 
ATOM      9  N   UNL     1      47.248   2.977   5.321  0.00  0.00    +0.000 N 
ATOM     10  O   UNL     1      48.122   1.437   6.730  0.00  0.00    +0.000 OA
ATOM     11  H   UNL     1      46.580   3.723   5.170  0.00  0.00    +0.000 HD
ATOM     12  H   UNL     1      47.863   2.687   4.575  0.00  0.00    +0.000 HD
ENDBRANCH   5   8
ENDBRANCH   1   2
BRANCH   1  13
ATOM     13  O   UNL     1      44.225   3.979  11.870  0.00  0.00    +0.000 OA
BRANCH  13  17
ATOM     14  C   UNL     1      46.654   7.272  12.744  0.00  0.00    +0.000 A 
ATOM     15  C   UNL     1      47.167   5.981  12.933  0.00  0.00    +0.000 A 
ATOM     16  C   UNL     1      46.394   4.852  12.645  0.00  0.00    +0.000 A 
ATOM     17  C   UNL     1      45.093   4.996  12.165  0.00  0.00    +0.000 A 
ATOM     18  C   UNL     1      44.585   6.280  11.953  0.00  0.00    +0.000 A 
ATOM     19  C   UNL     1      45.356   7.411  12.240  0.00  0.00    +0.000 A 
BRANCH  14  20
ATOM     20  C   UNL     1      47.473   8.481  13.122  0.00  0.00    +0.000 C 
BRANCH  20  21
ATOM     21  N   UNL     1      47.094   9.004  14.429  0.00  0.00    +0.000 NA
ATOM     22  H   UNL     1      46.510   8.318  14.904  0.00  0.00    +0.000 HD
ATOM     23  H   UNL     1      46.514   9.832  14.295  0.00  0.00    +0.000 HD
ENDBRANCH  20  21
ENDBRANCH  14  20
ENDBRANCH  13  17
ENDBRANCH   1  13
TORSDOF 6
ENDMDL
MODEL 5
REMARK VINA RESULT:    -6.188      4.133      6.369
REMARK INTER + INTRA:          -8.403
REMARK INTER:                  -8.053
REMARK INTRA:                  -0.350
REMARK UNBOUND:                -0.225
REMARK  Name = 
REMARK  6 active torsions:
REMARK  status: ('A' for Active; 'I' for Inactive)
REMARK    1  A    between atoms: N_1  and  C_2
REMARK    2  A    between atoms: C_2  and  C_3
REMARK    3  A    between atoms: C_6  and  O_7
REMARK    4  A    between atoms: O_7  and  C_8
REMARK    5  A    between atoms: C_8  and  C_9
REMARK    6  A    between atoms: C_12  and  C_13
REMARK                            x       y       z     vdW  Elec       q    Type
REMARK                         _______ _______ _______ _____ _____    ______ ____
ROOT
ATOM      1  C   UNL     1      47.533   4.739  16.067  0.00  0.00    +0.000 C 
ENDROOT
BRANCH   1   2
ATOM      2  C   UNL     1      48.697   3.863  16.460  0.00  0.00    +0.000 A 
ATOM      3  C   UNL     1      48.698   2.488  16.225  0.00  0.00    +0.000 A 
ATOM      4  N   UNL     1      49.707   1.662  16.611  0.00  0.00    +0.000 NA
ATOM      5  C   UNL     1      50.732   2.280  17.260  0.00  0.00    +0.000 A 
ATOM      6  C   UNL     1      50.740   3.643  17.510  0.00  0.00    +0.000 A 
ATOM      7  N   UNL     1      49.726   4.458  17.124  0.00  0.00    +0.000 NA
BRANCH   5   8
ATOM      8  C   UNL     1      51.876   1.447  17.725  0.00  0.00    +0.000 C 
ATOM      9  N   UNL     1      51.579   0.173  18.126  0.00  0.00    +0.000 N 
ATOM     10  O   UNL     1      53.024   1.874  17.750  0.00  0.00    +0.000 OA
ATOM     11  H   UNL     1      50.624  -0.165  18.103  0.00  0.00    +0.000 HD
ATOM     12  H   UNL     1      52.322  -0.426  18.455  0.00  0.00    +0.000 HD
ENDBRANCH   5   8
ENDBRANCH   1   2
BRANCH   1  13
ATOM     13  O   UNL     1      47.668   5.202  14.721  0.00  0.00    +0.000 OA
BRANCH  13  17
ATOM     14  C   UNL     1      44.617   3.989  12.128  0.00  0.00    +0.000 A 
ATOM     15  C   UNL     1      44.613   5.304  12.613  0.00  0.00    +0.000 A 
ATOM     16  C   UNL     1      45.618   5.756  13.474  0.00  0.00    +0.000 A 
ATOM     17  C   UNL     1      46.643   4.896  13.867  0.00  0.00    +0.000 A 
ATOM     18  C   UNL     1      46.664   3.591  13.369  0.00  0.00    +0.000 A 
ATOM     19  C   UNL     1      45.660   3.138  12.507  0.00  0.00    +0.000 A 
BRANCH  14  20
ATOM     20  C   UNL     1      43.491   3.495  11.254  0.00  0.00    +0.000 C 
BRANCH  20  21
ATOM     21  N   UNL     1      43.014   2.183  11.677  0.00  0.00    +0.000 NA
ATOM     22  H   UNL     1      42.114   2.291  12.140  0.00  0.00    +0.000 HD
ATOM     23  H   UNL     1      43.655   1.811  12.377  0.00  0.00    +0.000 HD
ENDBRANCH  20  21
ENDBRANCH  14  20
ENDBRANCH  13  17
ENDBRANCH   1  13
TORSDOF 6
ENDMDL
MODEL 6
REMARK VINA RESULT:    -5.942      3.141      7.867
REMARK INTER + INTRA:          -8.077
REMARK INTER:                  -7.706
REMARK INTRA:                  -0.371
REMARK UNBOUND:                -0.225
REMARK  Name = 
REMARK  6 active torsions:
REMARK  status: ('A' for Active; 'I' for Inactive)
REMARK    1  A    between atoms: N_1  and  C_2
REMARK    2  A    between atoms: C_2  and  C_3
REMARK    3  A    between atoms: C_6  and  O_7
REMARK    4  A    between atoms: O_7  and  C_8
REMARK    5  A    between atoms: C_8  and  C_9
REMARK    6  A    between atoms: C_12  and  C_13
REMARK                            x       y       z     vdW  Elec       q    Type
REMARK                         _______ _______ _______ _____ _____    ______ ____
ROOT
ATOM      1  C   UNL     1      47.499   5.507  15.126  0.00  0.00    +0.000 C 
ENDROOT
BRANCH   1   2
ATOM      2  C   UNL     1      46.706   5.180  13.884  0.00  0.00    +0.000 A 
ATOM      3  C   UNL     1      46.374   6.154  12.942  0.00  0.00    +0.000 A 
ATOM      4  N   UNL     1      45.619   5.904  11.840  0.00  0.00    +0.000 NA
ATOM      5  C   UNL     1      45.197   4.615  11.718  0.00  0.00    +0.000 A 
ATOM      6  C   UNL     1      45.511   3.638  12.650  0.00  0.00    +0.000 A 
ATOM      7  N   UNL     1      46.262   3.900  13.750  0.00  0.00    +0.000 NA
BRANCH   5   8
ATOM      8  C   UNL     1      44.357   4.257  10.541  0.00  0.00    +0.000 C 
ATOM      9  N   UNL     1      44.715   4.813   9.345  0.00  0.00    +0.000 N 
ATOM     10  O   UNL     1      43.396   3.503  10.634  0.00  0.00    +0.000 OA
ATOM     11  H   UNL     1      45.511   5.437   9.284  0.00  0.00    +0.000 HD
ATOM     12  H   UNL     1      44.170   4.604   8.521  0.00  0.00    +0.000 HD
ENDBRANCH   5   8
ENDBRANCH   1   2
BRANCH   1  13
ATOM     13  O   UNL     1      47.331   4.498  16.125  0.00  0.00    +0.000 OA
BRANCH  13  17
ATOM     14  C   UNL     1      50.755   2.468  17.413  0.00  0.00    +0.000 A 
ATOM     15  C   UNL     1      50.640   3.840  17.675  0.00  0.00    +0.000 A 
ATOM     16  C   UNL     1      49.510   4.557  17.271  0.00  0.00    +0.000 A 
ATOM     17  C   UNL     1      48.475   3.912  16.595  0.00  0.00    +0.000 A 
ATOM     18  C   UNL     1      48.574   2.540  16.352  0.00  0.00    +0.000 A 
ATOM     19  C   UNL     1      49.704   1.821  16.755  0.00  0.00    +0.000 A 
BRANCH  14  20
ATOM     20  C   UNL     1      52.009   1.721  17.794  0.00  0.00    +0.000 C 
BRANCH  20  21
ATOM     21  N   UNL     1      51.739   0.314  18.066  0.00  0.00    +0.000 NA
ATOM     22  H   UNL     1      50.871   0.239  18.592  0.00  0.00    +0.000 HD
ATOM     23  H   UNL     1      52.475  -0.050  18.671  0.00  0.00    +0.000 HD
ENDBRANCH  20  21
ENDBRANCH  14  20
ENDBRANCH  13  17
ENDBRANCH   1  13
TORSDOF 6
ENDMDL
MODEL 7
REMARK VINA RESULT:    -5.890      2.528      3.996
REMARK INTER + INTRA:          -8.008
REMARK INTER:                  -7.676
REMARK INTRA:                  -0.332
REMARK UNBOUND:                -0.225
REMARK  Name = 
REMARK  6 active torsions:
REMARK  status: ('A' for Active; 'I' for Inactive)
REMARK    1  A    between atoms: N_1  and  C_2
REMARK    2  A    between atoms: C_2  and  C_3
REMARK    3  A    between atoms: C_6  and  O_7
REMARK    4  A    between atoms: O_7  and  C_8
REMARK    5  A    between atoms: C_8  and  C_9
REMARK    6  A    between atoms: C_12  and  C_13
REMARK                            x       y       z     vdW  Elec       q    Type
REMARK                         _______ _______ _______ _____ _____    ______ ____
ROOT
ATOM      1  C   UNL     1      46.935   6.162  13.536  0.00  0.00    +0.000 C 
ENDROOT
BRANCH   1   2
ATOM      2  C   UNL     1      47.516   5.330  14.653  0.00  0.00    +0.000 A 
ATOM      3  C   UNL     1      47.151   3.997  14.846  0.00  0.00    +0.000 A 
ATOM      4  N   UNL     1      47.616   3.235  15.871  0.00  0.00    +0.000 NA
ATOM      5  C   UNL     1      48.474   3.875  16.714  0.00  0.00    +0.000 A 
ATOM      6  C   UNL     1      48.837   5.200  16.540  0.00  0.00    +0.000 A 
ATOM      7  N   UNL     1      48.363   5.955  15.516  0.00  0.00    +0.000 NA
BRANCH   5   8
ATOM      8  C   UNL     1      49.025   3.113  17.870  0.00  0.00    +0.000 C 
ATOM      9  N   UNL     1      48.296   3.147  19.026  0.00  0.00    +0.000 N 
ATOM     10  O   UNL     1      50.075   2.487  17.794  0.00  0.00    +0.000 OA
ATOM     11  H   UNL     1      47.430   3.672  19.075  0.00  0.00    +0.000 HD
ATOM     12  H   UNL     1      48.634   2.651  19.838  0.00  0.00    +0.000 HD
ENDBRANCH   5   8
ENDBRANCH   1   2
BRANCH   1  13
ATOM     13  O   UNL     1      45.647   5.678  13.148  0.00  0.00    +0.000 OA
BRANCH  13  17
ATOM     14  C   UNL     1      45.145   4.032   9.334  0.00  0.00    +0.000 A 
ATOM     15  C   UNL     1      45.672   5.326   9.452  0.00  0.00    +0.000 A 
ATOM     16  C   UNL     1      45.865   5.912  10.706  0.00  0.00    +0.000 A 
ATOM     17  C   UNL     1      45.532   5.213  11.866  0.00  0.00    +0.000 A 
ATOM     18  C   UNL     1      45.028   3.915  11.756  0.00  0.00    +0.000 A 
ATOM     19  C   UNL     1      44.834   3.327  10.502  0.00  0.00    +0.000 A 
BRANCH  14  20
ATOM     20  C   UNL     1      44.877   3.438   7.975  0.00  0.00    +0.000 C 
BRANCH  20  21
ATOM     21  N   UNL     1      45.970   3.700   7.045  0.00  0.00    +0.000 NA
ATOM     22  H   UNL     1      46.850   3.443   7.487  0.00  0.00    +0.000 HD
ATOM     23  H   UNL     1      46.018   4.703   6.870  0.00  0.00    +0.000 HD
ENDBRANCH  20  21
ENDBRANCH  14  20
ENDBRANCH  13  17
ENDBRANCH   1  13
TORSDOF 6
ENDMDL
MODEL 8
REMARK VINA RESULT:    -5.713      3.143      8.400
REMARK INTER + INTRA:          -7.775
REMARK INTER:                  -7.561
REMARK INTRA:                  -0.213
REMARK UNBOUND:                -0.225
REMARK  Name = 
REMARK  6 active torsions:
REMARK  status: ('A' for Active; 'I' for Inactive)
REMARK    1  A    between atoms: N_1  and  C_2
REMARK    2  A    between atoms: C_2  and  C_3
REMARK    3  A    between atoms: C_6  and  O_7
REMARK    4  A    between atoms: O_7  and  C_8
REMARK    5  A    between atoms: C_8  and  C_9
REMARK    6  A    between atoms: C_12  and  C_13
REMARK                            x       y       z     vdW  Elec       q    Type
REMARK                         _______ _______ _______ _____ _____    ______ ____
ROOT
ATOM      1  C   UNL     1      47.569   6.571  14.053  0.00  0.00    +0.000 C 
ENDROOT
BRANCH   1   2
ATOM      2  C   UNL     1      46.655   5.662  13.266  0.00  0.00    +0.000 A 
ATOM      3  C   UNL     1      46.237   4.427  13.762  0.00  0.00    +0.000 A 
ATOM      4  N   UNL     1      45.456   3.563  13.060  0.00  0.00    +0.000 NA
ATOM      5  C   UNL     1      45.109   3.992  11.815  0.00  0.00    +0.000 A 
ATOM      6  C   UNL     1      45.525   5.212  11.306  0.00  0.00    +0.000 A 
ATOM      7  N   UNL     1      46.308   6.065  12.013  0.00  0.00    +0.000 NA
BRANCH   5   8
ATOM      8  C   UNL     1      44.261   3.102  10.975  0.00  0.00    +0.000 C 
ATOM      9  N   UNL     1      44.895   2.424   9.972  0.00  0.00    +0.000 N 
ATOM     10  O   UNL     1      43.057   2.980  11.168  0.00  0.00    +0.000 OA
ATOM     11  H   UNL     1      45.890   2.537   9.822  0.00  0.00    +0.000 HD
ATOM     12  H   UNL     1      44.358   1.813   9.373  0.00  0.00    +0.000 HD
ENDBRANCH   5   8
ENDBRANCH   1   2
BRANCH   1  13
ATOM     13  O   UNL     1      48.596   5.825  14.709  0.00  0.00    +0.000 OA
BRANCH  13  17
ATOM     14  C   UNL     1      48.424   5.465  18.875  0.00  0.00    +0.000 A 
ATOM     15  C   UNL     1      48.802   6.693  18.314  0.00  0.00    +0.000 A 
ATOM     16  C   UNL     1      48.864   6.862  16.927  0.00  0.00    +0.000 A 
ATOM     17  C   UNL     1      48.551   5.802  16.077  0.00  0.00    +0.000 A 
ATOM     18  C   UNL     1      48.152   4.582  16.630  0.00  0.00    +0.000 A 
ATOM     19  C   UNL     1      48.090   4.412  18.017  0.00  0.00    +0.000 A 
BRANCH  14  20
ATOM     20  C   UNL     1      48.427   5.276  20.370  0.00  0.00    +0.000 C 
BRANCH  20  21
ATOM     21  N   UNL     1      48.426   3.865  20.738  0.00  0.00    +0.000 NA
ATOM     22  H   UNL     1      47.470   3.516  20.710  0.00  0.00    +0.000 HD
ATOM     23  H   UNL     1      48.736   3.778  21.705  0.00  0.00    +0.000 HD
ENDBRANCH  20  21
ENDBRANCH  14  20
ENDBRANCH  13  17
ENDBRANCH   1  13
TORSDOF 6
ENDMDL
MODEL 9
REMARK VINA RESULT:    -5.607      4.673      6.321
REMARK INTER + INTRA:          -7.634
REMARK INTER:                  -7.275
REMARK INTRA:                  -0.359
REMARK UNBOUND:                -0.225
REMARK  Name = 
REMARK  6 active torsions:
REMARK  status: ('A' for Active; 'I' for Inactive)
REMARK    1  A    between atoms: N_1  and  C_2
REMARK    2  A    between atoms: C_2  and  C_3
REMARK    3  A    between atoms: C_6  and  O_7
REMARK    4  A    between atoms: O_7  and  C_8
REMARK    5  A    between atoms: C_8  and  C_9
REMARK    6  A    between atoms: C_12  and  C_13
REMARK                            x       y       z     vdW  Elec       q    Type
REMARK                         _______ _______ _______ _____ _____    ______ ____
ROOT
ATOM      1  C   UNL     1      48.677   6.860  14.547  0.00  0.00    +0.000 C 
ENDROOT
BRANCH   1   2
ATOM      2  C   UNL     1      48.707   6.304  15.950  0.00  0.00    +0.000 A 
ATOM      3  C   UNL     1      48.776   7.131  17.071  0.00  0.00    +0.000 A 
ATOM      4  N   UNL     1      48.855   6.663  18.345  0.00  0.00    +0.000 NA
ATOM      5  C   UNL     1      48.870   5.305  18.452  0.00  0.00    +0.000 A 
ATOM      6  C   UNL     1      48.812   4.470  17.348  0.00  0.00    +0.000 A 
ATOM      7  N   UNL     1      48.738   4.949  16.080  0.00  0.00    +0.000 NA
BRANCH   5   8
ATOM      8  C   UNL     1      48.964   4.708  19.814  0.00  0.00    +0.000 C 
ATOM      9  N   UNL     1      48.390   3.478  19.981  0.00  0.00    +0.000 N 
ATOM     10  O   UNL     1      49.525   5.283  20.739  0.00  0.00    +0.000 OA
ATOM     11  H   UNL     1      47.927   3.016  19.208  0.00  0.00    +0.000 HD
ATOM     12  H   UNL     1      48.423   3.038  20.889  0.00  0.00    +0.000 HD
ENDBRANCH   5   8
ENDBRANCH   1   2
BRANCH   1  13
ATOM     13  O   UNL     1      48.375   5.839  13.594  0.00  0.00    +0.000 OA
BRANCH  13  17
ATOM     14  C   UNL     1      44.510   5.845  11.990  0.00  0.00    +0.000 A 
ATOM     15  C   UNL     1      44.793   5.007  13.079  0.00  0.00    +0.000 A 
ATOM     16  C   UNL     1      46.068   4.979  13.652  0.00  0.00    +0.000 A 
ATOM     17  C   UNL     1      47.083   5.788  13.144  0.00  0.00    +0.000 A 
ATOM     18  C   UNL     1      46.801   6.642  12.075  0.00  0.00    +0.000 A 
ATOM     19  C   UNL     1      45.527   6.671  11.500  0.00  0.00    +0.000 A 
BRANCH  14  20
ATOM     20  C   UNL     1      43.151   5.816  11.338  0.00  0.00    +0.000 C 
BRANCH  20  21
ATOM     21  N   UNL     1      42.588   7.154  11.200  0.00  0.00    +0.000 NA
ATOM     22  H   UNL     1      41.837   7.268  11.878  0.00  0.00    +0.000 HD
ATOM     23  H   UNL     1      42.160   7.235  10.279  0.00  0.00    +0.000 HD
ENDBRANCH  20  21
ENDBRANCH  14  20
ENDBRANCH  13  17
ENDBRANCH   1  13
TORSDOF 6
ENDMDL
