MODEL 1
REMARK VINA RESULT:    -7.706      0.000      0.000
REMARK INTER + INTRA:          -9.445
REMARK INTER:                  -9.058
REMARK INTRA:                  -0.387
REMARK UNBOUND:                -0.387
REMARK  Name = 
REMARK  3 active torsions:
REMARK  status: ('A' for Active; 'I' for Inactive)
REMARK    1  A    between atoms: C_2  and  C_4
REMARK    2  A    between atoms: N_8  and  C_9
REMARK    3  A    between atoms: C_9  and  C_10
REMARK                            x       y       z     vdW  Elec       q    Type
REMARK                         _______ _______ _______ _____ _____    ______ ____
ROOT
ATOM      1  C   UNL     1      46.492   5.021  13.397  0.00  0.00    +0.000 A 
ATOM      2  C   UNL     1      46.839   6.063  12.546  0.00  0.00    +0.000 A 
ATOM      3  C   UNL     1      46.266   6.115  11.275  0.00  0.00    +0.000 A 
ATOM      4  C   UNL     1      45.385   5.113  10.869  0.00  0.00    +0.000 A 
ATOM      5  N   UNL     1      44.903   5.179   9.562  0.00  0.00    +0.000 N 
ATOM      6  N   UNL     1      45.049   4.092  11.681  0.00  0.00    +0.000 NA
ATOM      7  C   UNL     1      45.605   4.066  12.922  0.00  0.00    +0.000 A 
ATOM      8  H   UNL     1      44.355   6.023   9.427  0.00  0.00    +0.000 HD
ENDROOT
BRANCH   1  10
ATOM      9  N   UNL     1      47.862   5.873  15.217  0.00  0.00    +0.000 N 
ATOM     10  C   UNL     1      47.052   4.871  14.755  0.00  0.00    +0.000 C 
ATOM     11  O   UNL     1      46.781   3.906  15.457  0.00  0.00    +0.000 OA
ATOM     12  H   UNL     1      48.167   5.797  16.180  0.00  0.00    +0.000 HD
ATOM     13  H   UNL     1      47.930   6.778  14.775  0.00  0.00    +0.000 HD
ENDBRANCH   1  10
BRANCH   5  14
ATOM     14  C   UNL     1      44.246   3.991   9.048  0.00  0.00    +0.000 C 
BRANCH  14  15
ATOM     15  C   UNL     1      45.294   3.163   8.354  0.00  0.00    +0.000 A 
ATOM     16  C   UNL     1      46.182   3.705   7.422  0.00  0.00    +0.000 A 
ATOM     17  C   UNL     1      47.167   2.896   6.860  0.00  0.00    +0.000 A 
ATOM     18  C   UNL     1      47.234   1.569   7.253  0.00  0.00    +0.000 A 
ATOM     19  N   UNL     1      46.398   1.010   8.154  0.00  0.00    +0.000 NA
ATOM     20  C   UNL     1      45.456   1.819   8.687  0.00  0.00    +0.000 A 
ENDBRANCH  14  15
ENDBRANCH   5  14
TORSDOF 3
ENDMDL
MODEL 2
REMARK VINA RESULT:    -7.581      2.679      6.137
REMARK INTER + INTRA:          -9.297
REMARK INTER:                  -9.025
REMARK INTRA:                  -0.273
REMARK UNBOUND:                -0.387
REMARK  Name = 
REMARK  3 active torsions:
REMARK  status: ('A' for Active; 'I' for Inactive)
REMARK    1  A    between atoms: C_2  and  C_4
REMARK    2  A    between atoms: N_8  and  C_9
REMARK    3  A    between atoms: C_9  and  C_10
REMARK                            x       y       z     vdW  Elec       q    Type
REMARK                         _______ _______ _______ _____ _____    ______ ____
ROOT
ATOM      1  C   UNL     1      46.506   2.620   7.434  0.00  0.00    +0.000 A 
ATOM      2  C   UNL     1      45.854   1.640   8.173  0.00  0.00    +0.000 A 
ATOM      3  C   UNL     1      44.921   2.029   9.134  0.00  0.00    +0.000 A 
ATOM      4  C   UNL     1      44.680   3.385   9.359  0.00  0.00    +0.000 A 
ATOM      5  N   UNL     1      43.792   3.712  10.383  0.00  0.00    +0.000 N 
ATOM      6  N   UNL     1      45.313   4.344   8.657  0.00  0.00    +0.000 NA
ATOM      7  C   UNL     1      46.208   3.946   7.714  0.00  0.00    +0.000 A 
ATOM      8  H   UNL     1      42.864   3.354  10.178  0.00  0.00    +0.000 HD
ENDROOT
BRANCH   1  10
ATOM      9  N   UNL     1      47.570   3.128   5.307  0.00  0.00    +0.000 N 
ATOM     10  C   UNL     1      47.518   2.311   6.404  0.00  0.00    +0.000 C 
ATOM     11  O   UNL     1      48.303   1.382   6.535  0.00  0.00    +0.000 OA
ATOM     12  H   UNL     1      48.324   2.957   4.653  0.00  0.00    +0.000 HD
ATOM     13  H   UNL     1      47.106   4.024   5.262  0.00  0.00    +0.000 HD
ENDBRANCH   1  10
BRANCH   5  14
ATOM     14  C   UNL     1      43.779   5.098  10.818  0.00  0.00    +0.000 C 
BRANCH  14  15
ATOM     15  C   UNL     1      44.919   5.276  11.784  0.00  0.00    +0.000 A 
ATOM     16  C   UNL     1      45.865   6.294  11.647  0.00  0.00    +0.000 A 
ATOM     17  C   UNL     1      46.861   6.441  12.608  0.00  0.00    +0.000 A 
ATOM     18  C   UNL     1      46.877   5.563  13.680  0.00  0.00    +0.000 A 
ATOM     19  N   UNL     1      45.979   4.570  13.851  0.00  0.00    +0.000 NA
ATOM     20  C   UNL     1      45.019   4.455  12.905  0.00  0.00    +0.000 A 
ENDBRANCH  14  15
ENDBRANCH   5  14
TORSDOF 3
ENDMDL
MODEL 3
REMARK VINA RESULT:    -7.017      1.830      2.296
REMARK INTER + INTRA:          -8.635
REMARK INTER:                  -8.380
REMARK INTRA:                  -0.255
REMARK UNBOUND:                -0.387
REMARK  Name = 
REMARK  3 active torsions:
REMARK  status: ('A' for Active; 'I' for Inactive)
REMARK    1  A    between atoms: C_2  and  C_4
REMARK    2  A    between atoms: N_8  and  C_9
REMARK    3  A    between atoms: C_9  and  C_10
REMARK                            x       y       z     vdW  Elec       q    Type
REMARK                         _______ _______ _______ _____ _____    ______ ____
ROOT
ATOM      1  C   UNL     1      45.671   6.124  12.282  0.00  0.00    +0.000 A 
ATOM      2  C   UNL     1      45.672   4.940  13.010  0.00  0.00    +0.000 A 
ATOM      3  C   UNL     1      45.464   3.735  12.338  0.00  0.00    +0.000 A 
ATOM      4  C   UNL     1      45.229   3.738  10.963  0.00  0.00    +0.000 A 
ATOM      5  N   UNL     1      44.954   2.510  10.361  0.00  0.00    +0.000 N 
ATOM      6  N   UNL     1      45.215   4.879  10.248  0.00  0.00    +0.000 NA
ATOM      7  C   UNL     1      45.435   6.043  10.917  0.00  0.00    +0.000 A 
ATOM      8  H   UNL     1      45.750   1.885  10.449  0.00  0.00    +0.000 HD
ENDROOT
BRANCH   1  10
ATOM      9  N   UNL     1      46.907   7.584  13.782  0.00  0.00    +0.000 N 
ATOM     10  C   UNL     1      45.869   7.449  12.901  0.00  0.00    +0.000 C 
ATOM     11  O   UNL     1      45.156   8.402  12.617  0.00  0.00    +0.000 OA
ATOM     12  H   UNL     1      47.083   8.518  14.131  0.00  0.00    +0.000 HD
ATOM     13  H   UNL     1      47.647   6.903  13.874  0.00  0.00    +0.000 HD
ENDBRANCH   1  10
BRANCH   5  14
ATOM     14  C   UNL     1      44.413   2.550   9.015  0.00  0.00    +0.000 C 
BRANCH  14  15
ATOM     15  C   UNL     1      45.559   2.333   8.063  0.00  0.00    +0.000 A 
ATOM     16  C   UNL     1      46.002   3.324   7.185  0.00  0.00    +0.000 A 
ATOM     17  C   UNL     1      47.106   3.079   6.372  0.00  0.00    +0.000 A 
ATOM     18  C   UNL     1      47.733   1.847   6.467  0.00  0.00    +0.000 A 
ATOM     19  N   UNL     1      47.338   0.866   7.305  0.00  0.00    +0.000 NA
ATOM     20  C   UNL     1      46.268   1.133   8.086  0.00  0.00    +0.000 A 
ENDBRANCH  14  15
ENDBRANCH   5  14
TORSDOF 3
ENDMDL
MODEL 4
REMARK VINA RESULT:    -6.585      1.589      1.925
REMARK INTER + INTRA:          -8.126
REMARK INTER:                  -7.890
REMARK INTRA:                  -0.236
REMARK UNBOUND:                -0.387
REMARK  Name = 
REMARK  3 active torsions:
REMARK  status: ('A' for Active; 'I' for Inactive)
REMARK    1  A    between atoms: C_2  and  C_4
REMARK    2  A    between atoms: N_8  and  C_9
REMARK    3  A    between atoms: C_9  and  C_10
REMARK                            x       y       z     vdW  Elec       q    Type
REMARK                         _______ _______ _______ _____ _____    ______ ____
ROOT
ATOM      1  C   UNL     1      46.899   6.588  13.208  0.00  0.00    +0.000 A 
ATOM      2  C   UNL     1      46.337   7.465  12.288  0.00  0.00    +0.000 A 
ATOM      3  C   UNL     1      45.401   6.978  11.376  0.00  0.00    +0.000 A 
ATOM      4  C   UNL     1      45.066   5.623  11.381  0.00  0.00    +0.000 A 
ATOM      5  N   UNL     1      44.180   5.182  10.399  0.00  0.00    +0.000 N 
ATOM      6  N   UNL     1      45.611   4.761  12.261  0.00  0.00    +0.000 NA
ATOM      7  C   UNL     1      46.511   5.257  13.152  0.00  0.00    +0.000 A 
ATOM      8  H   UNL     1      43.277   5.633  10.505  0.00  0.00    +0.000 HD
ENDROOT
BRANCH   1  10
ATOM      9  N   UNL     1      47.717   8.206  14.829  0.00  0.00    +0.000 N 
ATOM     10  C   UNL     1      47.906   7.003  14.205  0.00  0.00    +0.000 C 
ATOM     11  O   UNL     1      48.859   6.289  14.488  0.00  0.00    +0.000 OA
ATOM     12  H   UNL     1      48.367   8.436  15.570  0.00  0.00    +0.000 HD
ATOM     13  H   UNL     1      46.845   8.715  14.797  0.00  0.00    +0.000 HD
ENDBRANCH   1  10
BRANCH   5  14
ATOM     14  C   UNL     1      44.076   3.746  10.211  0.00  0.00    +0.000 C 
BRANCH  14  15
ATOM     15  C   UNL     1      45.056   3.361   9.135  0.00  0.00    +0.000 A 
ATOM     16  C   UNL     1      45.497   2.048   8.957  0.00  0.00    +0.000 A 
ATOM     17  C   UNL     1      46.358   1.749   7.905  0.00  0.00    +0.000 A 
ATOM     18  C   UNL     1      46.751   2.776   7.062  0.00  0.00    +0.000 A 
ATOM     19  N   UNL     1      46.344   4.056   7.197  0.00  0.00    +0.000 NA
ATOM     20  C   UNL     1      45.503   4.316   8.223  0.00  0.00    +0.000 A 
ENDBRANCH  14  15
ENDBRANCH   5  14
TORSDOF 3
ENDMDL
MODEL 5
REMARK VINA RESULT:    -5.765      2.878      7.271
REMARK INTER + INTRA:          -7.163
REMARK INTER:                  -6.897
REMARK INTRA:                  -0.266
REMARK UNBOUND:                -0.387
REMARK  Name = 
REMARK  3 active torsions:
REMARK  status: ('A' for Active; 'I' for Inactive)
REMARK    1  A    between atoms: C_2  and  C_4
REMARK    2  A    between atoms: N_8  and  C_9
REMARK    3  A    between atoms: C_9  and  C_10
REMARK                            x       y       z     vdW  Elec       q    Type
REMARK                         _______ _______ _______ _____ _____    ______ ____
ROOT
ATOM      1  C   UNL     1      45.041   4.280  11.351  0.00  0.00    +0.000 A 
ATOM      2  C   UNL     1      45.451   5.592  11.554  0.00  0.00    +0.000 A 
ATOM      3  C   UNL     1      46.183   5.900  12.702  0.00  0.00    +0.000 A 
ATOM      4  C   UNL     1      46.463   4.902  13.635  0.00  0.00    +0.000 A 
ATOM      5  N   UNL     1      47.133   5.286  14.797  0.00  0.00    +0.000 N 
ATOM      6  N   UNL     1      46.061   3.629  13.456  0.00  0.00    +0.000 NA
ATOM      7  C   UNL     1      45.362   3.344  12.324  0.00  0.00    +0.000 A 
ATOM      8  H   UNL     1      48.056   5.645  14.573  0.00  0.00    +0.000 HD
ENDROOT
BRANCH   1  10
ATOM      9  N   UNL     1      44.109   4.756   9.156  0.00  0.00    +0.000 N 
ATOM     10  C   UNL     1      44.253   3.856  10.177  0.00  0.00    +0.000 C 
ATOM     11  O   UNL     1      43.771   2.734  10.100  0.00  0.00    +0.000 OA
ATOM     12  H   UNL     1      43.641   4.421   8.323  0.00  0.00    +0.000 HD
ATOM     13  H   UNL     1      44.667   5.594   9.075  0.00  0.00    +0.000 HD
ENDBRANCH   1  10
BRANCH   5  14
ATOM     14  C   UNL     1      47.148   4.329  15.889  0.00  0.00    +0.000 C 
BRANCH  14  15
ATOM     15  C   UNL     1      48.429   4.538  16.651  0.00  0.00    +0.000 A 
ATOM     16  C   UNL     1      49.069   5.778  16.717  0.00  0.00    +0.000 A 
ATOM     17  C   UNL     1      50.220   5.917  17.488  0.00  0.00    +0.000 A 
ATOM     18  C   UNL     1      50.692   4.808  18.173  0.00  0.00    +0.000 A 
ATOM     19  N   UNL     1      50.101   3.596  18.138  0.00  0.00    +0.000 NA
ATOM     20  C   UNL     1      48.982   3.491  17.386  0.00  0.00    +0.000 A 
ENDBRANCH  14  15
ENDBRANCH   5  14
TORSDOF 3
ENDMDL
MODEL 6
REMARK VINA RESULT:    -5.652      3.555      5.719
REMARK INTER + INTRA:          -7.030
REMARK INTER:                  -6.802
REMARK INTRA:                  -0.229
REMARK UNBOUND:                -0.387
REMARK  Name = 
REMARK  3 active torsions:
REMARK  status: ('A' for Active; 'I' for Inactive)
REMARK    1  A    between atoms: C_2  and  C_4
REMARK    2  A    between atoms: N_8  and  C_9
REMARK    3  A    between atoms: C_9  and  C_10
REMARK                            x       y       z     vdW  Elec       q    Type
REMARK                         _______ _______ _______ _____ _____    ______ ____
ROOT
ATOM      1  C   UNL     1      49.085   4.482  18.171  0.00  0.00    +0.000 A 
ATOM      2  C   UNL     1      48.266   3.361  18.113  0.00  0.00    +0.000 A 
ATOM      3  C   UNL     1      47.487   3.153  16.975  0.00  0.00    +0.000 A 
ATOM      4  C   UNL     1      47.518   4.080  15.933  0.00  0.00    +0.000 A 
ATOM      5  N   UNL     1      46.662   3.856  14.855  0.00  0.00    +0.000 N 
ATOM      6  N   UNL     1      48.300   5.175  15.981  0.00  0.00    +0.000 NA
ATOM      7  C   UNL     1      49.064   5.354  17.092  0.00  0.00    +0.000 A 
ATOM      8  H   UNL     1      46.900   2.987  14.386  0.00  0.00    +0.000 HD
ENDROOT
BRANCH   1  10
ATOM      9  N   UNL     1      49.539   4.321  20.554  0.00  0.00    +0.000 N 
ATOM     10  C   UNL     1      49.937   4.797  19.335  0.00  0.00    +0.000 C 
ATOM     11  O   UNL     1      50.976   5.433  19.215  0.00  0.00    +0.000 OA
ATOM     12  H   UNL     1      50.177   4.471  21.326  0.00  0.00    +0.000 HD
ATOM     13  H   UNL     1      48.827   3.613  20.666  0.00  0.00    +0.000 HD
ENDBRANCH   1  10
BRANCH   5  14
ATOM     14  C   UNL     1      46.469   4.961  13.933  0.00  0.00    +0.000 C 
BRANCH  14  15
ATOM     15  C   UNL     1      45.251   4.649  13.106  0.00  0.00    +0.000 A 
ATOM     16  C   UNL     1      44.171   5.528  13.002  0.00  0.00    +0.000 A 
ATOM     17  C   UNL     1      43.100   5.205  12.173  0.00  0.00    +0.000 A 
ATOM     18  C   UNL     1      43.146   4.011  11.471  0.00  0.00    +0.000 A 
ATOM     19  N   UNL     1      44.173   3.138  11.541  0.00  0.00    +0.000 NA
ATOM     20  C   UNL     1      45.201   3.480  12.350  0.00  0.00    +0.000 A 
ENDBRANCH  14  15
ENDBRANCH   5  14
TORSDOF 3
ENDMDL
MODEL 7
REMARK VINA RESULT:    -5.452      2.831      6.166
REMARK INTER + INTRA:          -6.795
REMARK INTER:                  -6.465
REMARK INTRA:                  -0.330
REMARK UNBOUND:                -0.387
REMARK  Name = 
REMARK  3 active torsions:
REMARK  status: ('A' for Active; 'I' for Inactive)
REMARK    1  A    between atoms: C_2  and  C_4
REMARK    2  A    between atoms: N_8  and  C_9
REMARK    3  A    between atoms: C_9  and  C_10
REMARK                            x       y       z     vdW  Elec       q    Type
REMARK                         _______ _______ _______ _____ _____    ______ ____
ROOT
ATOM      1  C   UNL     1      44.967   3.719  10.068  0.00  0.00    +0.000 A 
ATOM      2  C   UNL     1      44.934   3.257  11.378  0.00  0.00    +0.000 A 
ATOM      3  C   UNL     1      45.050   4.177  12.420  0.00  0.00    +0.000 A 
ATOM      4  C   UNL     1      45.227   5.531  12.136  0.00  0.00    +0.000 A 
ATOM      5  N   UNL     1      45.411   6.391  13.218  0.00  0.00    +0.000 N 
ATOM      6  N   UNL     1      45.271   5.990  10.870  0.00  0.00    +0.000 NA
ATOM      7  C   UNL     1      45.141   5.081   9.867  0.00  0.00    +0.000 A 
ATOM      8  H   UNL     1      44.589   6.395  13.813  0.00  0.00    +0.000 HD
ENDROOT
BRANCH   1  10
ATOM      9  N   UNL     1      44.684   1.491   9.136  0.00  0.00    +0.000 N 
ATOM     10  C   UNL     1      44.864   2.826   8.896  0.00  0.00    +0.000 C 
ATOM     11  O   UNL     1      44.907   3.261   7.754  0.00  0.00    +0.000 OA
ATOM     12  H   UNL     1      44.529   0.905   8.325  0.00  0.00    +0.000 HD
ATOM     13  H   UNL     1      44.419   1.121  10.038  0.00  0.00    +0.000 HD
ENDBRANCH   1  10
BRANCH   5  14
ATOM     14  C   UNL     1      45.898   7.725  12.917  0.00  0.00    +0.000 C 
BRANCH  14  15
ATOM     15  C   UNL     1      47.402   7.670  12.939  0.00  0.00    +0.000 A 
ATOM     16  C   UNL     1      48.190   8.292  11.968  0.00  0.00    +0.000 A 
ATOM     17  C   UNL     1      49.577   8.253  12.079  0.00  0.00    +0.000 A 
ATOM     18  C   UNL     1      50.133   7.593  13.164  0.00  0.00    +0.000 A 
ATOM     19  N   UNL     1      49.407   6.984  14.124  0.00  0.00    +0.000 NA
ATOM     20  C   UNL     1      48.062   7.042  13.994  0.00  0.00    +0.000 A 
ENDBRANCH  14  15
ENDBRANCH   5  14
TORSDOF 3
ENDMDL
MODEL 8
REMARK VINA RESULT:    -5.057      2.548      3.111
REMARK INTER + INTRA:          -6.331
REMARK INTER:                  -6.125
REMARK INTRA:                  -0.206
REMARK UNBOUND:                -0.387
REMARK  Name = 
REMARK  3 active torsions:
REMARK  status: ('A' for Active; 'I' for Inactive)
REMARK    1  A    between atoms: C_2  and  C_4
REMARK    2  A    between atoms: N_8  and  C_9
REMARK    3  A    between atoms: C_9  and  C_10
REMARK                            x       y       z     vdW  Elec       q    Type
REMARK                         _______ _______ _______ _____ _____    ______ ____
ROOT
ATOM      1  C   UNL     1      48.032   7.788  13.033  0.00  0.00    +0.000 A 
ATOM      2  C   UNL     1      47.114   8.536  12.307  0.00  0.00    +0.000 A 
ATOM      3  C   UNL     1      45.904   7.947  11.940  0.00  0.00    +0.000 A 
ATOM      4  C   UNL     1      45.647   6.618  12.278  0.00  0.00    +0.000 A 
ATOM      5  N   UNL     1      44.453   6.063  11.820  0.00  0.00    +0.000 N 
ATOM      6  N   UNL     1      46.533   5.879  12.973  0.00  0.00    +0.000 NA
ATOM      7  C   UNL     1      47.702   6.474  13.335  0.00  0.00    +0.000 A 
ATOM      8  H   UNL     1      43.657   6.551  12.220  0.00  0.00    +0.000 HD
ENDROOT
BRANCH   1  10
ATOM      9  N   UNL     1      50.406   7.453  13.438  0.00  0.00    +0.000 N 
ATOM     10  C   UNL     1      49.344   8.315  13.457  0.00  0.00    +0.000 C 
ATOM     11  O   UNL     1      49.489   9.485  13.785  0.00  0.00    +0.000 OA
ATOM     12  H   UNL     1      51.314   7.850  13.648  0.00  0.00    +0.000 HD
ATOM     13  H   UNL     1      50.385   6.559  12.968  0.00  0.00    +0.000 HD
ENDBRANCH   1  10
BRANCH   5  14
ATOM     14  C   UNL     1      44.330   4.619  11.903  0.00  0.00    +0.000 C 
BRANCH  14  15
ATOM     15  C   UNL     1      44.627   4.064  10.536  0.00  0.00    +0.000 A 
ATOM     16  C   UNL     1      45.307   4.797   9.561  0.00  0.00    +0.000 A 
ATOM     17  C   UNL     1      45.603   4.204   8.336  0.00  0.00    +0.000 A 
ATOM     18  C   UNL     1      45.210   2.891   8.128  0.00  0.00    +0.000 A 
ATOM     19  N   UNL     1      44.557   2.148   9.046  0.00  0.00    +0.000 NA
ATOM     20  C   UNL     1      44.288   2.748  10.227  0.00  0.00    +0.000 A 
ENDBRANCH  14  15
ENDBRANCH   5  14
TORSDOF 3
ENDMDL
MODEL 9
REMARK VINA RESULT:    -4.886      3.354      6.437
REMARK INTER + INTRA:          -6.130
REMARK INTER:                  -5.781
REMARK INTRA:                  -0.349
REMARK UNBOUND:                -0.387
REMARK  Name = 
REMARK  3 active torsions:
REMARK  status: ('A' for Active; 'I' for Inactive)
REMARK    1  A    between atoms: C_2  and  C_4
REMARK    2  A    between atoms: N_8  and  C_9
REMARK    3  A    between atoms: C_9  and  C_10
REMARK                            x       y       z     vdW  Elec       q    Type
REMARK                         _______ _______ _______ _____ _____    ______ ____
ROOT
ATOM      1  C   UNL     1      44.774   4.112  11.845  0.00  0.00    +0.000 A 
ATOM      2  C   UNL     1      45.703   3.710  12.797  0.00  0.00    +0.000 A 
ATOM      3  C   UNL     1      46.423   4.682  13.491  0.00  0.00    +0.000 A 
ATOM      4  C   UNL     1      46.224   6.032  13.201  0.00  0.00    +0.000 A 
ATOM      5  N   UNL     1      47.026   6.953  13.874  0.00  0.00    +0.000 N 
ATOM      6  N   UNL     1      45.335   6.436  12.273  0.00  0.00    +0.000 NA
ATOM      7  C   UNL     1      44.631   5.474  11.617  0.00  0.00    +0.000 A 
ATOM      8  H   UNL     1      46.852   6.914  14.873  0.00  0.00    +0.000 HD
ENDROOT
BRANCH   1  10
ATOM      9  N   UNL     1      43.389   2.118  11.717  0.00  0.00    +0.000 N 
ATOM     10  C   UNL     1      43.971   3.161  11.050  0.00  0.00    +0.000 C 
ATOM     11  O   UNL     1      43.805   3.313   9.848  0.00  0.00    +0.000 OA
ATOM     12  H   UNL     1      42.772   1.525  11.174  0.00  0.00    +0.000 HD
ATOM     13  H   UNL     1      43.309   2.079  12.723  0.00  0.00    +0.000 HD
ENDBRANCH   1  10
BRANCH   5  14
ATOM     14  C   UNL     1      47.039   8.309  13.356  0.00  0.00    +0.000 C 
BRANCH  14  15
ATOM     15  C   UNL     1      48.453   8.618  12.940  0.00  0.00    +0.000 A 
ATOM     16  C   UNL     1      49.562   8.093  13.606  0.00  0.00    +0.000 A 
ATOM     17  C   UNL     1      50.842   8.370  13.134  0.00  0.00    +0.000 A 
ATOM     18  C   UNL     1      50.971   9.164  12.006  0.00  0.00    +0.000 A 
ATOM     19  N   UNL     1      49.925   9.687  11.332  0.00  0.00    +0.000 NA
ATOM     20  C   UNL     1      48.694   9.396  11.809  0.00  0.00    +0.000 A 
ENDBRANCH  14  15
ENDBRANCH   5  14
TORSDOF 3
ENDMDL
