MODEL 1
REMARK VINA RESULT:    -8.630      0.000      0.000
REMARK INTER + INTRA:         -12.022
REMARK INTER:                 -11.152
REMARK INTRA:                  -0.870
REMARK UNBOUND:                -0.870
REMARK  Name = 
REMARK  5 active torsions:
REMARK  status: ('A' for Active; 'I' for Inactive)
REMARK    1  A    between atoms: C_2  and  C_4
REMARK    2  A    between atoms: C_7  and  N_8
REMARK    3  A    between atoms: N_8  and  C_9
REMARK    4  A    between atoms: C_9  and  C_10
REMARK    5  A    between atoms: C_14  and  C_15
REMARK                            x       y       z     vdW  Elec       q    Type
REMARK                         _______ _______ _______ _____ _____    ______ ____
ROOT
ATOM      1  N   UNL     1      43.718   4.952   9.798  0.00  0.00    +0.000 N 
ATOM      2  H   UNL     1      42.995   5.388   9.231  0.00  0.00    +0.000 HD
ENDROOT
BRANCH   1   6
ATOM      3  C   UNL     1      46.264   2.178   7.908  0.00  0.00    +0.000 A 
ATOM      4  C   UNL     1      45.280   1.720   8.786  0.00  0.00    +0.000 A 
ATOM      5  C   UNL     1      44.399   2.627   9.384  0.00  0.00    +0.000 A 
ATOM      6  C   UNL     1      44.467   4.000   9.119  0.00  0.00    +0.000 A 
ATOM      7  C   UNL     1      45.468   4.442   8.239  0.00  0.00    +0.000 A 
ATOM      8  C   UNL     1      46.361   3.544   7.639  0.00  0.00    +0.000 A 
BRANCH   3  10
ATOM      9  N   UNL     1      48.358   1.808   6.719  0.00  0.00    +0.000 N 
ATOM     10  C   UNL     1      47.252   1.248   7.300  0.00  0.00    +0.000 C 
ATOM     11  O   UNL     1      47.102   0.035   7.336  0.00  0.00    +0.000 OA
ATOM     12  H   UNL     1      49.061   1.165   6.379  0.00  0.00    +0.000 HD
ATOM     13  H   UNL     1      48.630   2.767   6.874  0.00  0.00    +0.000 HD
ENDBRANCH   3  10
ENDBRANCH   1   6
BRANCH   1  14
ATOM     14  C   UNL     1      43.374   4.811  11.204  0.00  0.00    +0.000 C 
BRANCH  14  15
ATOM     15  C   UNL     1      44.578   5.093  12.054  0.00  0.00    +0.000 A 
ATOM     16  C   UNL     1      44.921   4.270  13.115  0.00  0.00    +0.000 A 
ATOM     17  N   UNL     1      46.016   4.450  13.878  0.00  0.00    +0.000 NA
ATOM     18  C   UNL     1      46.814   5.503  13.564  0.00  0.00    +0.000 A 
ATOM     19  C   UNL     1      46.598   6.399  12.513  0.00  0.00    +0.000 A 
ATOM     20  C   UNL     1      45.444   6.159  11.754  0.00  0.00    +0.000 A 
BRANCH  19  21
ATOM     21  C   UNL     1      47.517   7.519  12.224  0.00  0.00    +0.000 A 
ATOM     22  C   UNL     1      48.874   7.321  11.923  0.00  0.00    +0.000 A 
ATOM     23  C   UNL     1      49.710   8.402  11.636  0.00  0.00    +0.000 A 
ATOM     24  C   UNL     1      49.168   9.674  11.653  0.00  0.00    +0.000 A 
ATOM     25  N   UNL     1      47.877   9.926  11.942  0.00  0.00    +0.000 NA
ATOM     26  C   UNL     1      47.095   8.853  12.223  0.00  0.00    +0.000 A 
ENDBRANCH  19  21
ENDBRANCH  14  15
ENDBRANCH   1  14
TORSDOF 5
ENDMDL
MODEL 2
REMARK VINA RESULT:    -8.311      1.823      3.405
REMARK INTER + INTRA:         -11.610
REMARK INTER:                 -10.918
REMARK INTRA:                  -0.692
REMARK UNBOUND:                -0.870
REMARK  Name = 
REMARK  5 active torsions:
REMARK  status: ('A' for Active; 'I' for Inactive)
REMARK    1  A    between atoms: C_2  and  C_4
REMARK    2  A    between atoms: C_7  and  N_8
REMARK    3  A    between atoms: N_8  and  C_9
REMARK    4  A    between atoms: C_9  and  C_10
REMARK    5  A    between atoms: C_14  and  C_15
REMARK                            x       y       z     vdW  Elec       q    Type
REMARK                         _______ _______ _______ _____ _____    ______ ____
ROOT
ATOM      1  N   UNL     1      43.737   4.741   9.978  0.00  0.00    +0.000 N 
ATOM      2  H   UNL     1      42.829   4.726   9.520  0.00  0.00    +0.000 HD
ENDROOT
BRANCH   1   6
ATOM      3  C   UNL     1      46.450   2.382   7.779  0.00  0.00    +0.000 A 
ATOM      4  C   UNL     1      46.467   3.770   7.629  0.00  0.00    +0.000 A 
ATOM      5  C   UNL     1      45.603   4.568   8.387  0.00  0.00    +0.000 A 
ATOM      6  C   UNL     1      44.714   4.010   9.313  0.00  0.00    +0.000 A 
ATOM      7  C   UNL     1      44.706   2.613   9.445  0.00  0.00    +0.000 A 
ATOM      8  C   UNL     1      45.562   1.803   8.687  0.00  0.00    +0.000 A 
BRANCH   3  10
ATOM      9  N   UNL     1      48.404   2.083   6.356  0.00  0.00    +0.000 N 
ATOM     10  C   UNL     1      47.314   1.504   6.949  0.00  0.00    +0.000 C 
ATOM     11  O   UNL     1      47.083   0.310   6.817  0.00  0.00    +0.000 OA
ATOM     12  H   UNL     1      49.028   1.461   5.858  0.00  0.00    +0.000 HD
ATOM     13  H   UNL     1      48.755   2.989   6.625  0.00  0.00    +0.000 HD
ENDBRANCH   3  10
ENDBRANCH   1   6
BRANCH   1  14
ATOM     14  C   UNL     1      43.676   4.814  11.430  0.00  0.00    +0.000 C 
BRANCH  14  15
ATOM     15  C   UNL     1      44.912   5.482  11.958  0.00  0.00    +0.000 A 
ATOM     16  C   UNL     1      45.407   6.641  11.382  0.00  0.00    +0.000 A 
ATOM     17  N   UNL     1      46.483   7.305  11.847  0.00  0.00    +0.000 NA
ATOM     18  C   UNL     1      47.094   6.789  12.945  0.00  0.00    +0.000 A 
ATOM     19  C   UNL     1      46.691   5.642  13.633  0.00  0.00    +0.000 A 
ATOM     20  C   UNL     1      45.564   4.996  13.104  0.00  0.00    +0.000 A 
BRANCH  19  21
ATOM     21  C   UNL     1      47.400   5.144  14.830  0.00  0.00    +0.000 A 
ATOM     22  C   UNL     1      47.132   3.888  15.395  0.00  0.00    +0.000 A 
ATOM     23  C   UNL     1      47.835   3.441  16.515  0.00  0.00    +0.000 A 
ATOM     24  C   UNL     1      48.804   4.266  17.054  0.00  0.00    +0.000 A 
ATOM     25  N   UNL     1      49.099   5.484  16.562  0.00  0.00    +0.000 NA
ATOM     26  C   UNL     1      48.392   5.890  15.476  0.00  0.00    +0.000 A 
ENDBRANCH  19  21
ENDBRANCH  14  15
ENDBRANCH   1  14
TORSDOF 5
ENDMDL
MODEL 3
REMARK VINA RESULT:    -8.099      2.754      6.505
REMARK INTER + INTRA:         -11.336
REMARK INTER:                 -10.511
REMARK INTRA:                  -0.825
REMARK UNBOUND:                -0.870
REMARK  Name = 
REMARK  5 active torsions:
REMARK  status: ('A' for Active; 'I' for Inactive)
REMARK    1  A    between atoms: C_2  and  C_4
REMARK    2  A    between atoms: C_7  and  N_8
REMARK    3  A    between atoms: N_8  and  C_9
REMARK    4  A    between atoms: C_9  and  C_10
REMARK    5  A    between atoms: C_14  and  C_15
REMARK                            x       y       z     vdW  Elec       q    Type
REMARK                         _______ _______ _______ _____ _____    ______ ____
ROOT
ATOM      1  N   UNL     1      43.809   6.623  12.345  0.00  0.00    +0.000 N 
ATOM      2  H   UNL     1      43.335   7.403  12.793  0.00  0.00    +0.000 HD
ENDROOT
BRANCH   1   6
ATOM      3  C   UNL     1      47.939   6.855  13.151  0.00  0.00    +0.000 A 
ATOM      4  C   UNL     1      47.227   5.718  13.534  0.00  0.00    +0.000 A 
ATOM      5  C   UNL     1      45.865   5.608  13.232  0.00  0.00    +0.000 A 
ATOM      6  C   UNL     1      45.185   6.615  12.538  0.00  0.00    +0.000 A 
ATOM      7  C   UNL     1      45.916   7.755  12.167  0.00  0.00    +0.000 A 
ATOM      8  C   UNL     1      47.278   7.880  12.471  0.00  0.00    +0.000 A 
BRANCH   3  10
ATOM      9  N   UNL     1      50.220   7.408  12.503  0.00  0.00    +0.000 N 
ATOM     10  C   UNL     1      49.371   7.028  13.507  0.00  0.00    +0.000 C 
ATOM     11  O   UNL     1      49.776   6.864  14.649  0.00  0.00    +0.000 OA
ATOM     12  H   UNL     1      51.177   7.600  12.772  0.00  0.00    +0.000 HD
ATOM     13  H   UNL     1      49.895   7.776  11.623  0.00  0.00    +0.000 HD
ENDBRANCH   3  10
ENDBRANCH   1   6
BRANCH   1  14
ATOM     14  C   UNL     1      43.197   6.185  11.100  0.00  0.00    +0.000 C 
BRANCH  14  15
ATOM     15  C   UNL     1      43.577   4.760  10.820  0.00  0.00    +0.000 A 
ATOM     16  C   UNL     1      43.053   3.715  11.564  0.00  0.00    +0.000 A 
ATOM     17  N   UNL     1      43.323   2.418  11.323  0.00  0.00    +0.000 NA
ATOM     18  C   UNL     1      44.155   2.147  10.285  0.00  0.00    +0.000 A 
ATOM     19  C   UNL     1      44.737   3.099   9.444  0.00  0.00    +0.000 A 
ATOM     20  C   UNL     1      44.417   4.432   9.742  0.00  0.00    +0.000 A 
BRANCH  19  21
ATOM     21  C   UNL     1      45.627   2.731   8.324  0.00  0.00    +0.000 A 
ATOM     22  C   UNL     1      45.977   3.637   7.311  0.00  0.00    +0.000 A 
ATOM     23  C   UNL     1      46.836   3.260   6.277  0.00  0.00    +0.000 A 
ATOM     24  C   UNL     1      47.336   1.972   6.276  0.00  0.00    +0.000 A 
ATOM     25  N   UNL     1      47.030   1.056   7.215  0.00  0.00    +0.000 NA
ATOM     26  C   UNL     1      46.187   1.455   8.202  0.00  0.00    +0.000 A 
ENDBRANCH  19  21
ENDBRANCH  14  15
ENDBRANCH   1  14
TORSDOF 5
ENDMDL
MODEL 4
REMARK VINA RESULT:    -7.956      1.842      2.336
REMARK INTER + INTRA:         -11.151
REMARK INTER:                 -10.325
REMARK INTRA:                  -0.826
REMARK UNBOUND:                -0.870
REMARK  Name = 
REMARK  5 active torsions:
REMARK  status: ('A' for Active; 'I' for Inactive)
REMARK    1  A    between atoms: C_2  and  C_4
REMARK    2  A    between atoms: C_7  and  N_8
REMARK    3  A    between atoms: N_8  and  C_9
REMARK    4  A    between atoms: C_9  and  C_10
REMARK    5  A    between atoms: C_14  and  C_15
REMARK                            x       y       z     vdW  Elec       q    Type
REMARK                         _______ _______ _______ _____ _____    ______ ____
ROOT
ATOM      1  N   UNL     1      43.646   4.037  10.490  0.00  0.00    +0.000 N 
ATOM      2  H   UNL     1      42.652   3.968  10.286  0.00  0.00    +0.000 HD
ENDROOT
BRANCH   1   6
ATOM      3  C   UNL     1      46.387   2.460   7.706  0.00  0.00    +0.000 A 
ATOM      4  C   UNL     1      45.678   1.593   8.538  0.00  0.00    +0.000 A 
ATOM      5  C   UNL     1      44.731   2.100   9.435  0.00  0.00    +0.000 A 
ATOM      6  C   UNL     1      44.462   3.471   9.519  0.00  0.00    +0.000 A 
ATOM      7  C   UNL     1      45.191   4.328   8.679  0.00  0.00    +0.000 A 
ATOM      8  C   UNL     1      46.146   3.833   7.782  0.00  0.00    +0.000 A 
BRANCH   3  10
ATOM      9  N   UNL     1      48.473   2.810   6.498  0.00  0.00    +0.000 N 
ATOM     10  C   UNL     1      47.439   1.959   6.784  0.00  0.00    +0.000 C 
ATOM     11  O   UNL     1      47.403   0.830   6.316  0.00  0.00    +0.000 OA
ATOM     12  H   UNL     1      49.223   2.432   5.934  0.00  0.00    +0.000 HD
ATOM     13  H   UNL     1      48.660   3.642   7.036  0.00  0.00    +0.000 HD
ENDBRANCH   3  10
ENDBRANCH   1   6
BRANCH   1  14
ATOM     14  C   UNL     1      43.971   3.978  11.907  0.00  0.00    +0.000 C 
BRANCH  14  15
ATOM     15  C   UNL     1      44.863   5.129  12.273  0.00  0.00    +0.000 A 
ATOM     16  C   UNL     1      46.049   4.930  12.962  0.00  0.00    +0.000 A 
ATOM     17  N   UNL     1      46.908   5.921  13.272  0.00  0.00    +0.000 NA
ATOM     18  C   UNL     1      46.569   7.173  12.870  0.00  0.00    +0.000 A 
ATOM     19  C   UNL     1      45.417   7.511  12.156  0.00  0.00    +0.000 A 
ATOM     20  C   UNL     1      44.563   6.438  11.861  0.00  0.00    +0.000 A 
BRANCH  19  21
ATOM     21  C   UNL     1      45.118   8.897  11.743  0.00  0.00    +0.000 A 
ATOM     22  C   UNL     1      45.937   9.981  12.094  0.00  0.00    +0.000 A 
ATOM     23  C   UNL     1      45.634  11.277  11.671  0.00  0.00    +0.000 A 
ATOM     24  C   UNL     1      44.507  11.466  10.893  0.00  0.00    +0.000 A 
ATOM     25  N   UNL     1      43.678  10.468  10.532  0.00  0.00    +0.000 NA
ATOM     26  C   UNL     1      44.000   9.222  10.967  0.00  0.00    +0.000 A 
ENDBRANCH  19  21
ENDBRANCH  14  15
ENDBRANCH   1  14
TORSDOF 5
ENDMDL
MODEL 5
REMARK VINA RESULT:    -7.839      1.855      2.284
REMARK INTER + INTRA:         -11.000
REMARK INTER:                 -10.334
REMARK INTRA:                  -0.666
REMARK UNBOUND:                -0.870
REMARK  Name = 
REMARK  5 active torsions:
REMARK  status: ('A' for Active; 'I' for Inactive)
REMARK    1  A    between atoms: C_2  and  C_4
REMARK    2  A    between atoms: C_7  and  N_8
REMARK    3  A    between atoms: N_8  and  C_9
REMARK    4  A    between atoms: C_9  and  C_10
REMARK    5  A    between atoms: C_14  and  C_15
REMARK                            x       y       z     vdW  Elec       q    Type
REMARK                         _______ _______ _______ _____ _____    ______ ____
ROOT
ATOM      1  N   UNL     1      43.817   3.889  10.590  0.00  0.00    +0.000 N 
ATOM      2  H   UNL     1      42.853   3.566  10.559  0.00  0.00    +0.000 HD
ENDROOT
BRANCH   1   6
ATOM      3  C   UNL     1      46.441   2.687   7.520  0.00  0.00    +0.000 A 
ATOM      4  C   UNL     1      45.852   1.721   8.338  0.00  0.00    +0.000 A 
ATOM      5  C   UNL     1      44.943   2.103   9.331  0.00  0.00    +0.000 A 
ATOM      6  C   UNL     1      44.594   3.444   9.528  0.00  0.00    +0.000 A 
ATOM      7  C   UNL     1      45.202   4.402   8.701  0.00  0.00    +0.000 A 
ATOM      8  C   UNL     1      46.119   4.032   7.707  0.00  0.00    +0.000 A 
BRANCH   3  10
ATOM      9  N   UNL     1      47.431   3.024   5.321  0.00  0.00    +0.000 N 
ATOM     10  C   UNL     1      47.452   2.321   6.495  0.00  0.00    +0.000 C 
ATOM     11  O   UNL     1      48.285   1.448   6.694  0.00  0.00    +0.000 OA
ATOM     12  H   UNL     1      48.172   2.822   4.662  0.00  0.00    +0.000 HD
ATOM     13  H   UNL     1      46.927   3.891   5.212  0.00  0.00    +0.000 HD
ENDBRANCH   3  10
ENDBRANCH   1   6
BRANCH   1  14
ATOM     14  C   UNL     1      44.354   4.042  11.934  0.00  0.00    +0.000 C 
BRANCH  14  15
ATOM     15  C   UNL     1      44.983   5.397  12.079  0.00  0.00    +0.000 A 
ATOM     16  C   UNL     1      44.341   6.541  11.631  0.00  0.00    +0.000 A 
ATOM     17  N   UNL     1      44.839   7.784  11.780  0.00  0.00    +0.000 NA
ATOM     18  C   UNL     1      46.037   7.892  12.411  0.00  0.00    +0.000 A 
ATOM     19  C   UNL     1      46.781   6.828  12.927  0.00  0.00    +0.000 A 
ATOM     20  C   UNL     1      46.211   5.559  12.744  0.00  0.00    +0.000 A 
BRANCH  19  21
ATOM     21  C   UNL     1      48.075   7.022  13.612  0.00  0.00    +0.000 A 
ATOM     22  C   UNL     1      49.081   7.855  13.099  0.00  0.00    +0.000 A 
ATOM     23  C   UNL     1      50.285   8.031  13.782  0.00  0.00    +0.000 A 
ATOM     24  C   UNL     1      50.462   7.366  14.981  0.00  0.00    +0.000 A 
ATOM     25  N   UNL     1      49.538   6.547  15.519  0.00  0.00    +0.000 NA
ATOM     26  C   UNL     1      48.382   6.394  14.824  0.00  0.00    +0.000 A 
ENDBRANCH  19  21
ENDBRANCH  14  15
ENDBRANCH   1  14
TORSDOF 5
ENDMDL
MODEL 6
REMARK VINA RESULT:    -7.766      2.778      6.724
REMARK INTER + INTRA:         -10.906
REMARK INTER:                 -10.066
REMARK INTRA:                  -0.839
REMARK UNBOUND:                -0.870
REMARK  Name = 
REMARK  5 active torsions:
REMARK  status: ('A' for Active; 'I' for Inactive)
REMARK    1  A    between atoms: C_2  and  C_4
REMARK    2  A    between atoms: C_7  and  N_8
REMARK    3  A    between atoms: N_8  and  C_9
REMARK    4  A    between atoms: C_9  and  C_10
REMARK    5  A    between atoms: C_14  and  C_15
REMARK                            x       y       z     vdW  Elec       q    Type
REMARK                         _______ _______ _______ _____ _____    ______ ____
ROOT
ATOM      1  N   UNL     1      44.460   6.582  12.679  0.00  0.00    +0.000 N 
ATOM      2  H   UNL     1      43.890   6.884  13.466  0.00  0.00    +0.000 HD
ENDROOT
BRANCH   1   6
ATOM      3  C   UNL     1      48.397   8.051  12.363  0.00  0.00    +0.000 A 
ATOM      4  C   UNL     1      47.322   8.930  12.222  0.00  0.00    +0.000 A 
ATOM      5  C   UNL     1      46.011   8.464  12.370  0.00  0.00    +0.000 A 
ATOM      6  C   UNL     1      45.739   7.124  12.670  0.00  0.00    +0.000 A 
ATOM      7  C   UNL     1      46.833   6.253  12.801  0.00  0.00    +0.000 A 
ATOM      8  C   UNL     1      48.150   6.707  12.648  0.00  0.00    +0.000 A 
BRANCH   3  10
ATOM      9  N   UNL     1      50.772   7.540  12.186  0.00  0.00    +0.000 N 
ATOM     10  C   UNL     1      49.797   8.502  12.155  0.00  0.00    +0.000 C 
ATOM     11  O   UNL     1      50.072   9.674  11.941  0.00  0.00    +0.000 OA
ATOM     12  H   UNL     1      51.711   7.845  11.966  0.00  0.00    +0.000 HD
ATOM     13  H   UNL     1      50.568   6.555  12.124  0.00  0.00    +0.000 HD
ENDBRANCH   3  10
ENDBRANCH   1   6
BRANCH   1  14
ATOM     14  C   UNL     1      43.712   6.338  11.456  0.00  0.00    +0.000 C 
BRANCH  14  15
ATOM     15  C   UNL     1      43.860   4.901  11.047  0.00  0.00    +0.000 A 
ATOM     16  C   UNL     1      43.144   3.895  11.676  0.00  0.00    +0.000 A 
ATOM     17  N   UNL     1      43.204   2.598  11.316  0.00  0.00    +0.000 NA
ATOM     18  C   UNL     1      44.016   2.289  10.273  0.00  0.00    +0.000 A 
ATOM     19  C   UNL     1      44.777   3.203   9.540  0.00  0.00    +0.000 A 
ATOM     20  C   UNL     1      44.672   4.537   9.960  0.00  0.00    +0.000 A 
BRANCH  19  21
ATOM     21  C   UNL     1      45.634   2.794   8.407  0.00  0.00    +0.000 A 
ATOM     22  C   UNL     1      45.979   3.674   7.369  0.00  0.00    +0.000 A 
ATOM     23  C   UNL     1      46.805   3.260   6.323  0.00  0.00    +0.000 A 
ATOM     24  C   UNL     1      47.279   1.961   6.336  0.00  0.00    +0.000 A 
ATOM     25  N   UNL     1      46.976   1.070   7.299  0.00  0.00    +0.000 NA
ATOM     26  C   UNL     1      46.164   1.505   8.297  0.00  0.00    +0.000 A 
ENDBRANCH  19  21
ENDBRANCH  14  15
ENDBRANCH   1  14
TORSDOF 5
ENDMDL
MODEL 7
REMARK VINA RESULT:    -7.291      2.971      7.079
REMARK INTER + INTRA:         -10.292
REMARK INTER:                  -9.820
REMARK INTRA:                  -0.472
REMARK UNBOUND:                -0.870
REMARK  Name = 
REMARK  5 active torsions:
REMARK  status: ('A' for Active; 'I' for Inactive)
REMARK    1  A    between atoms: C_2  and  C_4
REMARK    2  A    between atoms: C_7  and  N_8
REMARK    3  A    between atoms: N_8  and  C_9
REMARK    4  A    between atoms: C_9  and  C_10
REMARK    5  A    between atoms: C_14  and  C_15
REMARK                            x       y       z     vdW  Elec       q    Type
REMARK                         _______ _______ _______ _____ _____    ______ ____
ROOT
ATOM      1  N   UNL     1      47.390   6.715  12.253  0.00  0.00    +0.000 N 
ATOM      2  H   UNL     1      48.026   6.424  11.514  0.00  0.00    +0.000 HD
ENDROOT
BRANCH   1   6
ATOM      3  C   UNL     1      47.445   4.602  15.898  0.00  0.00    +0.000 A 
ATOM      4  C   UNL     1      46.760   4.069  14.805  0.00  0.00    +0.000 A 
ATOM      5  C   UNL     1      46.772   4.738  13.576  0.00  0.00    +0.000 A 
ATOM      6  C   UNL     1      47.469   5.939  13.402  0.00  0.00    +0.000 A 
ATOM      7  C   UNL     1      48.146   6.463  14.515  0.00  0.00    +0.000 A 
ATOM      8  C   UNL     1      48.135   5.807  15.752  0.00  0.00    +0.000 A 
BRANCH   3  10
ATOM      9  N   UNL     1      48.185   4.491  18.216  0.00  0.00    +0.000 N 
ATOM     10  C   UNL     1      47.405   3.947  17.230  0.00  0.00    +0.000 C 
ATOM     11  O   UNL     1      46.690   2.979  17.452  0.00  0.00    +0.000 OA
ATOM     12  H   UNL     1      48.090   4.087  19.139  0.00  0.00    +0.000 HD
ATOM     13  H   UNL     1      48.596   5.408  18.142  0.00  0.00    +0.000 HD
ENDBRANCH   3  10
ENDBRANCH   1   6
BRANCH   1  14
ATOM     14  C   UNL     1      46.132   7.269  11.775  0.00  0.00    +0.000 C 
BRANCH  14  15
ATOM     15  C   UNL     1      45.327   6.197  11.100  0.00  0.00    +0.000 A 
ATOM     16  C   UNL     1      43.955   6.107  11.277  0.00  0.00    +0.000 A 
ATOM     17  N   UNL     1      43.181   5.196  10.658  0.00  0.00    +0.000 NA
ATOM     18  C   UNL     1      43.805   4.332   9.816  0.00  0.00    +0.000 A 
ATOM     19  C   UNL     1      45.173   4.323   9.532  0.00  0.00    +0.000 A 
ATOM     20  C   UNL     1      45.927   5.296  10.205  0.00  0.00    +0.000 A 
BRANCH  19  21
ATOM     21  C   UNL     1      45.782   3.358   8.595  0.00  0.00    +0.000 A 
ATOM     22  C   UNL     1      46.418   3.758   7.409  0.00  0.00    +0.000 A 
ATOM     23  C   UNL     1      47.000   2.820   6.555  0.00  0.00    +0.000 A 
ATOM     24  C   UNL     1      46.938   1.485   6.907  0.00  0.00    +0.000 A 
ATOM     25  N   UNL     1      46.335   1.039   8.026  0.00  0.00    +0.000 NA
ATOM     26  C   UNL     1      45.774   1.979   8.830  0.00  0.00    +0.000 A 
ENDBRANCH  19  21
ENDBRANCH  14  15
ENDBRANCH   1  14
TORSDOF 5
ENDMDL
MODEL 8
REMARK VINA RESULT:    -6.510      3.196      7.018
REMARK INTER + INTRA:          -9.283
REMARK INTER:                  -9.154
REMARK INTRA:                  -0.129
REMARK UNBOUND:                -0.870
REMARK  Name = 
REMARK  5 active torsions:
REMARK  status: ('A' for Active; 'I' for Inactive)
REMARK    1  A    between atoms: C_2  and  C_4
REMARK    2  A    between atoms: C_7  and  N_8
REMARK    3  A    between atoms: N_8  and  C_9
REMARK    4  A    between atoms: C_9  and  C_10
REMARK    5  A    between atoms: C_14  and  C_15
REMARK                            x       y       z     vdW  Elec       q    Type
REMARK                         _______ _______ _______ _____ _____    ______ ____
ROOT
ATOM      1  N   UNL     1      46.610   5.631  13.047  0.00  0.00    +0.000 N 
ATOM      2  H   UNL     1      47.517   5.660  13.506  0.00  0.00    +0.000 HD
ENDROOT
BRANCH   1   6
ATOM      3  C   UNL     1      44.949   9.322  11.877  0.00  0.00    +0.000 A 
ATOM      4  C   UNL     1      46.019   9.303  12.772  0.00  0.00    +0.000 A 
ATOM      5  C   UNL     1      46.609   8.087  13.134  0.00  0.00    +0.000 A 
ATOM      6  C   UNL     1      46.160   6.870  12.609  0.00  0.00    +0.000 A 
ATOM      7  C   UNL     1      45.078   6.908  11.716  0.00  0.00    +0.000 A 
ATOM      8  C   UNL     1      44.473   8.119  11.352  0.00  0.00    +0.000 A 
BRANCH   3  10
ATOM      9  N   UNL     1      43.048  10.828  12.102  0.00  0.00    +0.000 N 
ATOM     10  C   UNL     1      44.263  10.590  11.517  0.00  0.00    +0.000 C 
ATOM     11  O   UNL     1      44.767  11.402  10.754  0.00  0.00    +0.000 OA
ATOM     12  H   UNL     1      42.626  11.728  11.912  0.00  0.00    +0.000 HD
ATOM     13  H   UNL     1      42.715  10.310  12.900  0.00  0.00    +0.000 HD
ENDBRANCH   3  10
ENDBRANCH   1   6
BRANCH   1  14
ATOM     14  C   UNL     1      45.706   4.617  13.570  0.00  0.00    +0.000 C 
BRANCH  14  15
ATOM     15  C   UNL     1      45.031   3.903  12.435  0.00  0.00    +0.000 A 
ATOM     16  C   UNL     1      43.723   3.456  12.541  0.00  0.00    +0.000 A 
ATOM     17  N   UNL     1      43.056   2.854  11.538  0.00  0.00    +0.000 NA
ATOM     18  C   UNL     1      43.725   2.693  10.367  0.00  0.00    +0.000 A 
ATOM     19  C   UNL     1      45.035   3.112  10.118  0.00  0.00    +0.000 A 
ATOM     20  C   UNL     1      45.677   3.733  11.199  0.00  0.00    +0.000 A 
BRANCH  19  21
ATOM     21  C   UNL     1      45.697   2.912   8.813  0.00  0.00    +0.000 A 
ATOM     22  C   UNL     1      46.153   1.655   8.385  0.00  0.00    +0.000 A 
ATOM     23  C   UNL     1      46.758   1.499   7.136  0.00  0.00    +0.000 A 
ATOM     24  C   UNL     1      46.894   2.613   6.329  0.00  0.00    +0.000 A 
ATOM     25  N   UNL     1      46.484   3.844   6.688  0.00  0.00    +0.000 NA
ATOM     26  C   UNL     1      45.906   3.961   7.911  0.00  0.00    +0.000 A 
ENDBRANCH  19  21
ENDBRANCH  14  15
ENDBRANCH   1  14
TORSDOF 5
ENDMDL
MODEL 9
REMARK VINA RESULT:    -6.159      4.739      8.081
REMARK INTER + INTRA:          -8.829
REMARK INTER:                  -8.132
REMARK INTRA:                  -0.697
REMARK UNBOUND:                -0.870
REMARK  Name = 
REMARK  5 active torsions:
REMARK  status: ('A' for Active; 'I' for Inactive)
REMARK    1  A    between atoms: C_2  and  C_4
REMARK    2  A    between atoms: C_7  and  N_8
REMARK    3  A    between atoms: N_8  and  C_9
REMARK    4  A    between atoms: C_9  and  C_10
REMARK    5  A    between atoms: C_14  and  C_15
REMARK                            x       y       z     vdW  Elec       q    Type
REMARK                         _______ _______ _______ _____ _____    ______ ____
ROOT
ATOM      1  N   UNL     1      48.492   5.608  16.634  0.00  0.00    +0.000 N 
ATOM      2  H   UNL     1      47.743   5.783  17.300  0.00  0.00    +0.000 HD
ENDROOT
BRANCH   1   6
ATOM      3  C   UNL     1      51.179   2.482  17.507  0.00  0.00    +0.000 A 
ATOM      4  C   UNL     1      51.598   3.806  17.642  0.00  0.00    +0.000 A 
ATOM      5  C   UNL     1      50.702   4.853  17.400  0.00  0.00    +0.000 A 
ATOM      6  C   UNL     1      49.375   4.611  17.030  0.00  0.00    +0.000 A 
ATOM      7  C   UNL     1      48.973   3.273  16.891  0.00  0.00    +0.000 A 
ATOM      8  C   UNL     1      49.863   2.216  17.124  0.00  0.00    +0.000 A 
BRANCH   3  10
ATOM      9  N   UNL     1      51.590   0.170  18.156  0.00  0.00    +0.000 N 
ATOM     10  C   UNL     1      52.120   1.349  17.701  0.00  0.00    +0.000 C 
ATOM     11  O   UNL     1      53.311   1.448  17.444  0.00  0.00    +0.000 OA
ATOM     12  H   UNL     1      52.224  -0.617  18.209  0.00  0.00    +0.000 HD
ATOM     13  H   UNL     1      50.600  -0.020  18.152  0.00  0.00    +0.000 HD
ENDBRANCH   3  10
ENDBRANCH   1   6
BRANCH   1  14
ATOM     14  C   UNL     1      48.930   6.787  15.902  0.00  0.00    +0.000 C 
BRANCH  14  15
ATOM     15  C   UNL     1      48.368   6.759  14.510  0.00  0.00    +0.000 A 
ATOM     16  C   UNL     1      48.992   7.425  13.468  0.00  0.00    +0.000 A 
ATOM     17  N   UNL     1      48.556   7.393  12.194  0.00  0.00    +0.000 NA
ATOM     18  C   UNL     1      47.443   6.655  11.945  0.00  0.00    +0.000 A 
ATOM     19  C   UNL     1      46.729   5.921  12.896  0.00  0.00    +0.000 A 
ATOM     20  C   UNL     1      47.231   5.992  14.203  0.00  0.00    +0.000 A 
BRANCH  19  21
ATOM     21  C   UNL     1      45.530   5.130  12.550  0.00  0.00    +0.000 A 
ATOM     22  C   UNL     1      44.383   5.710  11.984  0.00  0.00    +0.000 A 
ATOM     23  C   UNL     1      43.274   4.929  11.653  0.00  0.00    +0.000 A 
ATOM     24  C   UNL     1      43.333   3.569  11.894  0.00  0.00    +0.000 A 
ATOM     25  N   UNL     1      44.401   2.958  12.442  0.00  0.00    +0.000 NA
ATOM     26  C   UNL     1      45.459   3.748  12.758  0.00  0.00    +0.000 A 
ENDBRANCH  19  21
ENDBRANCH  14  15
ENDBRANCH   1  14
TORSDOF 5
ENDMDL
