MODEL 1
REMARK VINA RESULT:    -7.740      0.000      0.000
REMARK INTER + INTRA:         -10.329
REMARK INTER:                  -9.549
REMARK INTRA:                  -0.780
REMARK UNBOUND:                -0.780
REMARK  Name = 
REMARK  4 active torsions:
REMARK  status: ('A' for Active; 'I' for Inactive)
REMARK    1  A    between atoms: C_2  and  C_3
REMARK    2  A    between atoms: C_6  and  C_7
REMARK    3  A    between atoms: C_7  and  C_8
REMARK    4  A    between atoms: C_13  and  N_14
REMARK                            x       y       z     vdW  Elec       q    Type
REMARK                         _______ _______ _______ _____ _____    ______ ____
ROOT
ATOM      1  C   UNL     1      45.336   4.944  11.985  0.00  0.00    +0.000 A 
ATOM      2  C   UNL     1      45.667   4.271  13.169  0.00  0.00    +0.000 A 
ATOM      3  C   UNL     1      46.707   4.726  13.977  0.00  0.00    +0.000 A 
ATOM      4  C   UNL     1      47.403   5.882  13.629  0.00  0.00    +0.000 A 
ATOM      5  F   UNL     1      48.452   6.231  14.391  0.00  0.00    +0.000 F 
ATOM      6  C   UNL     1      47.030   6.661  12.525  0.00  0.00    +0.000 A 
ATOM      7  C   UNL     1      45.970   6.177  11.739  0.00  0.00    +0.000 A 
ENDROOT
BRANCH   6   8
ATOM      8  N   UNL     1      47.675   7.821  12.106  0.00  0.00    +0.000 N 
ATOM      9  C   UNL     1      49.012   7.771  11.494  0.00  0.00    +0.000 C 
ATOM     10  C   UNL     1      50.110   8.330  12.423  0.00  0.00    +0.000 C 
ATOM     11  N   UNL     1      49.784   9.657  12.992  0.00  0.00    +0.000 NA
ATOM     12  C   UNL     1      48.499   9.542  13.713  0.00  0.00    +0.000 C 
ATOM     13  C   UNL     1      47.334   9.065  12.819  0.00  0.00    +0.000 C 
ATOM     14  H   UNL     1      49.650  10.304  12.215  0.00  0.00    +0.000 HD
ENDBRANCH   6   8
BRANCH   1  15
ATOM     15  C   UNL     1      44.497   4.264  10.900  0.00  0.00    +0.000 C 
ATOM     16  C   UNL     1      43.228   3.540  11.369  0.00  0.00    +0.000 C 
ATOM     17  C   UNL     1      43.100   4.869  10.706  0.00  0.00    +0.000 C 
BRANCH  15  21
ATOM     18  C   UNL     1      46.663   2.685   7.453  0.00  0.00    +0.000 A 
ATOM     19  C   UNL     1      46.539   4.064   7.629  0.00  0.00    +0.000 A 
ATOM     20  C   UNL     1      45.819   4.573   8.720  0.00  0.00    +0.000 A 
ATOM     21  C   UNL     1      45.211   3.722   9.661  0.00  0.00    +0.000 A 
ATOM     22  C   UNL     1      45.324   2.339   9.438  0.00  0.00    +0.000 A 
ATOM     23  C   UNL     1      46.043   1.822   8.354  0.00  0.00    +0.000 A 
BRANCH  18  25
ATOM     24  N   UNL     1      48.068   1.730   5.489  0.00  0.00    +0.000 NA
ATOM     25  C   UNL     1      47.435   2.152   6.363  0.00  0.00    +0.000 C 
ENDBRANCH  18  25
ENDBRANCH  15  21
ENDBRANCH   1  15
TORSDOF 4
ENDMDL
MODEL 2
REMARK VINA RESULT:    -7.064      2.850      4.018
REMARK INTER + INTRA:          -9.496
REMARK INTER:                  -9.046
REMARK INTRA:                  -0.451
REMARK UNBOUND:                -0.780
REMARK  Name = 
REMARK  4 active torsions:
REMARK  status: ('A' for Active; 'I' for Inactive)
REMARK    1  A    between atoms: C_2  and  C_3
REMARK    2  A    between atoms: C_6  and  C_7
REMARK    3  A    between atoms: C_7  and  C_8
REMARK    4  A    between atoms: C_13  and  N_14
REMARK                            x       y       z     vdW  Elec       q    Type
REMARK                         _______ _______ _______ _____ _____    ______ ____
ROOT
ATOM      1  C   UNL     1      46.160   4.966  13.045  0.00  0.00    +0.000 A 
ATOM      2  C   UNL     1      46.923   6.127  12.857  0.00  0.00    +0.000 A 
ATOM      3  C   UNL     1      47.771   6.589  13.861  0.00  0.00    +0.000 A 
ATOM      4  C   UNL     1      47.895   5.872  15.050  0.00  0.00    +0.000 A 
ATOM      5  F   UNL     1      48.658   6.403  16.020  0.00  0.00    +0.000 F 
ATOM      6  C   UNL     1      47.254   4.640  15.238  0.00  0.00    +0.000 A 
ATOM      7  C   UNL     1      46.414   4.201  14.199  0.00  0.00    +0.000 A 
ENDROOT
BRANCH   6   8
ATOM      8  N   UNL     1      47.321   3.868  16.393  0.00  0.00    +0.000 N 
ATOM      9  C   UNL     1      47.080   4.459  17.719  0.00  0.00    +0.000 C 
ATOM     10  C   UNL     1      48.370   4.574  18.558  0.00  0.00    +0.000 C 
ATOM     11  N   UNL     1      49.151   3.318  18.619  0.00  0.00    +0.000 NA
ATOM     12  C   UNL     1      49.465   2.908  17.234  0.00  0.00    +0.000 C 
ATOM     13  C   UNL     1      48.210   2.694  16.358  0.00  0.00    +0.000 C 
ATOM     14  H   UNL     1      48.553   2.600  19.029  0.00  0.00    +0.000 HD
ENDBRANCH   6   8
BRANCH   1  15
ATOM     15  C   UNL     1      44.953   4.663  12.155  0.00  0.00    +0.000 C 
ATOM     16  C   UNL     1      43.720   4.071  12.849  0.00  0.00    +0.000 C 
ATOM     17  C   UNL     1      43.710   5.511  12.460  0.00  0.00    +0.000 C 
BRANCH  15  21
ATOM     18  C   UNL     1      45.808   3.496   8.034  0.00  0.00    +0.000 A 
ATOM     19  C   UNL     1      45.971   4.823   8.432  0.00  0.00    +0.000 A 
ATOM     20  C   UNL     1      45.670   5.206   9.748  0.00  0.00    +0.000 A 
ATOM     21  C   UNL     1      45.203   4.277  10.696  0.00  0.00    +0.000 A 
ATOM     22  C   UNL     1      45.016   2.955  10.255  0.00  0.00    +0.000 A 
ATOM     23  C   UNL     1      45.318   2.563   8.946  0.00  0.00    +0.000 A 
BRANCH  18  25
ATOM     24  N   UNL     1      46.443   2.741   5.632  0.00  0.00    +0.000 NA
ATOM     25  C   UNL     1      46.156   3.083   6.700  0.00  0.00    +0.000 C 
ENDBRANCH  18  25
ENDBRANCH  15  21
ENDBRANCH   1  15
TORSDOF 4
ENDMDL
MODEL 3
REMARK VINA RESULT:    -7.044      1.531      2.175
REMARK INTER + INTRA:          -9.471
REMARK INTER:                  -9.053
REMARK INTRA:                  -0.418
REMARK UNBOUND:                -0.780
REMARK  Name = 
REMARK  4 active torsions:
REMARK  status: ('A' for Active; 'I' for Inactive)
REMARK    1  A    between atoms: C_2  and  C_3
REMARK    2  A    between atoms: C_6  and  C_7
REMARK    3  A    between atoms: C_7  and  C_8
REMARK    4  A    between atoms: C_13  and  N_14
REMARK                            x       y       z     vdW  Elec       q    Type
REMARK                         _______ _______ _______ _____ _____    ______ ____
ROOT
ATOM      1  C   UNL     1      45.251   6.416  11.444  0.00  0.00    +0.000 A 
ATOM      2  C   UNL     1      44.681   7.694  11.523  0.00  0.00    +0.000 A 
ATOM      3  C   UNL     1      45.310   8.708  12.241  0.00  0.00    +0.000 A 
ATOM      4  C   UNL     1      46.537   8.466  12.857  0.00  0.00    +0.000 A 
ATOM      5  F   UNL     1      47.061   9.447  13.609  0.00  0.00    +0.000 F 
ATOM      6  C   UNL     1      47.210   7.246  12.703  0.00  0.00    +0.000 A 
ATOM      7  C   UNL     1      46.549   6.249  11.962  0.00  0.00    +0.000 A 
ENDROOT
BRANCH   6   8
ATOM      8  N   UNL     1      48.430   6.922  13.287  0.00  0.00    +0.000 N 
ATOM      9  C   UNL     1      48.538   6.670  14.733  0.00  0.00    +0.000 C 
ATOM     10  C   UNL     1      49.275   7.803  15.478  0.00  0.00    +0.000 C 
ATOM     11  N   UNL     1      50.565   8.177  14.858  0.00  0.00    +0.000 NA
ATOM     12  C   UNL     1      50.305   8.559  13.454  0.00  0.00    +0.000 C 
ATOM     13  C   UNL     1      49.641   7.436  12.626  0.00  0.00    +0.000 C 
ATOM     14  H   UNL     1      51.160   7.348  14.851  0.00  0.00    +0.000 HD
ENDBRANCH   6   8
BRANCH   1  15
ATOM     15  C   UNL     1      44.415   5.206  11.019  0.00  0.00    +0.000 C 
ATOM     16  C   UNL     1      43.516   4.582  12.095  0.00  0.00    +0.000 C 
ATOM     17  C   UNL     1      42.899   5.441  11.043  0.00  0.00    +0.000 C 
BRANCH  15  21
ATOM     18  C   UNL     1      46.122   2.538   8.012  0.00  0.00    +0.000 A 
ATOM     19  C   UNL     1      46.275   3.919   7.888  0.00  0.00    +0.000 A 
ATOM     20  C   UNL     1      45.703   4.780   8.837  0.00  0.00    +0.000 A 
ATOM     21  C   UNL     1      44.971   4.284   9.932  0.00  0.00    +0.000 A 
ATOM     22  C   UNL     1      44.805   2.890  10.011  0.00  0.00    +0.000 A 
ATOM     23  C   UNL     1      45.376   2.025   9.071  0.00  0.00    +0.000 A 
BRANCH  18  25
ATOM     24  N   UNL     1      47.253   0.928   6.316  0.00  0.00    +0.000 NA
ATOM     25  C   UNL     1      46.742   1.645   7.070  0.00  0.00    +0.000 C 
ENDBRANCH  18  25
ENDBRANCH  15  21
ENDBRANCH   1  15
TORSDOF 4
ENDMDL
MODEL 4
REMARK VINA RESULT:    -6.407      2.327      6.778
REMARK INTER + INTRA:          -8.686
REMARK INTER:                  -8.246
REMARK INTRA:                  -0.439
REMARK UNBOUND:                -0.780
REMARK  Name = 
REMARK  4 active torsions:
REMARK  status: ('A' for Active; 'I' for Inactive)
REMARK    1  A    between atoms: C_2  and  C_3
REMARK    2  A    between atoms: C_6  and  C_7
REMARK    3  A    between atoms: C_7  and  C_8
REMARK    4  A    between atoms: C_13  and  N_14
REMARK                            x       y       z     vdW  Elec       q    Type
REMARK                         _______ _______ _______ _____ _____    ______ ____
ROOT
ATOM      1  C   UNL     1      45.418   5.528  12.031  0.00  0.00    +0.000 A 
ATOM      2  C   UNL     1      44.780   4.915  13.118  0.00  0.00    +0.000 A 
ATOM      3  C   UNL     1      44.015   3.765  12.936  0.00  0.00    +0.000 A 
ATOM      4  C   UNL     1      43.910   3.194  11.669  0.00  0.00    +0.000 A 
ATOM      5  F   UNL     1      43.092   2.138  11.528  0.00  0.00    +0.000 F 
ATOM      6  C   UNL     1      44.629   3.694  10.574  0.00  0.00    +0.000 A 
ATOM      7  C   UNL     1      45.399   4.849  10.798  0.00  0.00    +0.000 A 
ENDROOT
BRANCH   6   8
ATOM      8  N   UNL     1      44.574   3.187   9.279  0.00  0.00    +0.000 N 
ATOM      9  C   UNL     1      44.804   1.759   9.011  0.00  0.00    +0.000 C 
ATOM     10  C   UNL     1      46.153   1.497   8.309  0.00  0.00    +0.000 C 
ATOM     11  N   UNL     1      46.378   2.352   7.122  0.00  0.00    +0.000 NA
ATOM     12  C   UNL     1      46.276   3.763   7.549  0.00  0.00    +0.000 C 
ATOM     13  C   UNL     1      44.914   4.115   8.187  0.00  0.00    +0.000 C 
ATOM     14  H   UNL     1      45.622   2.171   6.460  0.00  0.00    +0.000 HD
ENDBRANCH   6   8
BRANCH   1  15
ATOM     15  C   UNL     1      45.915   6.973  12.121  0.00  0.00    +0.000 C 
ATOM     16  C   UNL     1      45.273   7.981  11.159  0.00  0.00    +0.000 C 
ATOM     17  C   UNL     1      44.857   7.981  12.591  0.00  0.00    +0.000 C 
BRANCH  15  21
ATOM     18  C   UNL     1      50.002   7.801  13.421  0.00  0.00    +0.000 A 
ATOM     19  C   UNL     1      49.600   8.131  12.126  0.00  0.00    +0.000 A 
ATOM     20  C   UNL     1      48.296   7.840  11.696  0.00  0.00    +0.000 A 
ATOM     21  C   UNL     1      47.363   7.218  12.548  0.00  0.00    +0.000 A 
ATOM     22  C   UNL     1      47.809   6.866  13.834  0.00  0.00    +0.000 A 
ATOM     23  C   UNL     1      49.106   7.157  14.271  0.00  0.00    +0.000 A 
BRANCH  18  25
ATOM     24  N   UNL     1      52.380   8.415  14.264  0.00  0.00    +0.000 NA
ATOM     25  C   UNL     1      51.321   8.135  13.885  0.00  0.00    +0.000 C 
ENDBRANCH  18  25
ENDBRANCH  15  21
ENDBRANCH   1  15
TORSDOF 4
ENDMDL
MODEL 5
REMARK VINA RESULT:    -5.858      2.984      6.769
REMARK INTER + INTRA:          -8.008
REMARK INTER:                  -7.585
REMARK INTRA:                  -0.423
REMARK UNBOUND:                -0.780
REMARK  Name = 
REMARK  4 active torsions:
REMARK  status: ('A' for Active; 'I' for Inactive)
REMARK    1  A    between atoms: C_2  and  C_3
REMARK    2  A    between atoms: C_6  and  C_7
REMARK    3  A    between atoms: C_7  and  C_8
REMARK    4  A    between atoms: C_13  and  N_14
REMARK                            x       y       z     vdW  Elec       q    Type
REMARK                         _______ _______ _______ _____ _____    ______ ____
ROOT
ATOM      1  C   UNL     1      48.142   7.390  12.415  0.00  0.00    +0.000 A 
ATOM      2  C   UNL     1      48.417   6.722  13.616  0.00  0.00    +0.000 A 
ATOM      3  C   UNL     1      47.555   5.738  14.094  0.00  0.00    +0.000 A 
ATOM      4  C   UNL     1      46.427   5.383  13.356  0.00  0.00    +0.000 A 
ATOM      5  F   UNL     1      45.582   4.492  13.900  0.00  0.00    +0.000 F 
ATOM      6  C   UNL     1      46.174   5.928  12.090  0.00  0.00    +0.000 A 
ATOM      7  C   UNL     1      47.072   6.911  11.635  0.00  0.00    +0.000 A 
ENDROOT
BRANCH   6   8
ATOM      8  N   UNL     1      45.072   5.633  11.294  0.00  0.00    +0.000 N 
ATOM      9  C   UNL     1      43.739   6.171  11.610  0.00  0.00    +0.000 C 
ATOM     10  C   UNL     1      42.773   5.088  12.134  0.00  0.00    +0.000 C 
ATOM     11  N   UNL     1      42.722   3.879  11.282  0.00  0.00    +0.000 NA
ATOM     12  C   UNL     1      44.094   3.342  11.166  0.00  0.00    +0.000 C 
ATOM     13  C   UNL     1      45.100   4.351  10.569  0.00  0.00    +0.000 C 
ATOM     14  H   UNL     1      42.420   4.167  10.351  0.00  0.00    +0.000 HD
ENDBRANCH   6   8
BRANCH   1  15
ATOM     15  C   UNL     1      48.826   8.715  12.075  0.00  0.00    +0.000 C 
ATOM     16  C   UNL     1      47.906   9.910  11.791  0.00  0.00    +0.000 C 
ATOM     17  C   UNL     1      48.602   9.829  13.108  0.00  0.00    +0.000 C 
BRANCH  15  21
ATOM     18  C   UNL     1      52.616   8.628   9.907  0.00  0.00    +0.000 A 
ATOM     19  C   UNL     1      51.999   7.434  10.283  0.00  0.00    +0.000 A 
ATOM     20  C   UNL     1      50.796   7.460  11.005  0.00  0.00    +0.000 A 
ATOM     21  C   UNL     1      50.179   8.674  11.364  0.00  0.00    +0.000 A 
ATOM     22  C   UNL     1      50.844   9.858  11.001  0.00  0.00    +0.000 A 
ATOM     23  C   UNL     1      52.042   9.842  10.277  0.00  0.00    +0.000 A 
BRANCH  18  25
ATOM     24  N   UNL     1      54.805   8.611   8.510  0.00  0.00    +0.000 NA
ATOM     25  C   UNL     1      53.826   8.613   9.129  0.00  0.00    +0.000 C 
ENDBRANCH  18  25
ENDBRANCH  15  21
ENDBRANCH   1  15
TORSDOF 4
ENDMDL
MODEL 6
REMARK VINA RESULT:    -5.856      3.820      6.012
REMARK INTER + INTRA:          -8.006
REMARK INTER:                  -7.360
REMARK INTRA:                  -0.645
REMARK UNBOUND:                -0.780
REMARK  Name = 
REMARK  4 active torsions:
REMARK  status: ('A' for Active; 'I' for Inactive)
REMARK    1  A    between atoms: C_2  and  C_3
REMARK    2  A    between atoms: C_6  and  C_7
REMARK    3  A    between atoms: C_7  and  C_8
REMARK    4  A    between atoms: C_13  and  N_14
REMARK                            x       y       z     vdW  Elec       q    Type
REMARK                         _______ _______ _______ _____ _____    ______ ____
ROOT
ATOM      1  C   UNL     1      48.424   7.369  14.785  0.00  0.00    +0.000 A 
ATOM      2  C   UNL     1      48.331   8.666  15.309  0.00  0.00    +0.000 A 
ATOM      3  C   UNL     1      48.325   8.876  16.686  0.00  0.00    +0.000 A 
ATOM      4  C   UNL     1      48.452   7.794  17.555  0.00  0.00    +0.000 A 
ATOM      5  F   UNL     1      48.355   8.039  18.872  0.00  0.00    +0.000 F 
ATOM      6  C   UNL     1      48.675   6.493  17.083  0.00  0.00    +0.000 A 
ATOM      7  C   UNL     1      48.685   6.320  15.688  0.00  0.00    +0.000 A 
ENDROOT
BRANCH   6   8
ATOM      8  N   UNL     1      48.806   5.361  17.881  0.00  0.00    +0.000 N 
ATOM      9  C   UNL     1      50.115   4.950  18.411  0.00  0.00    +0.000 C 
ATOM     10  C   UNL     1      50.657   3.677  17.729  0.00  0.00    +0.000 C 
ATOM     11  N   UNL     1      49.678   2.568  17.684  0.00  0.00    +0.000 NA
ATOM     12  C   UNL     1      48.467   3.055  16.992  0.00  0.00    +0.000 C 
ATOM     13  C   UNL     1      47.823   4.284  17.673  0.00  0.00    +0.000 C 
ATOM     14  H   UNL     1      49.419   2.341  18.644  0.00  0.00    +0.000 HD
ENDBRANCH   6   8
BRANCH   1  15
ATOM     15  C   UNL     1      48.035   7.075  13.335  0.00  0.00    +0.000 C 
ATOM     16  C   UNL     1      48.234   8.215  12.327  0.00  0.00    +0.000 C 
ATOM     17  C   UNL     1      49.210   7.088  12.347  0.00  0.00    +0.000 C 
BRANCH  15  21
ATOM     18  C   UNL     1      44.874   4.194  12.450  0.00  0.00    +0.000 A 
ATOM     19  C   UNL     1      44.662   5.555  12.227  0.00  0.00    +0.000 A 
ATOM     20  C   UNL     1      45.665   6.485  12.538  0.00  0.00    +0.000 A 
ATOM     21  C   UNL     1      46.903   6.081  13.072  0.00  0.00    +0.000 A 
ATOM     22  C   UNL     1      47.074   4.707  13.317  0.00  0.00    +0.000 A 
ATOM     23  C   UNL     1      46.080   3.772  13.006  0.00  0.00    +0.000 A 
BRANCH  18  25
ATOM     24  N   UNL     1      43.058   2.448  11.820  0.00  0.00    +0.000 NA
ATOM     25  C   UNL     1      43.870   3.228  12.094  0.00  0.00    +0.000 C 
ENDBRANCH  18  25
ENDBRANCH  15  21
ENDBRANCH   1  15
TORSDOF 4
ENDMDL
MODEL 7
REMARK VINA RESULT:    -5.657      2.344      6.744
REMARK INTER + INTRA:          -7.760
REMARK INTER:                  -7.753
REMARK INTRA:                  -0.007
REMARK UNBOUND:                -0.780
REMARK  Name = 
REMARK  4 active torsions:
REMARK  status: ('A' for Active; 'I' for Inactive)
REMARK    1  A    between atoms: C_2  and  C_3
REMARK    2  A    between atoms: C_6  and  C_7
REMARK    3  A    between atoms: C_7  and  C_8
REMARK    4  A    between atoms: C_13  and  N_14
REMARK                            x       y       z     vdW  Elec       q    Type
REMARK                         _______ _______ _______ _____ _____    ______ ____
ROOT
ATOM      1  C   UNL     1      47.199   6.734  12.496  0.00  0.00    +0.000 A 
ATOM      2  C   UNL     1      47.418   5.880  13.586  0.00  0.00    +0.000 A 
ATOM      3  C   UNL     1      46.732   4.672  13.690  0.00  0.00    +0.000 A 
ATOM      4  C   UNL     1      45.847   4.286  12.685  0.00  0.00    +0.000 A 
ATOM      5  F   UNL     1      45.146   3.156  12.872  0.00  0.00    +0.000 F 
ATOM      6  C   UNL     1      45.687   5.042  11.514  0.00  0.00    +0.000 A 
ATOM      7  C   UNL     1      46.404   6.250  11.440  0.00  0.00    +0.000 A 
ENDROOT
BRANCH   6   8
ATOM      8  N   UNL     1      44.823   4.731  10.470  0.00  0.00    +0.000 N 
ATOM      9  C   UNL     1      43.854   3.629  10.586  0.00  0.00    +0.000 C 
ATOM     10  C   UNL     1      44.230   2.416   9.709  0.00  0.00    +0.000 C 
ATOM     11  N   UNL     1      44.535   2.773   8.305  0.00  0.00    +0.000 NA
ATOM     12  C   UNL     1      45.627   3.769   8.313  0.00  0.00    +0.000 C 
ATOM     13  C   UNL     1      45.284   5.049   9.108  0.00  0.00    +0.000 C 
ATOM     14  H   UNL     1      43.707   3.220   7.910  0.00  0.00    +0.000 HD
ENDBRANCH   6   8
BRANCH   1  15
ATOM     15  C   UNL     1      47.616   8.205  12.551  0.00  0.00    +0.000 C 
ATOM     16  C   UNL     1      46.482   9.238  12.587  0.00  0.00    +0.000 C 
ATOM     17  C   UNL     1      47.220   8.929  13.845  0.00  0.00    +0.000 C 
BRANCH  15  21
ATOM     18  C   UNL     1      51.443   9.369  10.798  0.00  0.00    +0.000 A 
ATOM     19  C   UNL     1      50.446  10.325  10.997  0.00  0.00    +0.000 A 
ATOM     20  C   UNL     1      49.206   9.948  11.533  0.00  0.00    +0.000 A 
ATOM     21  C   UNL     1      48.932   8.613  11.887  0.00  0.00    +0.000 A 
ATOM     22  C   UNL     1      49.943   7.668  11.642  0.00  0.00    +0.000 A 
ATOM     23  C   UNL     1      51.185   8.036  11.111  0.00  0.00    +0.000 A 
BRANCH  18  25
ATOM     24  N   UNL     1      53.767  10.060   9.869  0.00  0.00    +0.000 NA
ATOM     25  C   UNL     1      52.733   9.751  10.290  0.00  0.00    +0.000 C 
ENDBRANCH  18  25
ENDBRANCH  15  21
ENDBRANCH   1  15
TORSDOF 4
ENDMDL
MODEL 8
REMARK VINA RESULT:    -5.643      4.526      7.775
REMARK INTER + INTRA:          -7.742
REMARK INTER:                  -7.097
REMARK INTRA:                  -0.645
REMARK UNBOUND:                -0.780
REMARK  Name = 
REMARK  4 active torsions:
REMARK  status: ('A' for Active; 'I' for Inactive)
REMARK    1  A    between atoms: C_2  and  C_3
REMARK    2  A    between atoms: C_6  and  C_7
REMARK    3  A    between atoms: C_7  and  C_8
REMARK    4  A    between atoms: C_13  and  N_14
REMARK                            x       y       z     vdW  Elec       q    Type
REMARK                         _______ _______ _______ _____ _____    ______ ____
ROOT
ATOM      1  C   UNL     1      47.885   5.630  15.794  0.00  0.00    +0.000 A 
ATOM      2  C   UNL     1      48.654   6.500  15.010  0.00  0.00    +0.000 A 
ATOM      3  C   UNL     1      48.399   6.642  13.648  0.00  0.00    +0.000 A 
ATOM      4  C   UNL     1      47.345   5.944  13.062  0.00  0.00    +0.000 A 
ATOM      5  F   UNL     1      47.192   6.047  11.732  0.00  0.00    +0.000 F 
ATOM      6  C   UNL     1      46.467   5.160  13.824  0.00  0.00    +0.000 A 
ATOM      7  C   UNL     1      46.750   5.048  15.197  0.00  0.00    +0.000 A 
ENDROOT
BRANCH   6   8
ATOM      8  N   UNL     1      45.398   4.428  13.317  0.00  0.00    +0.000 N 
ATOM      9  C   UNL     1      45.619   3.252  12.461  0.00  0.00    +0.000 C 
ATOM     10  C   UNL     1      45.234   3.511  10.989  0.00  0.00    +0.000 C 
ATOM     11  N   UNL     1      43.887   4.102  10.824  0.00  0.00    +0.000 NA
ATOM     12  C   UNL     1      43.839   5.356  11.604  0.00  0.00    +0.000 C 
ATOM     13  C   UNL     1      44.134   5.156  13.108  0.00  0.00    +0.000 C 
ATOM     14  H   UNL     1      43.211   3.454  11.232  0.00  0.00    +0.000 HD
ENDBRANCH   6   8
BRANCH   1  15
ATOM     15  C   UNL     1      48.379   5.156  17.162  0.00  0.00    +0.000 C 
ATOM     16  C   UNL     1      48.306   6.173  18.308  0.00  0.00    +0.000 C 
ATOM     17  C   UNL     1      47.290   5.083  18.241  0.00  0.00    +0.000 C 
BRANCH  15  21
ATOM     18  C   UNL     1      51.500   2.112  17.438  0.00  0.00    +0.000 A 
ATOM     19  C   UNL     1      51.792   3.442  17.744  0.00  0.00    +0.000 A 
ATOM     20  C   UNL     1      50.799   4.426  17.628  0.00  0.00    +0.000 A 
ATOM     21  C   UNL     1      49.492   4.108  17.210  0.00  0.00    +0.000 A 
ATOM     22  C   UNL     1      49.239   2.766  16.876  0.00  0.00    +0.000 A 
ATOM     23  C   UNL     1      50.223   1.777  16.993  0.00  0.00    +0.000 A 
BRANCH  18  25
ATOM     24  N   UNL     1      53.293   0.255  17.717  0.00  0.00    +0.000 NA
ATOM     25  C   UNL     1      52.498   1.088  17.595  0.00  0.00    +0.000 C 
ENDBRANCH  18  25
ENDBRANCH  15  21
ENDBRANCH   1  15
TORSDOF 4
ENDMDL
MODEL 9
REMARK VINA RESULT:    -5.499      4.160      8.452
REMARK INTER + INTRA:          -7.565
REMARK INTER:                  -7.096
REMARK INTRA:                  -0.470
REMARK UNBOUND:                -0.780
REMARK  Name = 
REMARK  4 active torsions:
REMARK  status: ('A' for Active; 'I' for Inactive)
REMARK    1  A    between atoms: C_2  and  C_3
REMARK    2  A    between atoms: C_6  and  C_7
REMARK    3  A    between atoms: C_7  and  C_8
REMARK    4  A    between atoms: C_13  and  N_14
REMARK                            x       y       z     vdW  Elec       q    Type
REMARK                         _______ _______ _______ _____ _____    ______ ____
ROOT
ATOM      1  C   UNL     1      47.543   5.164  15.336  0.00  0.00    +0.000 A 
ATOM      2  C   UNL     1      48.345   6.151  14.746  0.00  0.00    +0.000 A 
ATOM      3  C   UNL     1      48.084   6.596  13.452  0.00  0.00    +0.000 A 
ATOM      4  C   UNL     1      46.994   6.087  12.748  0.00  0.00    +0.000 A 
ATOM      5  F   UNL     1      46.835   6.483  11.475  0.00  0.00    +0.000 F 
ATOM      6  C   UNL     1      46.089   5.194  13.338  0.00  0.00    +0.000 A 
ATOM      7  C   UNL     1      46.379   4.775  14.648  0.00  0.00    +0.000 A 
ENDROOT
BRANCH   6   8
ATOM      8  N   UNL     1      44.983   4.636  12.704  0.00  0.00    +0.000 N 
ATOM      9  C   UNL     1      45.141   3.732  11.554  0.00  0.00    +0.000 C 
ATOM     10  C   UNL     1      44.700   4.382  10.225  0.00  0.00    +0.000 C 
ATOM     11  N   UNL     1      43.360   5.007  10.289  0.00  0.00    +0.000 NA
ATOM     12  C   UNL     1      43.373   6.006  11.379  0.00  0.00    +0.000 C 
ATOM     13  C   UNL     1      43.728   5.405  12.758  0.00  0.00    +0.000 C 
ATOM     14  H   UNL     1      42.689   4.281  10.539  0.00  0.00    +0.000 HD
ENDBRANCH   6   8
BRANCH   1  15
ATOM     15  C   UNL     1      48.028   4.383  16.560  0.00  0.00    +0.000 C 
ATOM     16  C   UNL     1      47.047   3.365  17.157  0.00  0.00    +0.000 C 
ATOM     17  C   UNL     1      48.186   2.874  16.329  0.00  0.00    +0.000 C 
BRANCH  15  21
ATOM     18  C   UNL     1      50.836   6.451  19.189  0.00  0.00    +0.000 A 
ATOM     19  C   UNL     1      51.311   5.598  18.192  0.00  0.00    +0.000 A 
ATOM     20  C   UNL     1      50.410   4.910  17.365  0.00  0.00    +0.000 A 
ATOM     21  C   UNL     1      49.018   5.060  17.509  0.00  0.00    +0.000 A 
ATOM     22  C   UNL     1      48.570   5.899  18.545  0.00  0.00    +0.000 A 
ATOM     23  C   UNL     1      49.462   6.592  19.371  0.00  0.00    +0.000 A 
BRANCH  18  25
ATOM     24  N   UNL     1      52.495   7.784  20.677  0.00  0.00    +0.000 NA
ATOM     25  C   UNL     1      51.750   7.195  20.013  0.00  0.00    +0.000 C 
ENDBRANCH  18  25
ENDBRANCH  15  21
ENDBRANCH   1  15
TORSDOF 4
ENDMDL
