MODEL 1
REMARK VINA RESULT:    -7.998      0.000      0.000
REMARK INTER + INTRA:         -11.721
REMARK INTER:                 -10.803
REMARK INTRA:                  -0.917
REMARK UNBOUND:                -0.917
REMARK  Name = 
REMARK  6 active torsions:
REMARK  status: ('A' for Active; 'I' for Inactive)
REMARK    1  A    between atoms: C_2  and  C_25
REMARK    2  A    between atoms: N_3  and  C_4
REMARK    3  A    between atoms: C_4  and  C_5
REMARK    4  A    between atoms: C_8  and  C_9
REMARK    5  A    between atoms: C_9  and  N_10
REMARK    6  A    between atoms: C_11  and  C_13
REMARK                            x       y       z     vdW  Elec       q    Type
REMARK                         _______ _______ _______ _____ _____    ______ ____
ROOT
ATOM      1  C   UNL     1      44.901   6.198  11.363  0.00  0.00    +0.000 A 
ATOM      2  C   UNL     1      46.000   5.632  12.025  0.00  0.00    +0.000 A 
ATOM      3  C   UNL     1      46.811   6.409  12.860  0.00  0.00    +0.000 A 
ATOM      4  C   UNL     1      46.527   7.765  13.072  0.00  0.00    +0.000 A 
ATOM      5  C   UNL     1      45.427   8.331  12.414  0.00  0.00    +0.000 A 
ATOM      6  C   UNL     1      44.616   7.554  11.579  0.00  0.00    +0.000 A 
ENDROOT
BRANCH   1   7
ATOM      7  C   UNL     1      44.083   5.384  10.398  0.00  0.00    +0.000 C 
BRANCH   7  10
ATOM      8  O   UNL     1      44.402   2.652  10.183  0.00  0.00    +0.000 OA
ATOM      9  C   UNL     1      44.947   3.355   9.336  0.00  0.00    +0.000 C 
ATOM     10  N   UNL     1      44.859   4.741   9.366  0.00  0.00    +0.000 N 
ATOM     11  H   UNL     1      45.301   5.275   8.625  0.00  0.00    +0.000 HD
BRANCH   9  12
ATOM     12  C   UNL     1      45.747   2.762   8.199  0.00  0.00    +0.000 A 
ATOM     13  N   UNL     1      46.207   1.501   8.361  0.00  0.00    +0.000 NA
ATOM     14  C   UNL     1      46.915   0.995   7.338  0.00  0.00    +0.000 A 
ATOM     15  C   UNL     1      47.176   1.693   6.185  0.00  0.00    +0.000 A 
ATOM     16  C   UNL     1      46.665   2.972   6.123  0.00  0.00    +0.000 A 
ATOM     17  N   UNL     1      45.941   3.539   7.107  0.00  0.00    +0.000 NA
ENDBRANCH   9  12
ENDBRANCH   7  10
ENDBRANCH   1   7
BRANCH   4  18
ATOM     18  C   UNL     1      47.401   8.612  13.963  0.00  0.00    +0.000 C 
BRANCH  18  19
ATOM     19  N   UNL     1      47.869   7.878  15.111  0.00  0.00    +0.000 N 
ATOM     20  C   UNL     1      49.136   7.348  15.143  0.00  0.00    +0.000 C 
ATOM     21  O   UNL     1      49.928   7.507  14.217  0.00  0.00    +0.000 OA
ATOM     22  H   UNL     1      47.170   7.542  15.767  0.00  0.00    +0.000 HD
BRANCH  20  23
ATOM     23  C   UNL     1      49.526   6.637  16.366  0.00  0.00    +0.000 A 
ATOM     24  C   UNL     1      50.573   7.123  17.140  0.00  0.00    +0.000 A 
ATOM     25  S   UNL     1      50.861   6.213  18.553  0.00  0.00    +0.000 S 
ATOM     26  C   UNL     1      49.634   5.105  18.155  0.00  0.00    +0.000 A 
ATOM     27  N   UNL     1      49.369   4.038  18.956  0.00  0.00    +0.000 NA
ATOM     28  C   UNL     1      48.438   3.259  18.515  0.00  0.00    +0.000 A 
ATOM     29  N   UNL     1      47.746   3.452  17.348  0.00  0.00    +0.000 N 
ATOM     30  C   UNL     1      47.956   4.533  16.525  0.00  0.00    +0.000 A 
ATOM     31  O   UNL     1      47.288   4.701  15.510  0.00  0.00    +0.000 OA
ATOM     32  C   UNL     1      49.002   5.434  16.968  0.00  0.00    +0.000 A 
ATOM     33  H   UNL     1      47.023   2.808  17.062  0.00  0.00    +0.000 HD
ENDBRANCH  20  23
ENDBRANCH  18  19
ENDBRANCH   4  18
TORSDOF 6
ENDMDL
MODEL 2
REMARK VINA RESULT:    -7.445      4.799      9.719
REMARK INTER + INTRA:         -10.974
REMARK INTER:                 -10.170
REMARK INTRA:                  -0.803
REMARK UNBOUND:                -0.917
REMARK  Name = 
REMARK  6 active torsions:
REMARK  status: ('A' for Active; 'I' for Inactive)
REMARK    1  A    between atoms: C_2  and  C_25
REMARK    2  A    between atoms: N_3  and  C_4
REMARK    3  A    between atoms: C_4  and  C_5
REMARK    4  A    between atoms: C_8  and  C_9
REMARK    5  A    between atoms: C_9  and  N_10
REMARK    6  A    between atoms: C_11  and  C_13
REMARK                            x       y       z     vdW  Elec       q    Type
REMARK                         _______ _______ _______ _____ _____    ______ ____
ROOT
ATOM      1  C   UNL     1      51.370   2.887  17.776  0.00  0.00    +0.000 A 
ATOM      2  C   UNL     1      50.640   1.946  17.036  0.00  0.00    +0.000 A 
ATOM      3  C   UNL     1      49.285   2.154  16.753  0.00  0.00    +0.000 A 
ATOM      4  C   UNL     1      48.635   3.319  17.184  0.00  0.00    +0.000 A 
ATOM      5  C   UNL     1      49.366   4.261  17.920  0.00  0.00    +0.000 A 
ATOM      6  C   UNL     1      50.720   4.054  18.203  0.00  0.00    +0.000 A 
ENDROOT
BRANCH   1   7
ATOM      7  C   UNL     1      52.803   2.622  18.153  0.00  0.00    +0.000 C 
BRANCH   7  10
ATOM      8  O   UNL     1      54.633   1.072  16.791  0.00  0.00    +0.000 OA
ATOM      9  C   UNL     1      54.035   0.551  17.729  0.00  0.00    +0.000 C 
ATOM     10  N   UNL     1      53.082   1.242  18.466  0.00  0.00    +0.000 N 
ATOM     11  H   UNL     1      52.638   0.776  19.251  0.00  0.00    +0.000 HD
BRANCH   9  12
ATOM     12  C   UNL     1      54.294  -0.879  18.147  0.00  0.00    +0.000 A 
ATOM     13  N   UNL     1      53.811  -1.268  19.347  0.00  0.00    +0.000 NA
ATOM     14  C   UNL     1      54.053  -2.542  19.698  0.00  0.00    +0.000 A 
ATOM     15  C   UNL     1      54.751  -3.420  18.906  0.00  0.00    +0.000 A 
ATOM     16  C   UNL     1      55.204  -2.922  17.703  0.00  0.00    +0.000 A 
ATOM     17  N   UNL     1      54.991  -1.658  17.286  0.00  0.00    +0.000 NA
ENDBRANCH   9  12
ENDBRANCH   7  10
ENDBRANCH   1   7
BRANCH   4  18
ATOM     18  C   UNL     1      47.173   3.546  16.892  0.00  0.00    +0.000 C 
BRANCH  18  19
ATOM     19  N   UNL     1      46.976   4.564  15.892  0.00  0.00    +0.000 N 
ATOM     20  C   UNL     1      47.027   4.258  14.554  0.00  0.00    +0.000 C 
ATOM     21  O   UNL     1      47.205   3.109  14.158  0.00  0.00    +0.000 OA
ATOM     22  H   UNL     1      47.062   5.532  16.188  0.00  0.00    +0.000 HD
BRANCH  20  23
ATOM     23  C   UNL     1      46.792   5.361  13.613  0.00  0.00    +0.000 A 
ATOM     24  C   UNL     1      47.828   6.233  13.303  0.00  0.00    +0.000 A 
ATOM     25  S   UNL     1      47.405   7.420  12.154  0.00  0.00    +0.000 S 
ATOM     26  C   UNL     1      45.806   6.845  12.070  0.00  0.00    +0.000 A 
ATOM     27  N   UNL     1      44.888   7.448  11.267  0.00  0.00    +0.000 NA
ATOM     28  C   UNL     1      43.706   6.932  11.328  0.00  0.00    +0.000 A 
ATOM     29  N   UNL     1      43.360   5.865  12.116  0.00  0.00    +0.000 N 
ATOM     30  C   UNL     1      44.261   5.204  12.916  0.00  0.00    +0.000 A 
ATOM     31  O   UNL     1      43.929   4.223  13.575  0.00  0.00    +0.000 OA
ATOM     32  C   UNL     1      45.603   5.753  12.894  0.00  0.00    +0.000 A 
ATOM     33  H   UNL     1      42.417   5.504  12.112  0.00  0.00    +0.000 HD
ENDBRANCH  20  23
ENDBRANCH  18  19
ENDBRANCH   4  18
TORSDOF 6
ENDMDL
MODEL 3
REMARK VINA RESULT:    -7.309      1.821      2.384
REMARK INTER + INTRA:         -10.791
REMARK INTER:                  -9.919
REMARK INTRA:                  -0.872
REMARK UNBOUND:                -0.917
REMARK  Name = 
REMARK  6 active torsions:
REMARK  status: ('A' for Active; 'I' for Inactive)
REMARK    1  A    between atoms: C_2  and  C_25
REMARK    2  A    between atoms: N_3  and  C_4
REMARK    3  A    between atoms: C_4  and  C_5
REMARK    4  A    between atoms: C_8  and  C_9
REMARK    5  A    between atoms: C_9  and  N_10
REMARK    6  A    between atoms: C_11  and  C_13
REMARK                            x       y       z     vdW  Elec       q    Type
REMARK                         _______ _______ _______ _____ _____    ______ ____
ROOT
ATOM      1  C   UNL     1      46.172   6.721  12.220  0.00  0.00    +0.000 A 
ATOM      2  C   UNL     1      46.181   8.067  12.611  0.00  0.00    +0.000 A 
ATOM      3  C   UNL     1      47.016   8.507  13.645  0.00  0.00    +0.000 A 
ATOM      4  C   UNL     1      47.879   7.614  14.296  0.00  0.00    +0.000 A 
ATOM      5  C   UNL     1      47.873   6.270  13.903  0.00  0.00    +0.000 A 
ATOM      6  C   UNL     1      47.039   5.830  12.869  0.00  0.00    +0.000 A 
ENDROOT
BRANCH   1   7
ATOM      7  C   UNL     1      45.212   6.233  11.169  0.00  0.00    +0.000 C 
BRANCH   7  10
ATOM      8  O   UNL     1      43.751   4.392   9.725  0.00  0.00    +0.000 OA
ATOM      9  C   UNL     1      44.965   4.423   9.541  0.00  0.00    +0.000 C 
ATOM     10  N   UNL     1      45.789   5.303  10.231  0.00  0.00    +0.000 N 
ATOM     11  H   UNL     1      46.782   5.311  10.019  0.00  0.00    +0.000 HD
BRANCH   9  12
ATOM     12  C   UNL     1      45.647   3.509   8.548  0.00  0.00    +0.000 A 
ATOM     13  N   UNL     1      46.132   4.075   7.421  0.00  0.00    +0.000 NA
ATOM     14  C   UNL     1      46.733   3.244   6.554  0.00  0.00    +0.000 A 
ATOM     15  C   UNL     1      46.861   1.894   6.771  0.00  0.00    +0.000 A 
ATOM     16  C   UNL     1      46.329   1.418   7.951  0.00  0.00    +0.000 A 
ATOM     17  N   UNL     1      45.719   2.195   8.867  0.00  0.00    +0.000 NA
ENDBRANCH   9  12
ENDBRANCH   7  10
ENDBRANCH   1   7
BRANCH   4  18
ATOM     18  C   UNL     1      48.775   8.078  15.417  0.00  0.00    +0.000 C 
BRANCH  18  19
ATOM     19  N   UNL     1      49.727   7.067  15.797  0.00  0.00    +0.000 N 
ATOM     20  C   UNL     1      49.784   6.600  17.088  0.00  0.00    +0.000 C 
ATOM     21  O   UNL     1      49.009   6.997  17.955  0.00  0.00    +0.000 OA
ATOM     22  H   UNL     1      50.510   6.903  15.172  0.00  0.00    +0.000 HD
BRANCH  20  23
ATOM     23  C   UNL     1      50.773   5.553  17.372  0.00  0.00    +0.000 A 
ATOM     24  C   UNL     1      52.052   5.909  17.785  0.00  0.00    +0.000 A 
ATOM     25  S   UNL     1      53.058   4.575  18.126  0.00  0.00    +0.000 S 
ATOM     26  C   UNL     1      51.840   3.474  17.682  0.00  0.00    +0.000 A 
ATOM     27  N   UNL     1      52.063   2.133  17.721  0.00  0.00    +0.000 NA
ATOM     28  C   UNL     1      51.066   1.415  17.323  0.00  0.00    +0.000 A 
ATOM     29  N   UNL     1      49.865   1.918  16.893  0.00  0.00    +0.000 N 
ATOM     30  C   UNL     1      49.583   3.263  16.869  0.00  0.00    +0.000 A 
ATOM     31  O   UNL     1      48.483   3.678  16.522  0.00  0.00    +0.000 OA
ATOM     32  C   UNL     1      50.676   4.115  17.295  0.00  0.00    +0.000 A 
ATOM     33  H   UNL     1      49.121   1.301  16.601  0.00  0.00    +0.000 HD
ENDBRANCH  20  23
ENDBRANCH  18  19
ENDBRANCH   4  18
TORSDOF 6
ENDMDL
MODEL 4
REMARK VINA RESULT:    -7.016      4.869      9.944
REMARK INTER + INTRA:         -10.395
REMARK INTER:                  -9.331
REMARK INTRA:                  -1.064
REMARK UNBOUND:                -0.917
REMARK  Name = 
REMARK  6 active torsions:
REMARK  status: ('A' for Active; 'I' for Inactive)
REMARK    1  A    between atoms: C_2  and  C_25
REMARK    2  A    between atoms: N_3  and  C_4
REMARK    3  A    between atoms: C_4  and  C_5
REMARK    4  A    between atoms: C_8  and  C_9
REMARK    5  A    between atoms: C_9  and  N_10
REMARK    6  A    between atoms: C_11  and  C_13
REMARK                            x       y       z     vdW  Elec       q    Type
REMARK                         _______ _______ _______ _____ _____    ______ ____
ROOT
ATOM      1  C   UNL     1      51.509   2.921  17.745  0.00  0.00    +0.000 A 
ATOM      2  C   UNL     1      50.714   1.917  17.176  0.00  0.00    +0.000 A 
ATOM      3  C   UNL     1      49.360   2.145  16.903  0.00  0.00    +0.000 A 
ATOM      4  C   UNL     1      48.776   3.391  17.173  0.00  0.00    +0.000 A 
ATOM      5  C   UNL     1      49.572   4.395  17.739  0.00  0.00    +0.000 A 
ATOM      6  C   UNL     1      50.926   4.168  18.011  0.00  0.00    +0.000 A 
ENDROOT
BRANCH   1   7
ATOM      7  C   UNL     1      52.941   2.646  18.118  0.00  0.00    +0.000 C 
BRANCH   7  10
ATOM      8  O   UNL     1      55.258   1.232  17.623  0.00  0.00    +0.000 OA
ATOM      9  C   UNL     1      54.388   0.680  18.293  0.00  0.00    +0.000 C 
ATOM     10  N   UNL     1      53.180   1.302  18.582  0.00  0.00    +0.000 N 
ATOM     11  H   UNL     1      52.507   0.815  19.166  0.00  0.00    +0.000 HD
BRANCH   9  12
ATOM     12  C   UNL     1      54.572  -0.713  18.850  0.00  0.00    +0.000 A 
ATOM     13  N   UNL     1      54.588  -1.734  17.965  0.00  0.00    +0.000 NA
ATOM     14  C   UNL     1      54.753  -2.962  18.483  0.00  0.00    +0.000 A 
ATOM     15  C   UNL     1      54.898  -3.199  19.828  0.00  0.00    +0.000 A 
ATOM     16  C   UNL     1      54.864  -2.088  20.645  0.00  0.00    +0.000 A 
ATOM     17  N   UNL     1      54.709  -0.828  20.192  0.00  0.00    +0.000 NA
ENDBRANCH   9  12
ENDBRANCH   7  10
ENDBRANCH   1   7
BRANCH   4  18
ATOM     18  C   UNL     1      47.316   3.642  16.892  0.00  0.00    +0.000 C 
BRANCH  18  19
ATOM     19  N   UNL     1      47.129   4.630  15.860  0.00  0.00    +0.000 N 
ATOM     20  C   UNL     1      47.120   4.273  14.534  0.00  0.00    +0.000 C 
ATOM     21  O   UNL     1      47.234   3.103  14.176  0.00  0.00    +0.000 OA
ATOM     22  H   UNL     1      47.268   5.603  16.115  0.00  0.00    +0.000 HD
BRANCH  20  23
ATOM     23  C   UNL     1      46.901   5.350  13.559  0.00  0.00    +0.000 A 
ATOM     24  C   UNL     1      45.833   5.268  12.673  0.00  0.00    +0.000 A 
ATOM     25  S   UNL     1      45.688   6.624  11.649  0.00  0.00    +0.000 S 
ATOM     26  C   UNL     1      47.078   7.343  12.314  0.00  0.00    +0.000 A 
ATOM     27  N   UNL     1      47.533   8.541  11.856  0.00  0.00    +0.000 NA
ATOM     28  C   UNL     1      48.617   8.952  12.424  0.00  0.00    +0.000 A 
ATOM     29  N   UNL     1      49.285   8.277  13.412  0.00  0.00    +0.000 N 
ATOM     30  C   UNL     1      48.845   7.082  13.929  0.00  0.00    +0.000 A 
ATOM     31  O   UNL     1      49.441   6.525  14.845  0.00  0.00    +0.000 OA
ATOM     32  C   UNL     1      47.636   6.568  13.316  0.00  0.00    +0.000 A 
ATOM     33  H   UNL     1      50.125   8.657  13.822  0.00  0.00    +0.000 HD
ENDBRANCH  20  23
ENDBRANCH  18  19
ENDBRANCH   4  18
TORSDOF 6
ENDMDL
MODEL 5
REMARK VINA RESULT:    -6.965      1.784      2.587
REMARK INTER + INTRA:         -10.325
REMARK INTER:                  -9.513
REMARK INTRA:                  -0.812
REMARK UNBOUND:                -0.917
REMARK  Name = 
REMARK  6 active torsions:
REMARK  status: ('A' for Active; 'I' for Inactive)
REMARK    1  A    between atoms: C_2  and  C_25
REMARK    2  A    between atoms: N_3  and  C_4
REMARK    3  A    between atoms: C_4  and  C_5
REMARK    4  A    between atoms: C_8  and  C_9
REMARK    5  A    between atoms: C_9  and  N_10
REMARK    6  A    between atoms: C_11  and  C_13
REMARK                            x       y       z     vdW  Elec       q    Type
REMARK                         _______ _______ _______ _____ _____    ______ ____
ROOT
ATOM      1  C   UNL     1      45.005   5.841  11.357  0.00  0.00    +0.000 A 
ATOM      2  C   UNL     1      45.629   5.064  12.344  0.00  0.00    +0.000 A 
ATOM      3  C   UNL     1      46.486   5.652  13.281  0.00  0.00    +0.000 A 
ATOM      4  C   UNL     1      46.721   7.034  13.267  0.00  0.00    +0.000 A 
ATOM      5  C   UNL     1      46.095   7.810  12.284  0.00  0.00    +0.000 A 
ATOM      6  C   UNL     1      45.238   7.223  11.347  0.00  0.00    +0.000 A 
ENDROOT
BRANCH   1   7
ATOM      7  C   UNL     1      44.153   5.195  10.297  0.00  0.00    +0.000 C 
BRANCH   7  10
ATOM      8  O   UNL     1      44.785   2.520  10.065  0.00  0.00    +0.000 OA
ATOM      9  C   UNL     1      45.158   3.271   9.168  0.00  0.00    +0.000 C 
ATOM     10  N   UNL     1      44.903   4.636   9.200  0.00  0.00    +0.000 N 
ATOM     11  H   UNL     1      45.206   5.209   8.418  0.00  0.00    +0.000 HD
BRANCH   9  12
ATOM     12  C   UNL     1      45.917   2.762   7.963  0.00  0.00    +0.000 A 
ATOM     13  N   UNL     1      46.022   3.593   6.904  0.00  0.00    +0.000 NA
ATOM     14  C   UNL     1      46.701   3.120   5.845  0.00  0.00    +0.000 A 
ATOM     15  C   UNL     1      47.264   1.868   5.812  0.00  0.00    +0.000 A 
ATOM     16  C   UNL     1      47.095   1.098   6.943  0.00  0.00    +0.000 A 
ATOM     17  N   UNL     1      46.433   1.512   8.041  0.00  0.00    +0.000 NA
ENDBRANCH   9  12
ENDBRANCH   7  10
ENDBRANCH   1   7
BRANCH   4  18
ATOM     18  C   UNL     1      47.651   7.674  14.268  0.00  0.00    +0.000 C 
BRANCH  18  19
ATOM     19  N   UNL     1      48.440   6.695  14.971  0.00  0.00    +0.000 N 
ATOM     20  C   UNL     1      48.952   6.963  16.217  0.00  0.00    +0.000 C 
ATOM     21  O   UNL     1      48.732   8.026  16.793  0.00  0.00    +0.000 OA
ATOM     22  H   UNL     1      48.822   5.925  14.429  0.00  0.00    +0.000 HD
BRANCH  20  23
ATOM     23  C   UNL     1      49.725   5.893  16.861  0.00  0.00    +0.000 A 
ATOM     24  C   UNL     1      49.060   4.869  17.525  0.00  0.00    +0.000 A 
ATOM     25  S   UNL     1      50.100   3.680  18.167  0.00  0.00    +0.000 S 
ATOM     26  C   UNL     1      51.479   4.519  17.629  0.00  0.00    +0.000 A 
ATOM     27  N   UNL     1      52.728   4.043  17.879  0.00  0.00    +0.000 NA
ATOM     28  C   UNL     1      53.683   4.797  17.447  0.00  0.00    +0.000 A 
ATOM     29  N   UNL     1      53.501   5.983  16.783  0.00  0.00    +0.000 N 
ATOM     30  C   UNL     1      52.259   6.485  16.479  0.00  0.00    +0.000 A 
ATOM     31  O   UNL     1      52.130   7.527  15.843  0.00  0.00    +0.000 OA
ATOM     32  C   UNL     1      51.150   5.681  16.954  0.00  0.00    +0.000 A 
ATOM     33  H   UNL     1      54.291   6.523  16.463  0.00  0.00    +0.000 HD
ENDBRANCH  20  23
ENDBRANCH  18  19
ENDBRANCH   4  18
TORSDOF 6
ENDMDL
MODEL 6
REMARK VINA RESULT:    -6.828      3.950      8.691
REMARK INTER + INTRA:         -10.141
REMARK INTER:                  -9.065
REMARK INTRA:                  -1.076
REMARK UNBOUND:                -0.917
REMARK  Name = 
REMARK  6 active torsions:
REMARK  status: ('A' for Active; 'I' for Inactive)
REMARK    1  A    between atoms: C_2  and  C_25
REMARK    2  A    between atoms: N_3  and  C_4
REMARK    3  A    between atoms: C_4  and  C_5
REMARK    4  A    between atoms: C_8  and  C_9
REMARK    5  A    between atoms: C_9  and  N_10
REMARK    6  A    between atoms: C_11  and  C_13
REMARK                            x       y       z     vdW  Elec       q    Type
REMARK                         _______ _______ _______ _____ _____    ______ ____
ROOT
ATOM      1  C   UNL     1      49.669   4.590  17.695  0.00  0.00    +0.000 A 
ATOM      2  C   UNL     1      50.356   5.774  17.389  0.00  0.00    +0.000 A 
ATOM      3  C   UNL     1      49.910   6.615  16.364  0.00  0.00    +0.000 A 
ATOM      4  C   UNL     1      48.753   6.305  15.636  0.00  0.00    +0.000 A 
ATOM      5  C   UNL     1      48.064   5.124  15.944  0.00  0.00    +0.000 A 
ATOM      6  C   UNL     1      48.510   4.283  16.970  0.00  0.00    +0.000 A 
ENDROOT
BRANCH   1   7
ATOM      7  C   UNL     1      50.199   3.643  18.738  0.00  0.00    +0.000 C 
BRANCH   7  10
ATOM      8  O   UNL     1      50.775   1.405  17.233  0.00  0.00    +0.000 OA
ATOM      9  C   UNL     1      51.722   2.038  17.693  0.00  0.00    +0.000 C 
ATOM     10  N   UNL     1      51.535   3.169  18.477  0.00  0.00    +0.000 N 
ATOM     11  H   UNL     1      52.352   3.675  18.808  0.00  0.00    +0.000 HD
BRANCH   9  12
ATOM     12  C   UNL     1      53.155   1.632  17.437  0.00  0.00    +0.000 A 
ATOM     13  N   UNL     1      53.377   0.350  17.073  0.00  0.00    +0.000 NA
ATOM     14  C   UNL     1      54.658   0.012  16.850  0.00  0.00    +0.000 A 
ATOM     15  C   UNL     1      55.703   0.894  16.980  0.00  0.00    +0.000 A 
ATOM     16  C   UNL     1      55.368   2.176  17.359  0.00  0.00    +0.000 A 
ATOM     17  N   UNL     1      54.105   2.585  17.592  0.00  0.00    +0.000 NA
ENDBRANCH   9  12
ENDBRANCH   7  10
ENDBRANCH   1   7
BRANCH   4  18
ATOM     18  C   UNL     1      48.271   7.201  14.523  0.00  0.00    +0.000 C 
BRANCH  18  19
ATOM     19  N   UNL     1      47.024   6.743  13.966  0.00  0.00    +0.000 N 
ATOM     20  C   UNL     1      46.830   6.705  12.606  0.00  0.00    +0.000 C 
ATOM     21  O   UNL     1      47.715   7.024  11.816  0.00  0.00    +0.000 OA
ATOM     22  H   UNL     1      46.221   6.703  14.587  0.00  0.00    +0.000 HD
BRANCH  20  23
ATOM     23  C   UNL     1      45.533   6.202  12.136  0.00  0.00    +0.000 A 
ATOM     24  C   UNL     1      44.625   7.080  11.556  0.00  0.00    +0.000 A 
ATOM     25  S   UNL     1      43.194   6.325  11.014  0.00  0.00    +0.000 S 
ATOM     26  C   UNL     1      43.714   4.809  11.582  0.00  0.00    +0.000 A 
ATOM     27  N   UNL     1      42.928   3.707  11.452  0.00  0.00    +0.000 NA
ATOM     28  C   UNL     1      43.430   2.631  11.960  0.00  0.00    +0.000 A 
ATOM     29  N   UNL     1      44.649   2.556  12.581  0.00  0.00    +0.000 N 
ATOM     30  C   UNL     1      45.491   3.635  12.706  0.00  0.00    +0.000 A 
ATOM     31  O   UNL     1      46.596   3.525  13.228  0.00  0.00    +0.000 OA
ATOM     32  C   UNL     1      44.969   4.874  12.163  0.00  0.00    +0.000 A 
ATOM     33  H   UNL     1      44.988   1.680  12.952  0.00  0.00    +0.000 HD
ENDBRANCH  20  23
ENDBRANCH  18  19
ENDBRANCH   4  18
TORSDOF 6
ENDMDL
MODEL 7
REMARK VINA RESULT:    -6.746      3.050      8.701
REMARK INTER + INTRA:         -10.029
REMARK INTER:                  -9.146
REMARK INTRA:                  -0.883
REMARK UNBOUND:                -0.917
REMARK  Name = 
REMARK  6 active torsions:
REMARK  status: ('A' for Active; 'I' for Inactive)
REMARK    1  A    between atoms: C_2  and  C_25
REMARK    2  A    between atoms: N_3  and  C_4
REMARK    3  A    between atoms: C_4  and  C_5
REMARK    4  A    between atoms: C_8  and  C_9
REMARK    5  A    between atoms: C_9  and  N_10
REMARK    6  A    between atoms: C_11  and  C_13
REMARK                            x       y       z     vdW  Elec       q    Type
REMARK                         _______ _______ _______ _____ _____    ______ ____
ROOT
ATOM      1  C   UNL     1      49.577   7.999  15.364  0.00  0.00    +0.000 A 
ATOM      2  C   UNL     1      49.801   7.157  14.266  0.00  0.00    +0.000 A 
ATOM      3  C   UNL     1      48.920   7.149  13.178  0.00  0.00    +0.000 A 
ATOM      4  C   UNL     1      47.806   8.000  13.154  0.00  0.00    +0.000 A 
ATOM      5  C   UNL     1      47.584   8.844  14.250  0.00  0.00    +0.000 A 
ATOM      6  C   UNL     1      48.465   8.853  15.337  0.00  0.00    +0.000 A 
ENDROOT
BRANCH   1   7
ATOM      7  C   UNL     1      50.476   7.944  16.569  0.00  0.00    +0.000 C 
BRANCH   7  10
ATOM      8  O   UNL     1      49.238   5.831  17.839  0.00  0.00    +0.000 OA
ATOM      9  C   UNL     1      50.379   5.652  17.422  0.00  0.00    +0.000 C 
ATOM     10  N   UNL     1      51.093   6.659  16.784  0.00  0.00    +0.000 N 
ATOM     11  H   UNL     1      52.022   6.450  16.431  0.00  0.00    +0.000 HD
BRANCH   9  12
ATOM     12  C   UNL     1      51.086   4.324  17.572  0.00  0.00    +0.000 A 
ATOM     13  N   UNL     1      50.430   3.224  17.142  0.00  0.00    +0.000 NA
ATOM     14  C   UNL     1      51.078   2.056  17.285  0.00  0.00    +0.000 A 
ATOM     15  C   UNL     1      52.332   1.953  17.835  0.00  0.00    +0.000 A 
ATOM     16  C   UNL     1      52.912   3.135  18.244  0.00  0.00    +0.000 A 
ATOM     17  N   UNL     1      52.323   4.341  18.125  0.00  0.00    +0.000 NA
ENDBRANCH   9  12
ENDBRANCH   7  10
ENDBRANCH   1   7
BRANCH   4  18
ATOM     18  C   UNL     1      46.846   7.991  11.991  0.00  0.00    +0.000 C 
BRANCH  18  19
ATOM     19  N   UNL     1      46.357   6.665  11.708  0.00  0.00    +0.000 N 
ATOM     20  C   UNL     1      45.014   6.429  11.543  0.00  0.00    +0.000 C 
ATOM     21  O   UNL     1      44.185   7.335  11.594  0.00  0.00    +0.000 OA
ATOM     22  H   UNL     1      46.982   5.887  11.893  0.00  0.00    +0.000 HD
BRANCH  20  23
ATOM     23  C   UNL     1      44.616   5.049  11.236  0.00  0.00    +0.000 A 
ATOM     24  C   UNL     1      43.838   4.340  12.143  0.00  0.00    +0.000 A 
ATOM     25  S   UNL     1      43.418   2.776  11.610  0.00  0.00    +0.000 S 
ATOM     26  C   UNL     1      44.306   2.969  10.173  0.00  0.00    +0.000 A 
ATOM     27  N   UNL     1      44.384   1.964   9.259  0.00  0.00    +0.000 NA
ATOM     28  C   UNL     1      45.121   2.232   8.233  0.00  0.00    +0.000 A 
ATOM     29  N   UNL     1      45.784   3.415   8.036  0.00  0.00    +0.000 N 
ATOM     30  C   UNL     1      45.708   4.469   8.915  0.00  0.00    +0.000 A 
ATOM     31  O   UNL     1      46.277   5.532   8.687  0.00  0.00    +0.000 OA
ATOM     32  C   UNL     1      44.901   4.215  10.093  0.00  0.00    +0.000 A 
ATOM     33  H   UNL     1      46.339   3.565   7.207  0.00  0.00    +0.000 HD
ENDBRANCH  20  23
ENDBRANCH  18  19
ENDBRANCH   4  18
TORSDOF 6
ENDMDL
MODEL 8
REMARK VINA RESULT:    -6.572      5.932      8.427
REMARK INTER + INTRA:          -9.795
REMARK INTER:                  -8.800
REMARK INTRA:                  -0.995
REMARK UNBOUND:                -0.917
REMARK  Name = 
REMARK  6 active torsions:
REMARK  status: ('A' for Active; 'I' for Inactive)
REMARK    1  A    between atoms: C_2  and  C_25
REMARK    2  A    between atoms: N_3  and  C_4
REMARK    3  A    between atoms: C_4  and  C_5
REMARK    4  A    between atoms: C_8  and  C_9
REMARK    5  A    between atoms: C_9  and  N_10
REMARK    6  A    between atoms: C_11  and  C_13
REMARK                            x       y       z     vdW  Elec       q    Type
REMARK                         _______ _______ _______ _____ _____    ______ ____
ROOT
ATOM      1  C   UNL     1      48.853   3.378  17.297  0.00  0.00    +0.000 A 
ATOM      2  C   UNL     1      49.412   2.135  16.969  0.00  0.00    +0.000 A 
ATOM      3  C   UNL     1      50.768   1.877  17.198  0.00  0.00    +0.000 A 
ATOM      4  C   UNL     1      51.592   2.850  17.782  0.00  0.00    +0.000 A 
ATOM      5  C   UNL     1      51.033   4.091  18.113  0.00  0.00    +0.000 A 
ATOM      6  C   UNL     1      49.677   4.349  17.885  0.00  0.00    +0.000 A 
ENDROOT
BRANCH   1   7
ATOM      7  C   UNL     1      47.416   3.684  16.970  0.00  0.00    +0.000 C 
BRANCH   7  10
ATOM      8  O   UNL     1      47.271   3.098  14.279  0.00  0.00    +0.000 OA
ATOM      9  C   UNL     1      47.170   4.277  14.609  0.00  0.00    +0.000 C 
ATOM     10  N   UNL     1      47.246   4.675  15.937  0.00  0.00    +0.000 N 
ATOM     11  H   UNL     1      47.125   5.659  16.160  0.00  0.00    +0.000 HD
BRANCH   9  12
ATOM     12  C   UNL     1      46.952   5.375  13.593  0.00  0.00    +0.000 A 
ATOM     13  N   UNL     1      48.050   6.010  13.126  0.00  0.00    +0.000 NA
ATOM     14  C   UNL     1      47.833   6.982  12.225  0.00  0.00    +0.000 A 
ATOM     15  C   UNL     1      46.580   7.335  11.786  0.00  0.00    +0.000 A 
ATOM     16  C   UNL     1      45.528   6.627  12.328  0.00  0.00    +0.000 A 
ATOM     17  N   UNL     1      45.674   5.637  13.230  0.00  0.00    +0.000 NA
ENDBRANCH   9  12
ENDBRANCH   7  10
ENDBRANCH   1   7
BRANCH   4  18
ATOM     18  C   UNL     1      53.057   2.583  18.023  0.00  0.00    +0.000 C 
BRANCH  18  19
ATOM     19  N   UNL     1      53.377   1.184  17.896  0.00  0.00    +0.000 N 
ATOM     20  C   UNL     1      54.479   0.773  17.187  0.00  0.00    +0.000 C 
ATOM     21  O   UNL     1      55.250   1.575  16.665  0.00  0.00    +0.000 OA
ATOM     22  H   UNL     1      52.643   0.516  18.112  0.00  0.00    +0.000 HD
BRANCH  20  23
ATOM     23  C   UNL     1      54.733  -0.672  17.135  0.00  0.00    +0.000 A 
ATOM     24  C   UNL     1      54.837  -1.308  15.903  0.00  0.00    +0.000 A 
ATOM     25  S   UNL     1      55.189  -2.973  16.019  0.00  0.00    +0.000 S 
ATOM     26  C   UNL     1      55.159  -2.916  17.719  0.00  0.00    +0.000 A 
ATOM     27  N   UNL     1      55.366  -4.038  18.459  0.00  0.00    +0.000 NA
ATOM     28  C   UNL     1      55.280  -3.858  19.735  0.00  0.00    +0.000 A 
ATOM     29  N   UNL     1      55.010  -2.657  20.337  0.00  0.00    +0.000 N 
ATOM     30  C   UNL     1      54.828  -1.492  19.632  0.00  0.00    +0.000 A 
ATOM     31  O   UNL     1      54.633  -0.424  20.203  0.00  0.00    +0.000 OA
ATOM     32  C   UNL     1      54.902  -1.641  18.192  0.00  0.00    +0.000 A 
ATOM     33  H   UNL     1      54.963  -2.581  21.343  0.00  0.00    +0.000 HD
ENDBRANCH  20  23
ENDBRANCH  18  19
ENDBRANCH   4  18
TORSDOF 6
ENDMDL
MODEL 9
REMARK VINA RESULT:    -6.210      3.114      4.595
REMARK INTER + INTRA:          -9.306
REMARK INTER:                  -8.374
REMARK INTRA:                  -0.932
REMARK UNBOUND:                -0.917
REMARK  Name = 
REMARK  6 active torsions:
REMARK  status: ('A' for Active; 'I' for Inactive)
REMARK    1  A    between atoms: C_2  and  C_25
REMARK    2  A    between atoms: N_3  and  C_4
REMARK    3  A    between atoms: C_4  and  C_5
REMARK    4  A    between atoms: C_8  and  C_9
REMARK    5  A    between atoms: C_9  and  N_10
REMARK    6  A    between atoms: C_11  and  C_13
REMARK                            x       y       z     vdW  Elec       q    Type
REMARK                         _______ _______ _______ _____ _____    ______ ____
ROOT
ATOM      1  C   UNL     1      48.492   8.043  13.411  0.00  0.00    +0.000 A 
ATOM      2  C   UNL     1      47.867   8.786  14.422  0.00  0.00    +0.000 A 
ATOM      3  C   UNL     1      48.407   8.835  15.712  0.00  0.00    +0.000 A 
ATOM      4  C   UNL     1      49.597   8.160  16.015  0.00  0.00    +0.000 A 
ATOM      5  C   UNL     1      50.224   7.420  15.004  0.00  0.00    +0.000 A 
ATOM      6  C   UNL     1      49.685   7.371  13.714  0.00  0.00    +0.000 A 
ENDROOT
BRANCH   1   7
ATOM      7  C   UNL     1      47.864   7.920  12.049  0.00  0.00    +0.000 C 
BRANCH   7  10
ATOM      8  O   UNL     1      45.111   7.977  12.208  0.00  0.00    +0.000 OA
ATOM      9  C   UNL     1      45.643   6.895  11.975  0.00  0.00    +0.000 C 
ATOM     10  N   UNL     1      47.023   6.759  11.891  0.00  0.00    +0.000 N 
ATOM     11  H   UNL     1      47.412   5.849  11.666  0.00  0.00    +0.000 HD
BRANCH   9  12
ATOM     12  C   UNL     1      44.834   5.635  11.760  0.00  0.00    +0.000 A 
ATOM     13  N   UNL     1      44.144   5.158  12.818  0.00  0.00    +0.000 NA
ATOM     14  C   UNL     1      43.433   4.039  12.604  0.00  0.00    +0.000 A 
ATOM     15  C   UNL     1      43.391   3.394  11.392  0.00  0.00    +0.000 A 
ATOM     16  C   UNL     1      44.134   3.962  10.379  0.00  0.00    +0.000 A 
ATOM     17  N   UNL     1      44.864   5.086  10.523  0.00  0.00    +0.000 NA
ENDBRANCH   9  12
ENDBRANCH   7  10
ENDBRANCH   1   7
BRANCH   4  18
ATOM     18  C   UNL     1      50.181   8.200  17.405  0.00  0.00    +0.000 C 
BRANCH  18  19
ATOM     19  N   UNL     1      51.057   7.083  17.653  0.00  0.00    +0.000 N 
ATOM     20  C   UNL     1      50.624   5.990  18.363  0.00  0.00    +0.000 C 
ATOM     21  O   UNL     1      49.472   5.904  18.782  0.00  0.00    +0.000 OA
ATOM     22  H   UNL     1      52.053   7.234  17.524  0.00  0.00    +0.000 HD
BRANCH  20  23
ATOM     23  C   UNL     1      51.584   4.894  18.543  0.00  0.00    +0.000 A 
ATOM     24  C   UNL     1      52.764   5.122  19.241  0.00  0.00    +0.000 A 
ATOM     25  S   UNL     1      53.739   3.733  19.409  0.00  0.00    +0.000 S 
ATOM     26  C   UNL     1      52.647   2.791  18.508  0.00  0.00    +0.000 A 
ATOM     27  N   UNL     1      52.901   1.479  18.253  0.00  0.00    +0.000 NA
ATOM     28  C   UNL     1      52.007   0.894  17.528  0.00  0.00    +0.000 A 
ATOM     29  N   UNL     1      50.880   1.501  17.038  0.00  0.00    +0.000 N 
ATOM     30  C   UNL     1      50.565   2.814  17.298  0.00  0.00    +0.000 A 
ATOM     31  O   UNL     1      49.525   3.315  16.883  0.00  0.00    +0.000 OA
ATOM     32  C   UNL     1      51.545   3.521  18.099  0.00  0.00    +0.000 A 
ATOM     33  H   UNL     1      50.214   0.985  16.482  0.00  0.00    +0.000 HD
ENDBRANCH  20  23
ENDBRANCH  18  19
ENDBRANCH   4  18
TORSDOF 6
ENDMDL
