MODEL 1
REMARK VINA RESULT:    -8.939      0.000      0.000
REMARK INTER + INTRA:         -12.269
REMARK INTER:                 -11.552
REMARK INTRA:                  -0.717
REMARK UNBOUND:                -0.717
REMARK  Name = 
REMARK  5 active torsions:
REMARK  status: ('A' for Active; 'I' for Inactive)
REMARK    1  A    between atoms: C_2  and  C_18
REMARK    2  A    between atoms: N_3  and  C_4
REMARK    3  A    between atoms: C_4  and  C_5
REMARK    4  A    between atoms: C_8  and  C_9
REMARK    5  A    between atoms: C_9  and  C_10
REMARK                            x       y       z     vdW  Elec       q    Type
REMARK                         _______ _______ _______ _____ _____    ______ ____
ROOT
ATOM      1  O   UNL     1      48.828   6.590  13.003  0.00  0.00    +0.000 OA
ATOM      2  C   UNL     1      48.098   6.587  13.988  0.00  0.00    +0.000 C 
ATOM      3  N   UNL     1      46.761   6.891  13.928  0.00  0.00    +0.000 N 
ATOM      4  H   UNL     1      46.243   7.016  14.788  0.00  0.00    +0.000 HD
ENDROOT
BRANCH   2   5
ATOM      5  C   UNL     1      48.590   6.214  15.318  0.00  0.00    +0.000 A 
ATOM      6  C   UNL     1      49.551   6.980  15.970  0.00  0.00    +0.000 A 
ATOM      7  S   UNL     1      49.965   6.371  17.511  0.00  0.00    +0.000 S 
ATOM      8  C   UNL     1      48.863   5.079  17.361  0.00  0.00    +0.000 A 
ATOM      9  N   UNL     1      48.690   4.176  18.364  0.00  0.00    +0.000 NA
ATOM     10  C   UNL     1      47.801   3.276  18.121  0.00  0.00    +0.000 A 
ATOM     11  N   UNL     1      47.073   3.180  16.965  0.00  0.00    +0.000 N 
ATOM     12  C   UNL     1      47.276   4.013  15.896  0.00  0.00    +0.000 A 
ATOM     13  O   UNL     1      46.735   3.787  14.820  0.00  0.00    +0.000 OA
ATOM     14  C   UNL     1      48.217   5.092  16.142  0.00  0.00    +0.000 A 
ATOM     15  H   UNL     1      46.428   2.423  16.807  0.00  0.00    +0.000 HD
ENDBRANCH   2   5
BRANCH   3  16
ATOM     16  C   UNL     1      46.088   7.330  12.733  0.00  0.00    +0.000 C 
BRANCH  16  17
ATOM     17  C   UNL     1      45.698   6.193  11.833  0.00  0.00    +0.000 A 
ATOM     18  C   UNL     1      44.979   5.099  12.313  0.00  0.00    +0.000 A 
ATOM     19  C   UNL     1      44.594   4.079  11.441  0.00  0.00    +0.000 A 
ATOM     20  C   UNL     1      44.928   4.178  10.092  0.00  0.00    +0.000 A 
ATOM     21  N   UNL     1      45.652   5.220   9.607  0.00  0.00    +0.000 NA
ATOM     22  C   UNL     1      46.022   6.187  10.481  0.00  0.00    +0.000 A 
BRANCH  20  23
ATOM     23  C   UNL     1      44.446   3.137   9.096  0.00  0.00    +0.000 C 
BRANCH  23  24
ATOM     24  C   UNL     1      45.517   2.675   8.128  0.00  0.00    +0.000 A 
ATOM     25  C   UNL     1      45.907   3.494   7.056  0.00  0.00    +0.000 A 
ATOM     26  C   UNL     1      46.830   3.042   6.110  0.00  0.00    +0.000 A 
ATOM     27  C   UNL     1      47.402   1.780   6.244  0.00  0.00    +0.000 A 
ATOM     28  C   UNL     1      47.066   0.977   7.333  0.00  0.00    +0.000 A 
ATOM     29  C   UNL     1      46.128   1.421   8.271  0.00  0.00    +0.000 A 
ENDBRANCH  23  24
ENDBRANCH  20  23
ENDBRANCH  16  17
ENDBRANCH   3  16
TORSDOF 5
ENDMDL
MODEL 2
REMARK VINA RESULT:    -8.411      1.572      2.439
REMARK INTER + INTRA:         -11.587
REMARK INTER:                 -10.982
REMARK INTRA:                  -0.605
REMARK UNBOUND:                -0.717
REMARK  Name = 
REMARK  5 active torsions:
REMARK  status: ('A' for Active; 'I' for Inactive)
REMARK    1  A    between atoms: C_2  and  C_18
REMARK    2  A    between atoms: N_3  and  C_4
REMARK    3  A    between atoms: C_4  and  C_5
REMARK    4  A    between atoms: C_8  and  C_9
REMARK    5  A    between atoms: C_9  and  C_10
REMARK                            x       y       z     vdW  Elec       q    Type
REMARK                         _______ _______ _______ _____ _____    ______ ____
ROOT
ATOM      1  O   UNL     1      48.654   6.050  13.933  0.00  0.00    +0.000 OA
ATOM      2  C   UNL     1      47.714   5.623  14.594  0.00  0.00    +0.000 C 
ATOM      3  N   UNL     1      46.407   5.735  14.192  0.00  0.00    +0.000 N 
ATOM      4  H   UNL     1      45.668   5.499  14.843  0.00  0.00    +0.000 HD
ENDROOT
BRANCH   2   5
ATOM      5  C   UNL     1      47.916   4.916  15.862  0.00  0.00    +0.000 A 
ATOM      6  C   UNL     1      47.564   3.577  16.003  0.00  0.00    +0.000 A 
ATOM      7  S   UNL     1      47.902   2.952  17.556  0.00  0.00    +0.000 S 
ATOM      8  C   UNL     1      48.543   4.442  18.080  0.00  0.00    +0.000 A 
ATOM      9  N   UNL     1      49.052   4.592  19.333  0.00  0.00    +0.000 NA
ATOM     10  C   UNL     1      49.530   5.763  19.575  0.00  0.00    +0.000 A 
ATOM     11  N   UNL     1      49.539   6.809  18.690  0.00  0.00    +0.000 N 
ATOM     12  C   UNL     1      48.959   6.730  17.452  0.00  0.00    +0.000 A 
ATOM     13  O   UNL     1      48.828   7.733  16.761  0.00  0.00    +0.000 OA
ATOM     14  C   UNL     1      48.467   5.408  17.099  0.00  0.00    +0.000 A 
ATOM     15  H   UNL     1      49.878   7.720  18.951  0.00  0.00    +0.000 HD
ENDBRANCH   2   5
BRANCH   3  16
ATOM     16  C   UNL     1      45.985   6.436  13.007  0.00  0.00    +0.000 C 
BRANCH  16  17
ATOM     17  C   UNL     1      45.543   5.510  11.910  0.00  0.00    +0.000 A 
ATOM     18  C   UNL     1      45.601   5.891  10.570  0.00  0.00    +0.000 A 
ATOM     19  C   UNL     1      45.224   4.991   9.571  0.00  0.00    +0.000 A 
ATOM     20  C   UNL     1      44.802   3.714   9.934  0.00  0.00    +0.000 A 
ATOM     21  N   UNL     1      44.711   3.330  11.234  0.00  0.00    +0.000 NA
ATOM     22  C   UNL     1      45.072   4.231  12.180  0.00  0.00    +0.000 A 
BRANCH  20  23
ATOM     23  C   UNL     1      44.474   2.676   8.874  0.00  0.00    +0.000 C 
BRANCH  23  24
ATOM     24  C   UNL     1      45.600   2.430   7.889  0.00  0.00    +0.000 A 
ATOM     25  C   UNL     1      46.419   1.297   8.015  0.00  0.00    +0.000 A 
ATOM     26  C   UNL     1      47.510   1.106   7.165  0.00  0.00    +0.000 A 
ATOM     27  C   UNL     1      47.776   2.027   6.156  0.00  0.00    +0.000 A 
ATOM     28  C   UNL     1      46.939   3.129   5.984  0.00  0.00    +0.000 A 
ATOM     29  C   UNL     1      45.857   3.332   6.846  0.00  0.00    +0.000 A 
ENDBRANCH  23  24
ENDBRANCH  20  23
ENDBRANCH  16  17
ENDBRANCH   3  16
TORSDOF 5
ENDMDL
MODEL 3
REMARK VINA RESULT:    -8.204      2.498      4.132
REMARK INTER + INTRA:         -11.319
REMARK INTER:                 -10.307
REMARK INTRA:                  -1.012
REMARK UNBOUND:                -0.717
REMARK  Name = 
REMARK  5 active torsions:
REMARK  status: ('A' for Active; 'I' for Inactive)
REMARK    1  A    between atoms: C_2  and  C_18
REMARK    2  A    between atoms: N_3  and  C_4
REMARK    3  A    between atoms: C_4  and  C_5
REMARK    4  A    between atoms: C_8  and  C_9
REMARK    5  A    between atoms: C_9  and  C_10
REMARK                            x       y       z     vdW  Elec       q    Type
REMARK                         _______ _______ _______ _____ _____    ______ ____
ROOT
ATOM      1  O   UNL     1      48.957   5.952  15.394  0.00  0.00    +0.000 OA
ATOM      2  C   UNL     1      48.307   6.788  14.775  0.00  0.00    +0.000 C 
ATOM      3  N   UNL     1      47.122   6.496  14.147  0.00  0.00    +0.000 N 
ATOM      4  H   UNL     1      46.707   7.184  13.531  0.00  0.00    +0.000 HD
ENDROOT
BRANCH   2   5
ATOM      5  C   UNL     1      48.727   8.190  14.690  0.00  0.00    +0.000 A 
ATOM      6  C   UNL     1      48.668   9.027  15.799  0.00  0.00    +0.000 A 
ATOM      7  S   UNL     1      49.221  10.611  15.477  0.00  0.00    +0.000 S 
ATOM      8  C   UNL     1      49.569  10.222  13.854  0.00  0.00    +0.000 A 
ATOM      9  N   UNL     1      50.111  11.139  13.007  0.00  0.00    +0.000 NA
ATOM     10  C   UNL     1      50.350  10.691  11.823  0.00  0.00    +0.000 A 
ATOM     11  N   UNL     1      50.089   9.417  11.395  0.00  0.00    +0.000 N 
ATOM     12  C   UNL     1      49.465   8.488  12.185  0.00  0.00    +0.000 A 
ATOM     13  O   UNL     1      49.088   7.422  11.713  0.00  0.00    +0.000 OA
ATOM     14  C   UNL     1      49.237   8.917  13.555  0.00  0.00    +0.000 A 
ATOM     15  H   UNL     1      50.247   9.136  10.441  0.00  0.00    +0.000 HD
ENDBRANCH   2   5
BRANCH   3  16
ATOM     16  C   UNL     1      46.557   5.174  14.066  0.00  0.00    +0.000 C 
BRANCH  16  17
ATOM     17  C   UNL     1      45.984   4.867  12.713  0.00  0.00    +0.000 A 
ATOM     18  C   UNL     1      46.059   5.785  11.666  0.00  0.00    +0.000 A 
ATOM     19  C   UNL     1      45.555   5.453  10.407  0.00  0.00    +0.000 A 
ATOM     20  C   UNL     1      44.990   4.194  10.214  0.00  0.00    +0.000 A 
ATOM     21  N   UNL     1      44.881   3.294  11.226  0.00  0.00    +0.000 NA
ATOM     22  C   UNL     1      45.368   3.652  12.439  0.00  0.00    +0.000 A 
BRANCH  20  23
ATOM     23  C   UNL     1      44.518   3.759   8.838  0.00  0.00    +0.000 C 
BRANCH  23  24
ATOM     24  C   UNL     1      45.560   2.994   8.046  0.00  0.00    +0.000 A 
ATOM     25  C   UNL     1      46.181   3.584   6.934  0.00  0.00    +0.000 A 
ATOM     26  C   UNL     1      47.078   2.857   6.148  0.00  0.00    +0.000 A 
ATOM     27  C   UNL     1      47.392   1.543   6.484  0.00  0.00    +0.000 A 
ATOM     28  C   UNL     1      46.824   0.962   7.617  0.00  0.00    +0.000 A 
ATOM     29  C   UNL     1      45.912   1.682   8.394  0.00  0.00    +0.000 A 
ENDBRANCH  23  24
ENDBRANCH  20  23
ENDBRANCH  16  17
ENDBRANCH   3  16
TORSDOF 5
ENDMDL
MODEL 4
REMARK VINA RESULT:    -8.161      1.094      1.694
REMARK INTER + INTRA:         -11.264
REMARK INTER:                 -10.379
REMARK INTRA:                  -0.885
REMARK UNBOUND:                -0.717
REMARK  Name = 
REMARK  5 active torsions:
REMARK  status: ('A' for Active; 'I' for Inactive)
REMARK    1  A    between atoms: C_2  and  C_18
REMARK    2  A    between atoms: N_3  and  C_4
REMARK    3  A    between atoms: C_4  and  C_5
REMARK    4  A    between atoms: C_8  and  C_9
REMARK    5  A    between atoms: C_9  and  C_10
REMARK                            x       y       z     vdW  Elec       q    Type
REMARK                         _______ _______ _______ _____ _____    ______ ____
ROOT
ATOM      1  O   UNL     1      49.786   7.308  14.149  0.00  0.00    +0.000 OA
ATOM      2  C   UNL     1      48.861   7.059  14.913  0.00  0.00    +0.000 C 
ATOM      3  N   UNL     1      47.545   7.281  14.591  0.00  0.00    +0.000 N 
ATOM      4  H   UNL     1      46.839   7.196  15.311  0.00  0.00    +0.000 HD
ENDROOT
BRANCH   2   5
ATOM      5  C   UNL     1      49.084   6.459  16.232  0.00  0.00    +0.000 A 
ATOM      6  C   UNL     1      49.858   7.102  17.193  0.00  0.00    +0.000 A 
ATOM      7  S   UNL     1      49.971   6.233  18.659  0.00  0.00    +0.000 S 
ATOM      8  C   UNL     1      48.977   4.983  18.062  0.00  0.00    +0.000 A 
ATOM      9  N   UNL     1      48.639   3.917  18.836  0.00  0.00    +0.000 NA
ATOM     10  C   UNL     1      47.857   3.070  18.261  0.00  0.00    +0.000 A 
ATOM     11  N   UNL     1      47.386   3.176  16.979  0.00  0.00    +0.000 N 
ATOM     12  C   UNL     1      47.770   4.186  16.136  0.00  0.00    +0.000 A 
ATOM     13  O   UNL     1      47.473   4.150  14.948  0.00  0.00    +0.000 OA
ATOM     14  C   UNL     1      48.596   5.208  16.756  0.00  0.00    +0.000 A 
ATOM     15  H   UNL     1      46.820   2.457  16.562  0.00  0.00    +0.000 HD
ENDBRANCH   2   5
BRANCH   3  16
ATOM     16  C   UNL     1      47.110   7.906  13.369  0.00  0.00    +0.000 C 
BRANCH  16  17
ATOM     17  C   UNL     1      46.234   7.014  12.538  0.00  0.00    +0.000 A 
ATOM     18  C   UNL     1      45.183   7.527  11.780  0.00  0.00    +0.000 A 
ATOM     19  C   UNL     1      44.414   6.676  10.983  0.00  0.00    +0.000 A 
ATOM     20  C   UNL     1      44.720   5.318  10.952  0.00  0.00    +0.000 A 
ATOM     21  N   UNL     1      45.721   4.790  11.704  0.00  0.00    +0.000 NA
ATOM     22  C   UNL     1      46.440   5.641  12.476  0.00  0.00    +0.000 A 
BRANCH  20  23
ATOM     23  C   UNL     1      43.969   4.376  10.028  0.00  0.00    +0.000 C 
BRANCH  23  24
ATOM     24  C   UNL     1      44.866   3.605   9.078  0.00  0.00    +0.000 A 
ATOM     25  C   UNL     1      44.955   2.207   9.162  0.00  0.00    +0.000 A 
ATOM     26  C   UNL     1      45.842   1.498   8.350  0.00  0.00    +0.000 A 
ATOM     27  C   UNL     1      46.626   2.173   7.419  0.00  0.00    +0.000 A 
ATOM     28  C   UNL     1      46.508   3.556   7.286  0.00  0.00    +0.000 A 
ATOM     29  C   UNL     1      45.635   4.271   8.112  0.00  0.00    +0.000 A 
ENDBRANCH  23  24
ENDBRANCH  20  23
ENDBRANCH  16  17
ENDBRANCH   3  16
TORSDOF 5
ENDMDL
MODEL 5
REMARK VINA RESULT:    -7.833      1.975      2.942
REMARK INTER + INTRA:         -10.839
REMARK INTER:                 -10.146
REMARK INTRA:                  -0.693
REMARK UNBOUND:                -0.717
REMARK  Name = 
REMARK  5 active torsions:
REMARK  status: ('A' for Active; 'I' for Inactive)
REMARK    1  A    between atoms: C_2  and  C_18
REMARK    2  A    between atoms: N_3  and  C_4
REMARK    3  A    between atoms: C_4  and  C_5
REMARK    4  A    between atoms: C_8  and  C_9
REMARK    5  A    between atoms: C_9  and  C_10
REMARK                            x       y       z     vdW  Elec       q    Type
REMARK                         _______ _______ _______ _____ _____    ______ ____
ROOT
ATOM      1  O   UNL     1      47.714   4.314  15.304  0.00  0.00    +0.000 OA
ATOM      2  C   UNL     1      47.529   5.415  14.797  0.00  0.00    +0.000 C 
ATOM      3  N   UNL     1      46.399   5.728  14.084  0.00  0.00    +0.000 N 
ATOM      4  H   UNL     1      46.365   6.597  13.567  0.00  0.00    +0.000 HD
ENDROOT
BRANCH   2   5
ATOM      5  C   UNL     1      48.491   6.510  14.948  0.00  0.00    +0.000 A 
ATOM      6  C   UNL     1      49.106   7.086  13.841  0.00  0.00    +0.000 A 
ATOM      7  S   UNL     1      50.175   8.354  14.248  0.00  0.00    +0.000 S 
ATOM      8  C   UNL     1      49.837   8.184  15.910  0.00  0.00    +0.000 A 
ATOM      9  N   UNL     1      50.409   9.001  16.836  0.00  0.00    +0.000 NA
ATOM     10  C   UNL     1      50.034   8.774  18.048  0.00  0.00    +0.000 A 
ATOM     11  N   UNL     1      49.149   7.801  18.429  0.00  0.00    +0.000 N 
ATOM     12  C   UNL     1      48.617   6.901  17.544  0.00  0.00    +0.000 A 
ATOM     13  O   UNL     1      47.974   5.939  17.946  0.00  0.00    +0.000 OA
ATOM     14  C   UNL     1      48.951   7.155  16.153  0.00  0.00    +0.000 A 
ATOM     15  H   UNL     1      48.932   7.634  19.398  0.00  0.00    +0.000 HD
ENDBRANCH   2   5
BRANCH   3  16
ATOM     16  C   UNL     1      45.354   4.786  13.776  0.00  0.00    +0.000 C 
BRANCH  16  17
ATOM     17  C   UNL     1      45.134   4.624  12.300  0.00  0.00    +0.000 A 
ATOM     18  C   UNL     1      45.735   5.478  11.376  0.00  0.00    +0.000 A 
ATOM     19  C   UNL     1      45.545   5.274  10.008  0.00  0.00    +0.000 A 
ATOM     20  C   UNL     1      44.759   4.204   9.585  0.00  0.00    +0.000 A 
ATOM     21  N   UNL     1      44.140   3.376  10.466  0.00  0.00    +0.000 NA
ATOM     22  C   UNL     1      44.334   3.609  11.787  0.00  0.00    +0.000 A 
BRANCH  20  23
ATOM     23  C   UNL     1      44.605   3.893   8.107  0.00  0.00    +0.000 C 
BRANCH  23  24
ATOM     24  C   UNL     1      45.706   3.012   7.549  0.00  0.00    +0.000 A 
ATOM     25  C   UNL     1      45.986   1.767   8.135  0.00  0.00    +0.000 A 
ATOM     26  C   UNL     1      47.052   0.988   7.682  0.00  0.00    +0.000 A 
ATOM     27  C   UNL     1      47.832   1.427   6.616  0.00  0.00    +0.000 A 
ATOM     28  C   UNL     1      47.533   2.636   5.989  0.00  0.00    +0.000 A 
ATOM     29  C   UNL     1      46.476   3.426   6.452  0.00  0.00    +0.000 A 
ENDBRANCH  23  24
ENDBRANCH  20  23
ENDBRANCH  16  17
ENDBRANCH   3  16
TORSDOF 5
ENDMDL
MODEL 6
REMARK VINA RESULT:    -7.567      2.868      3.858
REMARK INTER + INTRA:         -10.496
REMARK INTER:                  -9.966
REMARK INTRA:                  -0.530
REMARK UNBOUND:                -0.717
REMARK  Name = 
REMARK  5 active torsions:
REMARK  status: ('A' for Active; 'I' for Inactive)
REMARK    1  A    between atoms: C_2  and  C_18
REMARK    2  A    between atoms: N_3  and  C_4
REMARK    3  A    between atoms: C_4  and  C_5
REMARK    4  A    between atoms: C_8  and  C_9
REMARK    5  A    between atoms: C_9  and  C_10
REMARK                            x       y       z     vdW  Elec       q    Type
REMARK                         _______ _______ _______ _____ _____    ______ ____
ROOT
ATOM      1  O   UNL     1      48.283   5.525  13.433  0.00  0.00    +0.000 OA
ATOM      2  C   UNL     1      48.190   6.685  13.047  0.00  0.00    +0.000 C 
ATOM      3  N   UNL     1      46.985   7.320  12.876  0.00  0.00    +0.000 N 
ATOM      4  H   UNL     1      46.963   8.222  12.418  0.00  0.00    +0.000 HD
ENDROOT
BRANCH   2   5
ATOM      5  C   UNL     1      49.371   7.509  12.774  0.00  0.00    +0.000 A 
ATOM      6  C   UNL     1      49.816   7.719  11.473  0.00  0.00    +0.000 A 
ATOM      7  S   UNL     1      51.196   8.723  11.388  0.00  0.00    +0.000 S 
ATOM      8  C   UNL     1      51.229   8.920  13.080  0.00  0.00    +0.000 A 
ATOM      9  N   UNL     1      52.163   9.706  13.683  0.00  0.00    +0.000 NA
ATOM     10  C   UNL     1      52.043   9.785  14.963  0.00  0.00    +0.000 A 
ATOM     11  N   UNL     1      51.086   9.145  15.706  0.00  0.00    +0.000 N 
ATOM     12  C   UNL     1      50.183   8.277  15.152  0.00  0.00    +0.000 A 
ATOM     13  O   UNL     1      49.463   7.590  15.867  0.00  0.00    +0.000 OA
ATOM     14  C   UNL     1      50.227   8.205  13.702  0.00  0.00    +0.000 A 
ATOM     15  H   UNL     1      51.073   9.200  16.711  0.00  0.00    +0.000 HD
ENDBRANCH   2   5
BRANCH   3  16
ATOM     16  C   UNL     1      45.706   6.680  13.041  0.00  0.00    +0.000 C 
BRANCH  16  17
ATOM     17  C   UNL     1      45.458   5.605  12.022  0.00  0.00    +0.000 A 
ATOM     18  C   UNL     1      45.132   4.303  12.402  0.00  0.00    +0.000 A 
ATOM     19  C   UNL     1      44.864   3.338  11.430  0.00  0.00    +0.000 A 
ATOM     20  C   UNL     1      44.918   3.697  10.085  0.00  0.00    +0.000 A 
ATOM     21  N   UNL     1      45.261   4.950   9.690  0.00  0.00    +0.000 NA
ATOM     22  C   UNL     1      45.528   5.861  10.658  0.00  0.00    +0.000 A 
BRANCH  20  23
ATOM     23  C   UNL     1      44.542   2.701   9.001  0.00  0.00    +0.000 C 
BRANCH  23  24
ATOM     24  C   UNL     1      45.634   2.470   7.976  0.00  0.00    +0.000 A 
ATOM     25  C   UNL     1      46.427   1.313   8.032  0.00  0.00    +0.000 A 
ATOM     26  C   UNL     1      47.490   1.132   7.145  0.00  0.00    +0.000 A 
ATOM     27  C   UNL     1      47.753   2.089   6.169  0.00  0.00    +0.000 A 
ATOM     28  C   UNL     1      46.941   3.217   6.067  0.00  0.00    +0.000 A 
ATOM     29  C   UNL     1      45.887   3.409   6.965  0.00  0.00    +0.000 A 
ENDBRANCH  23  24
ENDBRANCH  20  23
ENDBRANCH  16  17
ENDBRANCH   3  16
TORSDOF 5
ENDMDL
MODEL 7
REMARK VINA RESULT:    -7.252      3.316      8.032
REMARK INTER + INTRA:         -10.089
REMARK INTER:                  -9.174
REMARK INTRA:                  -0.915
REMARK UNBOUND:                -0.717
REMARK  Name = 
REMARK  5 active torsions:
REMARK  status: ('A' for Active; 'I' for Inactive)
REMARK    1  A    between atoms: C_2  and  C_18
REMARK    2  A    between atoms: N_3  and  C_4
REMARK    3  A    between atoms: C_4  and  C_5
REMARK    4  A    between atoms: C_8  and  C_9
REMARK    5  A    between atoms: C_9  and  C_10
REMARK                            x       y       z     vdW  Elec       q    Type
REMARK                         _______ _______ _______ _____ _____    ______ ____
ROOT
ATOM      1  O   UNL     1      45.962   7.921  11.774  0.00  0.00    +0.000 OA
ATOM      2  C   UNL     1      46.433   6.791  11.695  0.00  0.00    +0.000 C 
ATOM      3  N   UNL     1      47.586   6.416  12.337  0.00  0.00    +0.000 N 
ATOM      4  H   UNL     1      48.004   5.521  12.119  0.00  0.00    +0.000 HD
ENDROOT
BRANCH   2   5
ATOM      5  C   UNL     1      45.772   5.728  10.932  0.00  0.00    +0.000 A 
ATOM      6  C   UNL     1      45.934   5.624   9.554  0.00  0.00    +0.000 A 
ATOM      7  S   UNL     1      45.089   4.304   8.875  0.00  0.00    +0.000 S 
ATOM      8  C   UNL     1      44.499   3.822  10.400  0.00  0.00    +0.000 A 
ATOM      9  N   UNL     1      43.718   2.716  10.539  0.00  0.00    +0.000 NA
ATOM     10  C   UNL     1      43.375   2.459  11.754  0.00  0.00    +0.000 A 
ATOM     11  N   UNL     1      43.726   3.206  12.847  0.00  0.00    +0.000 N 
ATOM     12  C   UNL     1      44.436   4.373  12.744  0.00  0.00    +0.000 A 
ATOM     13  O   UNL     1      44.576   5.103  13.717  0.00  0.00    +0.000 OA
ATOM     14  C   UNL     1      44.910   4.674  11.404  0.00  0.00    +0.000 A 
ATOM     15  H   UNL     1      43.384   2.987  13.769  0.00  0.00    +0.000 HD
ENDBRANCH   2   5
BRANCH   3  16
ATOM     16  C   UNL     1      48.414   7.316  13.096  0.00  0.00    +0.000 C 
BRANCH  16  17
ATOM     17  C   UNL     1      48.802   6.761  14.436  0.00  0.00    +0.000 A 
ATOM     18  C   UNL     1      47.953   5.912  15.146  0.00  0.00    +0.000 A 
ATOM     19  C   UNL     1      48.361   5.377  16.369  0.00  0.00    +0.000 A 
ATOM     20  C   UNL     1      49.626   5.696  16.860  0.00  0.00    +0.000 A 
ATOM     21  N   UNL     1      50.459   6.543  16.201  0.00  0.00    +0.000 NA
ATOM     22  C   UNL     1      50.028   7.055  15.022  0.00  0.00    +0.000 A 
BRANCH  20  23
ATOM     23  C   UNL     1      50.143   5.061  18.138  0.00  0.00    +0.000 C 
BRANCH  23  24
ATOM     24  C   UNL     1      50.985   3.821  17.909  0.00  0.00    +0.000 A 
ATOM     25  C   UNL     1      50.397   2.642  17.424  0.00  0.00    +0.000 A 
ATOM     26  C   UNL     1      51.147   1.472  17.291  0.00  0.00    +0.000 A 
ATOM     27  C   UNL     1      52.503   1.474  17.607  0.00  0.00    +0.000 A 
ATOM     28  C   UNL     1      53.113   2.652  18.038  0.00  0.00    +0.000 A 
ATOM     29  C   UNL     1      52.360   3.819  18.190  0.00  0.00    +0.000 A 
ENDBRANCH  23  24
ENDBRANCH  20  23
ENDBRANCH  16  17
ENDBRANCH   3  16
TORSDOF 5
ENDMDL
MODEL 8
REMARK VINA RESULT:    -7.183      2.380      3.237
REMARK INTER + INTRA:          -9.999
REMARK INTER:                  -9.621
REMARK INTRA:                  -0.379
REMARK UNBOUND:                -0.717
REMARK  Name = 
REMARK  5 active torsions:
REMARK  status: ('A' for Active; 'I' for Inactive)
REMARK    1  A    between atoms: C_2  and  C_18
REMARK    2  A    between atoms: N_3  and  C_4
REMARK    3  A    between atoms: C_4  and  C_5
REMARK    4  A    between atoms: C_8  and  C_9
REMARK    5  A    between atoms: C_9  and  C_10
REMARK                            x       y       z     vdW  Elec       q    Type
REMARK                         _______ _______ _______ _____ _____    ______ ____
ROOT
ATOM      1  O   UNL     1      47.954   5.714  16.642  0.00  0.00    +0.000 OA
ATOM      2  C   UNL     1      48.267   6.144  15.537  0.00  0.00    +0.000 C 
ATOM      3  N   UNL     1      47.544   5.881  14.401  0.00  0.00    +0.000 N 
ATOM      4  H   UNL     1      47.928   6.136  13.500  0.00  0.00    +0.000 HD
ENDROOT
BRANCH   2   5
ATOM      5  C   UNL     1      49.429   7.016  15.345  0.00  0.00    +0.000 A 
ATOM      6  C   UNL     1      49.346   8.165  14.564  0.00  0.00    +0.000 A 
ATOM      7  S   UNL     1      50.812   9.038  14.493  0.00  0.00    +0.000 S 
ATOM      8  C   UNL     1      51.595   7.920  15.514  0.00  0.00    +0.000 A 
ATOM      9  N   UNL     1      52.892   8.093  15.890  0.00  0.00    +0.000 NA
ATOM     10  C   UNL     1      53.338   7.186  16.689  0.00  0.00    +0.000 A 
ATOM     11  N   UNL     1      52.619   6.112  17.142  0.00  0.00    +0.000 N 
ATOM     12  C   UNL     1      51.342   5.851  16.721  0.00  0.00    +0.000 A 
ATOM     13  O   UNL     1      50.797   4.791  17.006  0.00  0.00    +0.000 OA
ATOM     14  C   UNL     1      50.763   6.881  15.874  0.00  0.00    +0.000 A 
ATOM     15  H   UNL     1      53.035   5.404  17.723  0.00  0.00    +0.000 HD
ENDBRANCH   2   5
BRANCH   3  16
ATOM     16  C   UNL     1      46.399   5.008  14.359  0.00  0.00    +0.000 C 
BRANCH  16  17
ATOM     17  C   UNL     1      45.989   4.653  12.959  0.00  0.00    +0.000 A 
ATOM     18  C   UNL     1      45.469   3.396  12.649  0.00  0.00    +0.000 A 
ATOM     19  C   UNL     1      45.057   3.112  11.346  0.00  0.00    +0.000 A 
ATOM     20  C   UNL     1      45.163   4.101  10.371  0.00  0.00    +0.000 A 
ATOM     21  N   UNL     1      45.692   5.323  10.642  0.00  0.00    +0.000 NA
ATOM     22  C   UNL     1      46.095   5.563  11.913  0.00  0.00    +0.000 A 
BRANCH  20  23
ATOM     23  C   UNL     1      44.638   3.863   8.966  0.00  0.00    +0.000 C 
BRANCH  23  24
ATOM     24  C   UNL     1      45.568   3.039   8.096  0.00  0.00    +0.000 A 
ATOM     25  C   UNL     1      45.836   1.699   8.415  0.00  0.00    +0.000 A 
ATOM     26  C   UNL     1      46.757   0.958   7.670  0.00  0.00    +0.000 A 
ATOM     27  C   UNL     1      47.395   1.537   6.576  0.00  0.00    +0.000 A 
ATOM     28  C   UNL     1      47.097   2.851   6.216  0.00  0.00    +0.000 A 
ATOM     29  C   UNL     1      46.190   3.600   6.971  0.00  0.00    +0.000 A 
ENDBRANCH  23  24
ENDBRANCH  20  23
ENDBRANCH  16  17
ENDBRANCH   3  16
TORSDOF 5
ENDMDL
MODEL 9
REMARK VINA RESULT:    -6.726      3.300      8.680
REMARK INTER + INTRA:          -9.409
REMARK INTER:                  -8.548
REMARK INTRA:                  -0.861
REMARK UNBOUND:                -0.717
REMARK  Name = 
REMARK  5 active torsions:
REMARK  status: ('A' for Active; 'I' for Inactive)
REMARK    1  A    between atoms: C_2  and  C_18
REMARK    2  A    between atoms: N_3  and  C_4
REMARK    3  A    between atoms: C_4  and  C_5
REMARK    4  A    between atoms: C_8  and  C_9
REMARK    5  A    between atoms: C_9  and  C_10
REMARK                            x       y       z     vdW  Elec       q    Type
REMARK                         _______ _______ _______ _____ _____    ______ ____
ROOT
ATOM      1  O   UNL     1      45.385   7.790  12.018  0.00  0.00    +0.000 OA
ATOM      2  C   UNL     1      46.099   6.861  11.659  0.00  0.00    +0.000 C 
ATOM      3  N   UNL     1      47.436   6.786  11.961  0.00  0.00    +0.000 N 
ATOM      4  H   UNL     1      48.004   6.076  11.517  0.00  0.00    +0.000 HD
ENDROOT
BRANCH   2   5
ATOM      5  C   UNL     1      45.569   5.721  10.905  0.00  0.00    +0.000 A 
ATOM      6  C   UNL     1      45.843   5.564   9.550  0.00  0.00    +0.000 A 
ATOM      7  S   UNL     1      45.138   4.160   8.879  0.00  0.00    +0.000 S 
ATOM      8  C   UNL     1      44.463   3.712  10.378  0.00  0.00    +0.000 A 
ATOM      9  N   UNL     1      43.744   2.564  10.515  0.00  0.00    +0.000 NA
ATOM     10  C   UNL     1      43.324   2.341  11.713  0.00  0.00    +0.000 A 
ATOM     11  N   UNL     1      43.541   3.160  12.789  0.00  0.00    +0.000 N 
ATOM     12  C   UNL     1      44.182   4.366  12.679  0.00  0.00    +0.000 A 
ATOM     13  O   UNL     1      44.200   5.149  13.621  0.00  0.00    +0.000 OA
ATOM     14  C   UNL     1      44.740   4.635  11.364  0.00  0.00    +0.000 A 
ATOM     15  H   UNL     1      43.144   2.963  13.692  0.00  0.00    +0.000 HD
ENDBRANCH   2   5
BRANCH   3  16
ATOM     16  C   UNL     1      48.165   7.820  12.648  0.00  0.00    +0.000 C 
BRANCH  16  17
ATOM     17  C   UNL     1      48.804   7.336  13.918  0.00  0.00    +0.000 A 
ATOM     18  C   UNL     1      49.936   7.956  14.446  0.00  0.00    +0.000 A 
ATOM     19  C   UNL     1      50.481   7.510  15.651  0.00  0.00    +0.000 A 
ATOM     20  C   UNL     1      49.872   6.448  16.317  0.00  0.00    +0.000 A 
ATOM     21  N   UNL     1      48.786   5.809  15.809  0.00  0.00    +0.000 NA
ATOM     22  C   UNL     1      48.290   6.259  14.631  0.00  0.00    +0.000 A 
BRANCH  20  23
ATOM     23  C   UNL     1      50.377   5.994  17.676  0.00  0.00    +0.000 C 
BRANCH  23  24
ATOM     24  C   UNL     1      49.372   6.180  18.796  0.00  0.00    +0.000 A 
ATOM     25  C   UNL     1      49.178   5.169  19.751  0.00  0.00    +0.000 A 
ATOM     26  C   UNL     1      48.195   5.296  20.734  0.00  0.00    +0.000 A 
ATOM     27  C   UNL     1      47.417   6.449  20.798  0.00  0.00    +0.000 A 
ATOM     28  C   UNL     1      47.636   7.484  19.890  0.00  0.00    +0.000 A 
ATOM     29  C   UNL     1      48.607   7.352  18.893  0.00  0.00    +0.000 A 
ENDBRANCH  23  24
ENDBRANCH  20  23
ENDBRANCH  16  17
ENDBRANCH   3  16
TORSDOF 5
ENDMDL
