MODEL 1
REMARK VINA RESULT:    -8.121      0.000      0.000
REMARK INTER + INTRA:         -13.156
REMARK INTER:                 -11.920
REMARK INTRA:                  -1.236
REMARK UNBOUND:                -1.236
REMARK  Name = 
REMARK  9 active torsions:
REMARK  status: ('A' for Active; 'I' for Inactive)
REMARK    1  A    between atoms: C_1  and  O_2
REMARK    2  A    between atoms: O_2  and  C_3
REMARK    3  A    between atoms: C_10  and  C_11
REMARK    4  A    between atoms: N_13  and  C_14
REMARK    5  A    between atoms: C_14  and  C_15
REMARK    6  A    between atoms: C_18  and  C_19
REMARK    7  A    between atoms: C_19  and  O_20
REMARK    8  A    between atoms: O_20  and  C_21
REMARK    9  A    between atoms: C_21  and  C_22
REMARK                            x       y       z     vdW  Elec       q    Type
REMARK                         _______ _______ _______ _____ _____    ______ ____
ROOT
ATOM      1  C   UNL     1      47.929   7.239  13.272  0.00  0.00    +0.000 C 
ENDROOT
BRANCH   1   2
ATOM      2  C   UNL     1      46.879   6.331  12.691  0.00  0.00    +0.000 A 
ATOM      3  C   UNL     1      46.465   6.481  11.360  0.00  0.00    +0.000 A 
ATOM      4  C   UNL     1      45.442   5.683  10.845  0.00  0.00    +0.000 A 
ATOM      5  C   UNL     1      44.814   4.723  11.649  0.00  0.00    +0.000 A 
ATOM      6  C   UNL     1      45.236   4.565  12.974  0.00  0.00    +0.000 A 
ATOM      7  C   UNL     1      46.256   5.364  13.492  0.00  0.00    +0.000 A 
BRANCH   5   8
ATOM      8  C   UNL     1      43.716   3.854  11.089  0.00  0.00    +0.000 C 
BRANCH   8   9
ATOM      9  O   UNL     1      43.950   3.509   9.726  0.00  0.00    +0.000 OA
BRANCH   9  10
ATOM     10  C   UNL     1      44.578   2.229   9.581  0.00  0.00    +0.000 C 
BRANCH  10  11
ATOM     11  C   UNL     1      45.588   2.238   8.457  0.00  0.00    +0.000 A 
ATOM     12  C   UNL     1      45.837   3.401   7.727  0.00  0.00    +0.000 A 
ATOM     13  C   UNL     1      46.808   3.381   6.735  0.00  0.00    +0.000 A 
ATOM     14  C   UNL     1      47.520   2.210   6.504  0.00  0.00    +0.000 A 
ATOM     15  C   UNL     1      47.227   1.104   7.282  0.00  0.00    +0.000 A 
ATOM     16  N   UNL     1      46.285   1.092   8.250  0.00  0.00    +0.000 NA
ENDBRANCH  10  11
ENDBRANCH   9  10
ENDBRANCH   8   9
ENDBRANCH   5   8
ENDBRANCH   1   2
BRANCH   1  19
ATOM     17  C   UNL     1      49.010   6.975  15.457  0.00  0.00    +0.000 C 
ATOM     18  O   UNL     1      50.092   6.767  14.913  0.00  0.00    +0.000 OA
ATOM     19  N   UNL     1      47.885   7.210  14.716  0.00  0.00    +0.000 N 
ATOM     20  H   UNL     1      46.992   7.353  15.168  0.00  0.00    +0.000 HD
BRANCH  17  28
ATOM     21  C   UNL     1      48.881   4.495  17.864  0.00  0.00    +0.000 A 
ATOM     22  N   UNL     1      48.764   3.760  18.991  0.00  0.00    +0.000 NA
ATOM     23  C   UNL     1      48.607   4.402  20.152  0.00  0.00    +0.000 A 
ATOM     24  N   UNL     1      48.551   5.716  20.336  0.00  0.00    +0.000 NA
ATOM     25  C   UNL     1      48.662   6.412  19.193  0.00  0.00    +0.000 A 
ATOM     26  S   UNL     1      48.612   8.108  19.246  0.00  0.00    +0.000 S 
ATOM     27  C   UNL     1      48.784   8.214  17.561  0.00  0.00    +0.000 A 
ATOM     28  C   UNL     1      48.882   6.981  16.924  0.00  0.00    +0.000 A 
ATOM     29  C   UNL     1      48.822   5.900  17.906  0.00  0.00    +0.000 A 
BRANCH  21  31
ATOM     30  C   UNL     1      47.878   3.310  16.101  0.00  0.00    +0.000 C 
ATOM     31  O   UNL     1      49.079   3.833  16.669  0.00  0.00    +0.000 OA
ENDBRANCH  21  31
ENDBRANCH  17  28
ENDBRANCH   1  19
TORSDOF 8
ENDMDL
MODEL 2
REMARK VINA RESULT:    -7.802      1.425      2.506
REMARK INTER + INTRA:         -12.687
REMARK INTER:                 -11.667
REMARK INTRA:                  -1.020
REMARK UNBOUND:                -1.236
REMARK  Name = 
REMARK  9 active torsions:
REMARK  status: ('A' for Active; 'I' for Inactive)
REMARK    1  A    between atoms: C_1  and  O_2
REMARK    2  A    between atoms: O_2  and  C_3
REMARK    3  A    between atoms: C_10  and  C_11
REMARK    4  A    between atoms: N_13  and  C_14
REMARK    5  A    between atoms: C_14  and  C_15
REMARK    6  A    between atoms: C_18  and  C_19
REMARK    7  A    between atoms: C_19  and  O_20
REMARK    8  A    between atoms: O_20  and  C_21
REMARK    9  A    between atoms: C_21  and  C_22
REMARK                            x       y       z     vdW  Elec       q    Type
REMARK                         _______ _______ _______ _____ _____    ______ ____
ROOT
ATOM      1  C   UNL     1      48.020   6.546  13.734  0.00  0.00    +0.000 C 
ENDROOT
BRANCH   1   2
ATOM      2  C   UNL     1      46.839   6.044  12.949  0.00  0.00    +0.000 A 
ATOM      3  C   UNL     1      45.943   5.128  13.516  0.00  0.00    +0.000 A 
ATOM      4  C   UNL     1      44.888   4.612  12.762  0.00  0.00    +0.000 A 
ATOM      5  C   UNL     1      44.712   4.999  11.426  0.00  0.00    +0.000 A 
ATOM      6  C   UNL     1      45.600   5.922  10.863  0.00  0.00    +0.000 A 
ATOM      7  C   UNL     1      46.657   6.437  11.616  0.00  0.00    +0.000 A 
BRANCH   5   8
ATOM      8  C   UNL     1      43.567   4.448  10.614  0.00  0.00    +0.000 C 
BRANCH   8   9
ATOM      9  O   UNL     1      43.997   3.961   9.345  0.00  0.00    +0.000 OA
BRANCH   9  10
ATOM     10  C   UNL     1      44.568   2.649   9.424  0.00  0.00    +0.000 C 
BRANCH  10  11
ATOM     11  C   UNL     1      45.567   2.419   8.313  0.00  0.00    +0.000 A 
ATOM     12  C   UNL     1      45.878   3.434   7.407  0.00  0.00    +0.000 A 
ATOM     13  C   UNL     1      46.838   3.197   6.431  0.00  0.00    +0.000 A 
ATOM     14  C   UNL     1      47.477   1.965   6.391  0.00  0.00    +0.000 A 
ATOM     15  C   UNL     1      47.126   1.016   7.335  0.00  0.00    +0.000 A 
ATOM     16  N   UNL     1      46.193   1.214   8.292  0.00  0.00    +0.000 NA
ENDBRANCH  10  11
ENDBRANCH   9  10
ENDBRANCH   8   9
ENDBRANCH   5   8
ENDBRANCH   1   2
BRANCH   1  19
ATOM     17  C   UNL     1      48.936   6.322  15.997  0.00  0.00    +0.000 C 
ATOM     18  O   UNL     1      50.036   6.707  15.607  0.00  0.00    +0.000 OA
ATOM     19  N   UNL     1      47.885   6.206  15.132  0.00  0.00    +0.000 N 
ATOM     20  H   UNL     1      46.989   5.862  15.453  0.00  0.00    +0.000 HD
BRANCH  17  28
ATOM     21  C   UNL     1      47.842   8.094  18.759  0.00  0.00    +0.000 A 
ATOM     22  N   UNL     1      47.493   8.530  19.987  0.00  0.00    +0.000 NA
ATOM     23  C   UNL     1      47.528   7.663  21.002  0.00  0.00    +0.000 A 
ATOM     24  N   UNL     1      47.876   6.382  20.945  0.00  0.00    +0.000 NA
ATOM     25  C   UNL     1      48.225   5.987  19.709  0.00  0.00    +0.000 A 
ATOM     26  S   UNL     1      48.695   4.376  19.455  0.00  0.00    +0.000 S 
ATOM     27  C   UNL     1      48.964   4.664  17.805  0.00  0.00    +0.000 A 
ATOM     28  C   UNL     1      48.707   5.973  17.410  0.00  0.00    +0.000 A 
ATOM     29  C   UNL     1      48.250   6.763  18.552  0.00  0.00    +0.000 A 
BRANCH  21  31
ATOM     30  C   UNL     1      48.854   9.912  17.668  0.00  0.00    +0.000 C 
ATOM     31  O   UNL     1      47.771   8.982  17.704  0.00  0.00    +0.000 OA
ENDBRANCH  21  31
ENDBRANCH  17  28
ENDBRANCH   1  19
TORSDOF 8
ENDMDL
MODEL 3
REMARK VINA RESULT:    -7.231      2.183      2.774
REMARK INTER + INTRA:         -11.849
REMARK INTER:                 -10.878
REMARK INTRA:                  -0.970
REMARK UNBOUND:                -1.236
REMARK  Name = 
REMARK  9 active torsions:
REMARK  status: ('A' for Active; 'I' for Inactive)
REMARK    1  A    between atoms: C_1  and  O_2
REMARK    2  A    between atoms: O_2  and  C_3
REMARK    3  A    between atoms: C_10  and  C_11
REMARK    4  A    between atoms: N_13  and  C_14
REMARK    5  A    between atoms: C_14  and  C_15
REMARK    6  A    between atoms: C_18  and  C_19
REMARK    7  A    between atoms: C_19  and  O_20
REMARK    8  A    between atoms: O_20  and  C_21
REMARK    9  A    between atoms: C_21  and  C_22
REMARK                            x       y       z     vdW  Elec       q    Type
REMARK                         _______ _______ _______ _____ _____    ______ ____
ROOT
ATOM      1  C   UNL     1      48.380   7.365  14.832  0.00  0.00    +0.000 C 
ENDROOT
BRANCH   1   2
ATOM      2  C   UNL     1      47.444   6.547  13.984  0.00  0.00    +0.000 A 
ATOM      3  C   UNL     1      47.167   5.213  14.312  0.00  0.00    +0.000 A 
ATOM      4  C   UNL     1      46.353   4.436  13.485  0.00  0.00    +0.000 A 
ATOM      5  C   UNL     1      45.804   4.978  12.315  0.00  0.00    +0.000 A 
ATOM      6  C   UNL     1      46.072   6.314  11.994  0.00  0.00    +0.000 A 
ATOM      7  C   UNL     1      46.887   7.090  12.818  0.00  0.00    +0.000 A 
BRANCH   5   8
ATOM      8  C   UNL     1      44.917   4.142  11.427  0.00  0.00    +0.000 C 
BRANCH   8   9
ATOM      9  O   UNL     1      45.073   4.477  10.049  0.00  0.00    +0.000 OA
BRANCH   9  10
ATOM     10  C   UNL     1      44.515   3.487   9.176  0.00  0.00    +0.000 C 
BRANCH  10  11
ATOM     11  C   UNL     1      45.551   2.967   8.206  0.00  0.00    +0.000 A 
ATOM     12  C   UNL     1      46.021   1.656   8.294  0.00  0.00    +0.000 A 
ATOM     13  C   UNL     1      46.936   1.202   7.353  0.00  0.00    +0.000 A 
ATOM     14  C   UNL     1      47.348   2.056   6.338  0.00  0.00    +0.000 A 
ATOM     15  C   UNL     1      46.823   3.336   6.309  0.00  0.00    +0.000 A 
ATOM     16  N   UNL     1      45.937   3.807   7.212  0.00  0.00    +0.000 NA
ENDBRANCH  10  11
ENDBRANCH   9  10
ENDBRANCH   8   9
ENDBRANCH   5   8
ENDBRANCH   1   2
BRANCH   1  19
ATOM     17  C   UNL     1      49.521   6.262  16.701  0.00  0.00    +0.000 C 
ATOM     18  O   UNL     1      48.701   6.721  17.493  0.00  0.00    +0.000 OA
ATOM     19  N   UNL     1      49.438   6.539  15.365  0.00  0.00    +0.000 N 
ATOM     20  H   UNL     1      50.132   6.181  14.721  0.00  0.00    +0.000 HD
BRANCH  17  28
ATOM     21  C   UNL     1      49.936   2.837  16.939  0.00  0.00    +0.000 A 
ATOM     22  N   UNL     1      50.355   1.577  17.179  0.00  0.00    +0.000 NA
ATOM     23  C   UNL     1      51.570   1.402  17.706  0.00  0.00    +0.000 A 
ATOM     24  N   UNL     1      52.442   2.350  18.030  0.00  0.00    +0.000 NA
ATOM     25  C   UNL     1      51.986   3.590  17.786  0.00  0.00    +0.000 A 
ATOM     26  S   UNL     1      52.976   4.923  18.140  0.00  0.00    +0.000 S 
ATOM     27  C   UNL     1      51.784   6.009  17.611  0.00  0.00    +0.000 A 
ATOM     28  C   UNL     1      50.621   5.396  17.158  0.00  0.00    +0.000 A 
ATOM     29  C   UNL     1      50.749   3.943  17.251  0.00  0.00    +0.000 A 
BRANCH  21  31
ATOM     30  C   UNL     1      47.617   2.948  17.297  0.00  0.00    +0.000 C 
ATOM     31  O   UNL     1      48.694   3.015  16.362  0.00  0.00    +0.000 OA
ENDBRANCH  21  31
ENDBRANCH  17  28
ENDBRANCH   1  19
TORSDOF 8
ENDMDL
MODEL 4
REMARK VINA RESULT:    -6.969      1.607      2.351
REMARK INTER + INTRA:         -11.464
REMARK INTER:                 -10.240
REMARK INTRA:                  -1.224
REMARK UNBOUND:                -1.236
REMARK  Name = 
REMARK  9 active torsions:
REMARK  status: ('A' for Active; 'I' for Inactive)
REMARK    1  A    between atoms: C_1  and  O_2
REMARK    2  A    between atoms: O_2  and  C_3
REMARK    3  A    between atoms: C_10  and  C_11
REMARK    4  A    between atoms: N_13  and  C_14
REMARK    5  A    between atoms: C_14  and  C_15
REMARK    6  A    between atoms: C_18  and  C_19
REMARK    7  A    between atoms: C_19  and  O_20
REMARK    8  A    between atoms: O_20  and  C_21
REMARK    9  A    between atoms: C_21  and  C_22
REMARK                            x       y       z     vdW  Elec       q    Type
REMARK                         _______ _______ _______ _____ _____    ______ ____
ROOT
ATOM      1  C   UNL     1      47.650   4.270  14.982  0.00  0.00    +0.000 C 
ENDROOT
BRANCH   1   2
ATOM      2  C   UNL     1      46.681   4.429  13.842  0.00  0.00    +0.000 A 
ATOM      3  C   UNL     1      46.243   5.702  13.453  0.00  0.00    +0.000 A 
ATOM      4  C   UNL     1      45.292   5.843  12.441  0.00  0.00    +0.000 A 
ATOM      5  C   UNL     1      44.760   4.714  11.802  0.00  0.00    +0.000 A 
ATOM      6  C   UNL     1      45.206   3.444  12.184  0.00  0.00    +0.000 A 
ATOM      7  C   UNL     1      46.155   3.302  13.197  0.00  0.00    +0.000 A 
BRANCH   5   8
ATOM      8  C   UNL     1      43.739   4.866  10.702  0.00  0.00    +0.000 C 
BRANCH   8   9
ATOM      9  O   UNL     1      43.995   3.986   9.610  0.00  0.00    +0.000 OA
BRANCH   9  10
ATOM     10  C   UNL     1      45.026   4.471   8.742  0.00  0.00    +0.000 C 
BRANCH  10  11
ATOM     11  C   UNL     1      45.874   3.338   8.212  0.00  0.00    +0.000 A 
ATOM     12  C   UNL     1      45.621   2.018   8.587  0.00  0.00    +0.000 A 
ATOM     13  C   UNL     1      46.392   1.001   8.038  0.00  0.00    +0.000 A 
ATOM     14  C   UNL     1      47.382   1.319   7.117  0.00  0.00    +0.000 A 
ATOM     15  C   UNL     1      47.559   2.651   6.783  0.00  0.00    +0.000 A 
ATOM     16  N   UNL     1      46.830   3.661   7.304  0.00  0.00    +0.000 NA
ENDBRANCH  10  11
ENDBRANCH   9  10
ENDBRANCH   8   9
ENDBRANCH   5   8
ENDBRANCH   1   2
BRANCH   1  19
ATOM     17  C   UNL     1      48.596   6.340  15.892  0.00  0.00    +0.000 C 
ATOM     18  O   UNL     1      49.587   6.222  15.175  0.00  0.00    +0.000 OA
ATOM     19  N   UNL     1      47.593   5.412  15.864  0.00  0.00    +0.000 N 
ATOM     20  H   UNL     1      46.792   5.501  16.477  0.00  0.00    +0.000 HD
BRANCH  17  28
ATOM     21  C   UNL     1      47.816   6.645  19.248  0.00  0.00    +0.000 A 
ATOM     22  N   UNL     1      47.502   7.063  20.493  0.00  0.00    +0.000 NA
ATOM     23  C   UNL     1      47.490   8.376  20.736  0.00  0.00    +0.000 A 
ATOM     24  N   UNL     1      47.759   9.350  19.874  0.00  0.00    +0.000 NA
ATOM     25  C   UNL     1      48.058   8.896  18.645  0.00  0.00    +0.000 A 
ATOM     26  S   UNL     1      48.430  10.008  17.418  0.00  0.00    +0.000 S 
ATOM     27  C   UNL     1      48.651   8.760  16.289  0.00  0.00    +0.000 A 
ATOM     28  C   UNL     1      48.449   7.486  16.807  0.00  0.00    +0.000 A 
ATOM     29  C   UNL     1      48.107   7.567  18.226  0.00  0.00    +0.000 A 
BRANCH  21  31
ATOM     30  C   UNL     1      48.894   4.615  19.731  0.00  0.00    +0.000 C 
ATOM     31  O   UNL     1      47.863   5.286  19.007  0.00  0.00    +0.000 OA
ENDBRANCH  21  31
ENDBRANCH  17  28
ENDBRANCH   1  19
TORSDOF 8
ENDMDL
MODEL 5
REMARK VINA RESULT:    -6.946      1.650      2.996
REMARK INTER + INTRA:         -11.430
REMARK INTER:                 -10.219
REMARK INTRA:                  -1.211
REMARK UNBOUND:                -1.236
REMARK  Name = 
REMARK  9 active torsions:
REMARK  status: ('A' for Active; 'I' for Inactive)
REMARK    1  A    between atoms: C_1  and  O_2
REMARK    2  A    between atoms: O_2  and  C_3
REMARK    3  A    between atoms: C_10  and  C_11
REMARK    4  A    between atoms: N_13  and  C_14
REMARK    5  A    between atoms: C_14  and  C_15
REMARK    6  A    between atoms: C_18  and  C_19
REMARK    7  A    between atoms: C_19  and  O_20
REMARK    8  A    between atoms: O_20  and  C_21
REMARK    9  A    between atoms: C_21  and  C_22
REMARK                            x       y       z     vdW  Elec       q    Type
REMARK                         _______ _______ _______ _____ _____    ______ ____
ROOT
ATOM      1  C   UNL     1      47.499   3.771  15.293  0.00  0.00    +0.000 C 
ENDROOT
BRANCH   1   2
ATOM      2  C   UNL     1      46.826   4.218  14.024  0.00  0.00    +0.000 A 
ATOM      3  C   UNL     1      46.880   5.560  13.624  0.00  0.00    +0.000 A 
ATOM      4  C   UNL     1      46.197   5.985  12.483  0.00  0.00    +0.000 A 
ATOM      5  C   UNL     1      45.446   5.078  11.723  0.00  0.00    +0.000 A 
ATOM      6  C   UNL     1      45.401   3.736  12.117  0.00  0.00    +0.000 A 
ATOM      7  C   UNL     1      46.082   3.310  13.259  0.00  0.00    +0.000 A 
BRANCH   5   8
ATOM      8  C   UNL     1      44.716   5.535  10.485  0.00  0.00    +0.000 C 
BRANCH   8   9
ATOM      9  O   UNL     1      45.382   5.129   9.292  0.00  0.00    +0.000 OA
BRANCH   9  10
ATOM     10  C   UNL     1      44.712   4.049   8.628  0.00  0.00    +0.000 C 
BRANCH  10  11
ATOM     11  C   UNL     1      45.697   3.150   7.916  0.00  0.00    +0.000 A 
ATOM     12  C   UNL     1      45.922   1.844   8.355  0.00  0.00    +0.000 A 
ATOM     13  C   UNL     1      46.797   1.035   7.643  0.00  0.00    +0.000 A 
ATOM     14  C   UNL     1      47.413   1.536   6.503  0.00  0.00    +0.000 A 
ATOM     15  C   UNL     1      47.124   2.835   6.124  0.00  0.00    +0.000 A 
ATOM     16  N   UNL     1      46.283   3.648   6.798  0.00  0.00    +0.000 NA
ENDBRANCH  10  11
ENDBRANCH   9  10
ENDBRANCH   8   9
ENDBRANCH   5   8
ENDBRANCH   1   2
BRANCH   1  19
ATOM     17  C   UNL     1      48.157   4.700  17.464  0.00  0.00    +0.000 C 
ATOM     18  O   UNL     1      48.736   3.655  17.753  0.00  0.00    +0.000 OA
ATOM     19  N   UNL     1      47.512   4.838  16.267  0.00  0.00    +0.000 N 
ATOM     20  H   UNL     1      47.014   5.690  16.045  0.00  0.00    +0.000 HD
BRANCH  17  28
ATOM     21  C   UNL     1      48.691   8.097  17.095  0.00  0.00    +0.000 A 
ATOM     22  N   UNL     1      48.885   9.424  17.257  0.00  0.00    +0.000 NA
ATOM     23  C   UNL     1      48.759   9.937  18.484  0.00  0.00    +0.000 A 
ATOM     24  N   UNL     1      48.456   9.280  19.597  0.00  0.00    +0.000 NA
ATOM     25  C   UNL     1      48.279   7.962  19.398  0.00  0.00    +0.000 A 
ATOM     26  S   UNL     1      47.884   6.970  20.716  0.00  0.00    +0.000 S 
ATOM     27  C   UNL     1      47.852   5.590  19.729  0.00  0.00    +0.000 A 
ATOM     28  C   UNL     1      48.138   5.844  18.392  0.00  0.00    +0.000 A 
ATOM     29  C   UNL     1      48.381   7.271  18.192  0.00  0.00    +0.000 A 
BRANCH  21  31
ATOM     30  C   UNL     1      50.119   7.225  15.447  0.00  0.00    +0.000 C 
ATOM     31  O   UNL     1      48.786   7.573  15.821  0.00  0.00    +0.000 OA
ENDBRANCH  21  31
ENDBRANCH  17  28
ENDBRANCH   1  19
TORSDOF 8
ENDMDL
MODEL 6
REMARK VINA RESULT:    -6.727      1.677      2.086
REMARK INTER + INTRA:         -11.109
REMARK INTER:                 -10.029
REMARK INTRA:                  -1.080
REMARK UNBOUND:                -1.236
REMARK  Name = 
REMARK  9 active torsions:
REMARK  status: ('A' for Active; 'I' for Inactive)
REMARK    1  A    between atoms: C_1  and  O_2
REMARK    2  A    between atoms: O_2  and  C_3
REMARK    3  A    between atoms: C_10  and  C_11
REMARK    4  A    between atoms: N_13  and  C_14
REMARK    5  A    between atoms: C_14  and  C_15
REMARK    6  A    between atoms: C_18  and  C_19
REMARK    7  A    between atoms: C_19  and  O_20
REMARK    8  A    between atoms: O_20  and  C_21
REMARK    9  A    between atoms: C_21  and  C_22
REMARK                            x       y       z     vdW  Elec       q    Type
REMARK                         _______ _______ _______ _____ _____    ______ ____
ROOT
ATOM      1  C   UNL     1      46.760   8.536  12.348  0.00  0.00    +0.000 C 
ENDROOT
BRANCH   1   2
ATOM      2  C   UNL     1      45.970   7.301  12.010  0.00  0.00    +0.000 A 
ATOM      3  C   UNL     1      44.663   7.405  11.515  0.00  0.00    +0.000 A 
ATOM      4  C   UNL     1      43.908   6.257  11.269  0.00  0.00    +0.000 A 
ATOM      5  C   UNL     1      44.444   4.986  11.514  0.00  0.00    +0.000 A 
ATOM      6  C   UNL     1      45.753   4.882  11.997  0.00  0.00    +0.000 A 
ATOM      7  C   UNL     1      46.508   6.029  12.247  0.00  0.00    +0.000 A 
BRANCH   5   8
ATOM      8  C   UNL     1      43.631   3.745  11.239  0.00  0.00    +0.000 C 
BRANCH   8   9
ATOM      9  O   UNL     1      44.336   2.816  10.419  0.00  0.00    +0.000 OA
BRANCH   9  10
ATOM     10  C   UNL     1      44.397   3.227   9.047  0.00  0.00    +0.000 C 
BRANCH  10  11
ATOM     11  C   UNL     1      45.583   2.610   8.343  0.00  0.00    +0.000 A 
ATOM     12  C   UNL     1      45.779   1.228   8.345  0.00  0.00    +0.000 A 
ATOM     13  C   UNL     1      46.854   0.698   7.643  0.00  0.00    +0.000 A 
ATOM     14  C   UNL     1      47.697   1.551   6.943  0.00  0.00    +0.000 A 
ATOM     15  C   UNL     1      47.426   2.908   6.976  0.00  0.00    +0.000 A 
ATOM     16  N   UNL     1      46.393   3.454   7.653  0.00  0.00    +0.000 NA
ENDBRANCH  10  11
ENDBRANCH   9  10
ENDBRANCH   8   9
ENDBRANCH   5   8
ENDBRANCH   1   2
BRANCH   1  19
ATOM     17  C   UNL     1      48.842   8.193  13.596  0.00  0.00    +0.000 C 
ATOM     18  O   UNL     1      49.486   8.182  12.549  0.00  0.00    +0.000 OA
ATOM     19  N   UNL     1      47.485   8.355  13.584  0.00  0.00    +0.000 N 
ATOM     20  H   UNL     1      46.957   8.337  14.447  0.00  0.00    +0.000 HD
BRANCH  17  28
ATOM     21  C   UNL     1      48.618   5.851  16.131  0.00  0.00    +0.000 A 
ATOM     22  N   UNL     1      48.710   5.135  17.272  0.00  0.00    +0.000 NA
ATOM     23  C   UNL     1      49.546   5.561  18.222  0.00  0.00    +0.000 A 
ATOM     24  N   UNL     1      50.323   6.637  18.178  0.00  0.00    +0.000 NA
ATOM     25  C   UNL     1      50.198   7.328  17.032  0.00  0.00    +0.000 A 
ATOM     26  S   UNL     1      51.123   8.733  16.807  0.00  0.00    +0.000 S 
ATOM     27  C   UNL     1      50.440   8.994  15.275  0.00  0.00    +0.000 A 
ATOM     28  C   UNL     1      49.506   8.035  14.902  0.00  0.00    +0.000 A 
ATOM     29  C   UNL     1      49.371   7.027  15.952  0.00  0.00    +0.000 A 
BRANCH  21  31
ATOM     30  C   UNL     1      47.287   4.072  15.370  0.00  0.00    +0.000 C 
ATOM     31  O   UNL     1      47.780   5.391  15.135  0.00  0.00    +0.000 OA
ENDBRANCH  21  31
ENDBRANCH  17  28
ENDBRANCH   1  19
TORSDOF 8
ENDMDL
MODEL 7
REMARK VINA RESULT:    -6.653      2.019      2.789
REMARK INTER + INTRA:         -11.000
REMARK INTER:                  -9.900
REMARK INTRA:                  -1.100
REMARK UNBOUND:                -1.236
REMARK  Name = 
REMARK  9 active torsions:
REMARK  status: ('A' for Active; 'I' for Inactive)
REMARK    1  A    between atoms: C_1  and  O_2
REMARK    2  A    between atoms: O_2  and  C_3
REMARK    3  A    between atoms: C_10  and  C_11
REMARK    4  A    between atoms: N_13  and  C_14
REMARK    5  A    between atoms: C_14  and  C_15
REMARK    6  A    between atoms: C_18  and  C_19
REMARK    7  A    between atoms: C_19  and  O_20
REMARK    8  A    between atoms: O_20  and  C_21
REMARK    9  A    between atoms: C_21  and  C_22
REMARK                            x       y       z     vdW  Elec       q    Type
REMARK                         _______ _______ _______ _____ _____    ______ ____
ROOT
ATOM      1  C   UNL     1      47.475   4.345  15.663  0.00  0.00    +0.000 C 
ENDROOT
BRANCH   1   2
ATOM      2  C   UNL     1      46.933   4.719  14.311  0.00  0.00    +0.000 A 
ATOM      3  C   UNL     1      47.286   5.937  13.713  0.00  0.00    +0.000 A 
ATOM      4  C   UNL     1      46.729   6.312  12.490  0.00  0.00    +0.000 A 
ATOM      5  C   UNL     1      45.806   5.479  11.843  0.00  0.00    +0.000 A 
ATOM      6  C   UNL     1      45.462   4.258  12.434  0.00  0.00    +0.000 A 
ATOM      7  C   UNL     1      46.017   3.883  13.658  0.00  0.00    +0.000 A 
BRANCH   5   8
ATOM      8  C   UNL     1      45.210   5.880  10.517  0.00  0.00    +0.000 C 
BRANCH   8   9
ATOM      9  O   UNL     1      45.840   5.214   9.425  0.00  0.00    +0.000 OA
BRANCH   9  10
ATOM     10  C   UNL     1      44.976   4.266   8.785  0.00  0.00    +0.000 C 
BRANCH  10  11
ATOM     11  C   UNL     1      45.769   3.222   8.034  0.00  0.00    +0.000 A 
ATOM     12  C   UNL     1      46.539   3.569   6.923  0.00  0.00    +0.000 A 
ATOM     13  C   UNL     1      47.292   2.588   6.291  0.00  0.00    +0.000 A 
ATOM     14  C   UNL     1      47.276   1.291   6.789  0.00  0.00    +0.000 A 
ATOM     15  C   UNL     1      46.501   1.031   7.906  0.00  0.00    +0.000 A 
ATOM     16  N   UNL     1      45.754   1.961   8.538  0.00  0.00    +0.000 NA
ENDBRANCH  10  11
ENDBRANCH   9  10
ENDBRANCH   8   9
ENDBRANCH   5   8
ENDBRANCH   1   2
BRANCH   1  19
ATOM     17  C   UNL     1      47.860   5.774  17.618  0.00  0.00    +0.000 C 
ATOM     18  O   UNL     1      47.112   5.073  18.297  0.00  0.00    +0.000 OA
ATOM     19  N   UNL     1      48.088   5.487  16.301  0.00  0.00    +0.000 N 
ATOM     20  H   UNL     1      48.683   6.083  15.740  0.00  0.00    +0.000 HD
BRANCH  17  28
ATOM     21  C   UNL     1      51.110   6.951  17.520  0.00  0.00    +0.000 A 
ATOM     22  N   UNL     1      52.276   7.611  17.689  0.00  0.00    +0.000 NA
ATOM     23  C   UNL     1      52.277   8.713  18.443  0.00  0.00    +0.000 A 
ATOM     24  N   UNL     1      51.236   9.255  19.065  0.00  0.00    +0.000 NA
ATOM     25  C   UNL     1      50.096   8.566  18.880  0.00  0.00    +0.000 A 
ATOM     26  S   UNL     1      48.665   9.122  19.604  0.00  0.00    +0.000 S 
ATOM     27  C   UNL     1      47.781   7.823  18.964  0.00  0.00    +0.000 A 
ATOM     28  C   UNL     1      48.539   6.946  18.196  0.00  0.00    +0.000 A 
ATOM     29  C   UNL     1      49.927   7.401  18.135  0.00  0.00    +0.000 A 
BRANCH  21  31
ATOM     30  C   UNL     1      51.540   4.646  17.375  0.00  0.00    +0.000 C 
ATOM     31  O   UNL     1      51.103   5.832  16.711  0.00  0.00    +0.000 OA
ENDBRANCH  21  31
ENDBRANCH  17  28
ENDBRANCH   1  19
TORSDOF 8
ENDMDL
MODEL 8
REMARK VINA RESULT:    -6.590      3.310      4.825
REMARK INTER + INTRA:         -10.907
REMARK INTER:                  -9.920
REMARK INTRA:                  -0.988
REMARK UNBOUND:                -1.236
REMARK  Name = 
REMARK  9 active torsions:
REMARK  status: ('A' for Active; 'I' for Inactive)
REMARK    1  A    between atoms: C_1  and  O_2
REMARK    2  A    between atoms: O_2  and  C_3
REMARK    3  A    between atoms: C_10  and  C_11
REMARK    4  A    between atoms: N_13  and  C_14
REMARK    5  A    between atoms: C_14  and  C_15
REMARK    6  A    between atoms: C_18  and  C_19
REMARK    7  A    between atoms: C_19  and  O_20
REMARK    8  A    between atoms: O_20  and  C_21
REMARK    9  A    between atoms: C_21  and  C_22
REMARK                            x       y       z     vdW  Elec       q    Type
REMARK                         _______ _______ _______ _____ _____    ______ ____
ROOT
ATOM      1  C   UNL     1      47.698   3.368  17.089  0.00  0.00    +0.000 C 
ENDROOT
BRANCH   1   2
ATOM      2  C   UNL     1      47.631   4.288  15.901  0.00  0.00    +0.000 A 
ATOM      3  C   UNL     1      48.210   5.564  15.953  0.00  0.00    +0.000 A 
ATOM      4  C   UNL     1      48.086   6.441  14.875  0.00  0.00    +0.000 A 
ATOM      5  C   UNL     1      47.379   6.061  13.726  0.00  0.00    +0.000 A 
ATOM      6  C   UNL     1      46.810   4.784  13.669  0.00  0.00    +0.000 A 
ATOM      7  C   UNL     1      46.931   3.907  14.748  0.00  0.00    +0.000 A 
BRANCH   5   8
ATOM      8  C   UNL     1      47.253   7.006  12.557  0.00  0.00    +0.000 C 
BRANCH   8   9
ATOM      9  O   UNL     1      46.971   6.316  11.341  0.00  0.00    +0.000 OA
BRANCH   9  10
ATOM     10  C   UNL     1      45.571   6.284  11.037  0.00  0.00    +0.000 C 
BRANCH  10  11
ATOM     11  C   UNL     1      45.210   5.047  10.248  0.00  0.00    +0.000 A 
ATOM     12  C   UNL     1      45.686   4.860   8.950  0.00  0.00    +0.000 A 
ATOM     13  C   UNL     1      45.372   3.686   8.278  0.00  0.00    +0.000 A 
ATOM     14  C   UNL     1      44.608   2.719   8.918  0.00  0.00    +0.000 A 
ATOM     15  C   UNL     1      44.188   2.972  10.213  0.00  0.00    +0.000 A 
ATOM     16  N   UNL     1      44.472   4.105  10.890  0.00  0.00    +0.000 NA
ENDBRANCH  10  11
ENDBRANCH   9  10
ENDBRANCH   8   9
ENDBRANCH   5   8
ENDBRANCH   1   2
BRANCH   1  19
ATOM     17  C   UNL     1      49.911   2.325  16.925  0.00  0.00    +0.000 C 
ATOM     18  O   UNL     1      49.530   1.628  15.987  0.00  0.00    +0.000 OA
ATOM     19  N   UNL     1      49.063   3.208  17.533  0.00  0.00    +0.000 N 
ATOM     20  H   UNL     1      49.374   3.760  18.323  0.00  0.00    +0.000 HD
BRANCH  17  28
ATOM     21  C   UNL     1      52.174   4.645  18.132  0.00  0.00    +0.000 A 
ATOM     22  N   UNL     1      53.252   5.314  18.593  0.00  0.00    +0.000 NA
ATOM     23  C   UNL     1      54.361   4.620  18.863  0.00  0.00    +0.000 A 
ATOM     24  N   UNL     1      54.535   3.310  18.728  0.00  0.00    +0.000 NA
ATOM     25  C   UNL     1      53.445   2.681  18.258  0.00  0.00    +0.000 A 
ATOM     26  S   UNL     1      53.493   1.000  18.027  0.00  0.00    +0.000 S 
ATOM     27  C   UNL     1      51.894   0.985  17.458  0.00  0.00    +0.000 A 
ATOM     28  C   UNL     1      51.293   2.238  17.428  0.00  0.00    +0.000 A 
ATOM     29  C   UNL     1      52.220   3.254  17.923  0.00  0.00    +0.000 A 
BRANCH  21  31
ATOM     30  C   UNL     1      50.877   6.516  18.710  0.00  0.00    +0.000 C 
ATOM     31  O   UNL     1      51.017   5.358  17.887  0.00  0.00    +0.000 OA
ENDBRANCH  21  31
ENDBRANCH  17  28
ENDBRANCH   1  19
TORSDOF 8
ENDMDL
MODEL 9
REMARK VINA RESULT:    -6.487      4.750      6.673
REMARK INTER + INTRA:         -10.757
REMARK INTER:                  -9.748
REMARK INTRA:                  -1.009
REMARK UNBOUND:                -1.236
REMARK  Name = 
REMARK  9 active torsions:
REMARK  status: ('A' for Active; 'I' for Inactive)
REMARK    1  A    between atoms: C_1  and  O_2
REMARK    2  A    between atoms: O_2  and  C_3
REMARK    3  A    between atoms: C_10  and  C_11
REMARK    4  A    between atoms: N_13  and  C_14
REMARK    5  A    between atoms: C_14  and  C_15
REMARK    6  A    between atoms: C_18  and  C_19
REMARK    7  A    between atoms: C_19  and  O_20
REMARK    8  A    between atoms: O_20  and  C_21
REMARK    9  A    between atoms: C_21  and  C_22
REMARK                            x       y       z     vdW  Elec       q    Type
REMARK                         _______ _______ _______ _____ _____    ______ ____
ROOT
ATOM      1  C   UNL     1      49.282   7.586  13.179  0.00  0.00    +0.000 C 
ENDROOT
BRANCH   1   2
ATOM      2  C   UNL     1      48.097   6.754  12.771  0.00  0.00    +0.000 A 
ATOM      3  C   UNL     1      47.438   6.999  11.559  0.00  0.00    +0.000 A 
ATOM      4  C   UNL     1      46.297   6.271  11.215  0.00  0.00    +0.000 A 
ATOM      5  C   UNL     1      45.793   5.288  12.077  0.00  0.00    +0.000 A 
ATOM      6  C   UNL     1      46.458   5.036  13.283  0.00  0.00    +0.000 A 
ATOM      7  C   UNL     1      47.597   5.765  13.629  0.00  0.00    +0.000 A 
BRANCH   5   8
ATOM      8  C   UNL     1      44.566   4.495  11.702  0.00  0.00    +0.000 C 
BRANCH   8   9
ATOM      9  O   UNL     1      44.895   3.182  11.254  0.00  0.00    +0.000 OA
BRANCH   9  10
ATOM     10  C   UNL     1      44.224   2.832  10.036  0.00  0.00    +0.000 C 
BRANCH  10  11
ATOM     11  C   UNL     1      45.202   2.703   8.891  0.00  0.00    +0.000 A 
ATOM     12  C   UNL     1      45.549   3.810   8.116  0.00  0.00    +0.000 A 
ATOM     13  C   UNL     1      46.489   3.659   7.105  0.00  0.00    +0.000 A 
ATOM     14  C   UNL     1      47.073   2.415   6.899  0.00  0.00    +0.000 A 
ATOM     15  C   UNL     1      46.688   1.370   7.721  0.00  0.00    +0.000 A 
ATOM     16  N   UNL     1      45.774   1.485   8.708  0.00  0.00    +0.000 NA
ENDBRANCH  10  11
ENDBRANCH   9  10
ENDBRANCH   8   9
ENDBRANCH   5   8
ENDBRANCH   1   2
BRANCH   1  19
ATOM     17  C   UNL     1      51.141   8.681  12.016  0.00  0.00    +0.000 C 
ATOM     18  O   UNL     1      51.883   8.473  12.974  0.00  0.00    +0.000 OA
ATOM     19  N   UNL     1      49.835   8.280  12.040  0.00  0.00    +0.000 N 
ATOM     20  H   UNL     1      49.222   8.477  11.259  0.00  0.00    +0.000 HD
BRANCH  17  28
ATOM     21  C   UNL     1      53.154   7.729   9.370  0.00  0.00    +0.000 A 
ATOM     22  N   UNL     1      53.924   7.654   8.263  0.00  0.00    +0.000 NA
ATOM     23  C   UNL     1      54.031   8.739   7.491  0.00  0.00    +0.000 A 
ATOM     24  N   UNL     1      53.451   9.918   7.687  0.00  0.00    +0.000 NA
ATOM     25  C   UNL     1      52.701   9.956   8.801  0.00  0.00    +0.000 A 
ATOM     26  S   UNL     1      51.886  11.389   9.203  0.00  0.00    +0.000 S 
ATOM     27  C   UNL     1      51.246  10.687  10.609  0.00  0.00    +0.000 A 
ATOM     28  C   UNL     1      51.630   9.365  10.807  0.00  0.00    +0.000 A 
ATOM     29  C   UNL     1      52.493   8.923   9.713  0.00  0.00    +0.000 A 
BRANCH  21  31
ATOM     30  C   UNL     1      53.865   5.522   9.745  0.00  0.00    +0.000 C 
ATOM     31  O   UNL     1      53.016   6.597  10.148  0.00  0.00    +0.000 OA
ENDBRANCH  21  31
ENDBRANCH  17  28
ENDBRANCH   1  19
TORSDOF 8
ENDMDL
