MODEL 1
REMARK VINA RESULT:    -8.383      0.000      0.000
REMARK INTER + INTRA:         -13.811
REMARK INTER:                 -12.794
REMARK INTRA:                  -1.017
REMARK UNBOUND:                -1.017
REMARK  Name = 
REMARK  11 active torsions:
REMARK  status: ('A' for Active; 'I' for Inactive)
REMARK    1  A    between atoms: C_1  and  C_2
REMARK    2  A    between atoms: C_2  and  N_3
REMARK    3  A    between atoms: C_2  and  C_20
REMARK    4  A    between atoms: N_3  and  C_4
REMARK    5  A    between atoms: C_4  and  C_5
REMARK    6  A    between atoms: C_8  and  C_9
REMARK    7  A    between atoms: C_9  and  O_10
REMARK    8  A    between atoms: C_9  and  C_11
REMARK    9  A    between atoms: C_11  and  N_12
REMARK   10  A    between atoms: C_15  and  O_16
REMARK   11  A    between atoms: C_20  and  C_22
REMARK                            x       y       z     vdW  Elec       q    Type
REMARK                         _______ _______ _______ _____ _____    ______ ____
ROOT
ATOM      1  C   UNL     1      47.877   6.169  14.235  0.00  0.00    +0.000 C 
ENDROOT
BRANCH   1   2
ATOM      2  C   UNL     1      46.941   5.462  13.296  0.00  0.00    +0.000 A 
ATOM      3  C   UNL     1      46.535   4.148  13.560  0.00  0.00    +0.000 A 
ATOM      4  C   UNL     1      45.651   3.500  12.703  0.00  0.00    +0.000 A 
ATOM      5  C   UNL     1      45.157   4.158  11.568  0.00  0.00    +0.000 A 
ATOM      6  C   UNL     1      45.582   5.469  11.300  0.00  0.00    +0.000 A 
ATOM      7  C   UNL     1      46.469   6.114  12.153  0.00  0.00    +0.000 A 
BRANCH   5   8
ATOM      8  C   UNL     1      44.177   3.452  10.660  0.00  0.00    +0.000 C 
BRANCH   8   9
ATOM      9  O   UNL     1      42.881   3.513  11.260  0.00  0.00    +0.000 OA
ATOM     10  H   UNL     1      42.233   3.555  10.541  0.00  0.00    +0.000 HD
ENDBRANCH   8   9
BRANCH   8  11
ATOM     11  C   UNL     1      44.178   4.064   9.232  0.00  0.00    +0.000 C 
BRANCH  11  12
ATOM     12  N   UNL     1      44.937   3.279   8.247  0.00  0.00    +0.000 NA
ATOM     13  C   UNL     1      45.278   1.932   8.718  0.00  0.00    +0.000 C 
ATOM     14  C   UNL     1      46.539   1.543   7.950  0.00  0.00    +0.000 C 
ATOM     15  C   UNL     1      46.899   2.781   7.139  0.00  0.00    +0.000 C 
ATOM     16  C   UNL     1      46.214   3.916   7.891  0.00  0.00    +0.000 C 
BRANCH  15  17
ATOM     17  O   UNL     1      46.341   2.663   5.827  0.00  0.00    +0.000 OA
ATOM     18  H   UNL     1      45.803   3.472   5.708  0.00  0.00    +0.000 HD
ENDBRANCH  15  17
ENDBRANCH  11  12
ENDBRANCH   8  11
ENDBRANCH   5   8
ENDBRANCH   1   2
BRANCH   1  19
ATOM     19  N   UNL     1      47.855   5.512  15.539  0.00  0.00    +0.000 NA
ATOM     20  H   UNL     1      47.895   4.502  15.381  0.00  0.00    +0.000 HD
BRANCH  19  22
ATOM     21  C   UNL     1      48.679   7.266  16.974  0.00  0.00    +0.000 C 
ATOM     22  C   UNL     1      49.015   5.907  16.362  0.00  0.00    +0.000 C 
BRANCH  22  23
ATOM     23  C   UNL     1      49.288   4.842  17.459  0.00  0.00    +0.000 C 
ATOM     24  O   UNL     1      48.360   4.327  18.080  0.00  0.00    +0.000 OA
BRANCH  23  25
ATOM     25  C   UNL     1      50.679   4.459  17.730  0.00  0.00    +0.000 A 
ATOM     26  C   UNL     1      51.626   5.342  18.215  0.00  0.00    +0.000 A 
ATOM     27  S   UNL     1      53.121   4.596  18.578  0.00  0.00    +0.000 S 
ATOM     28  C   UNL     1      52.544   3.067  18.086  0.00  0.00    +0.000 A 
ATOM     29  N   UNL     1      53.316   1.955  18.194  0.00  0.00    +0.000 NA
ATOM     30  C   UNL     1      52.729   0.864  17.817  0.00  0.00    +0.000 A 
ATOM     31  N   UNL     1      51.460   0.802  17.304  0.00  0.00    +0.000 N 
ATOM     32  C   UNL     1      50.717   1.922  17.014  0.00  0.00    +0.000 A 
ATOM     33  O   UNL     1      49.758   1.881  16.251  0.00  0.00    +0.000 OA
ATOM     34  C   UNL     1      51.259   3.148  17.582  0.00  0.00    +0.000 A 
ATOM     35  H   UNL     1      51.105  -0.070  16.933  0.00  0.00    +0.000 HD
ENDBRANCH  23  25
ENDBRANCH  22  23
ENDBRANCH  19  22
ENDBRANCH   1  19
TORSDOF 10
ENDMDL
MODEL 2
REMARK VINA RESULT:    -7.606      2.128      2.793
REMARK INTER + INTRA:         -12.625
REMARK INTER:                 -11.195
REMARK INTRA:                  -1.430
REMARK UNBOUND:                -1.017
REMARK  Name = 
REMARK  11 active torsions:
REMARK  status: ('A' for Active; 'I' for Inactive)
REMARK    1  A    between atoms: C_1  and  C_2
REMARK    2  A    between atoms: C_2  and  N_3
REMARK    3  A    between atoms: C_2  and  C_20
REMARK    4  A    between atoms: N_3  and  C_4
REMARK    5  A    between atoms: C_4  and  C_5
REMARK    6  A    between atoms: C_8  and  C_9
REMARK    7  A    between atoms: C_9  and  O_10
REMARK    8  A    between atoms: C_9  and  C_11
REMARK    9  A    between atoms: C_11  and  N_12
REMARK   10  A    between atoms: C_15  and  O_16
REMARK   11  A    between atoms: C_20  and  C_22
REMARK                            x       y       z     vdW  Elec       q    Type
REMARK                         _______ _______ _______ _____ _____    ______ ____
ROOT
ATOM      1  C   UNL     1      48.813   7.277  13.982  0.00  0.00    +0.000 C 
ENDROOT
BRANCH   1   2
ATOM      2  C   UNL     1      47.474   6.689  13.637  0.00  0.00    +0.000 A 
ATOM      3  C   UNL     1      46.497   7.476  13.016  0.00  0.00    +0.000 A 
ATOM      4  C   UNL     1      45.264   6.928  12.677  0.00  0.00    +0.000 A 
ATOM      5  C   UNL     1      44.990   5.581  12.953  0.00  0.00    +0.000 A 
ATOM      6  C   UNL     1      45.968   4.803  13.593  0.00  0.00    +0.000 A 
ATOM      7  C   UNL     1      47.197   5.353  13.936  0.00  0.00    +0.000 A 
BRANCH   5   8
ATOM      8  C   UNL     1      43.657   4.991  12.556  0.00  0.00    +0.000 C 
BRANCH   8   9
ATOM      9  O   UNL     1      42.674   5.420  13.500  0.00  0.00    +0.000 OA
ATOM     10  H   UNL     1      43.041   5.271  14.385  0.00  0.00    +0.000 HD
ENDBRANCH   8   9
BRANCH   8  11
ATOM     11  C   UNL     1      43.268   5.381  11.103  0.00  0.00    +0.000 C 
BRANCH  11  12
ATOM     12  N   UNL     1      43.679   4.399  10.090  0.00  0.00    +0.000 NA
ATOM     13  C   UNL     1      43.900   3.056  10.641  0.00  0.00    +0.000 C 
ATOM     14  C   UNL     1      44.901   2.392   9.698  0.00  0.00    +0.000 C 
ATOM     15  C   UNL     1      45.272   3.479   8.697  0.00  0.00    +0.000 C 
ATOM     16  C   UNL     1      44.938   4.773   9.429  0.00  0.00    +0.000 C 
BRANCH  15  17
ATOM     17  O   UNL     1      44.445   3.351   7.537  0.00  0.00    +0.000 OA
ATOM     18  H   UNL     1      43.617   3.820   7.764  0.00  0.00    +0.000 HD
ENDBRANCH  15  17
ENDBRANCH  11  12
ENDBRANCH   8  11
ENDBRANCH   5   8
ENDBRANCH   1   2
BRANCH   1  19
ATOM     19  N   UNL     1      49.417   6.520  15.075  0.00  0.00    +0.000 NA
ATOM     20  H   UNL     1      50.320   6.165  14.747  0.00  0.00    +0.000 HD
BRANCH  19  22
ATOM     21  C   UNL     1      48.984   8.717  15.970  0.00  0.00    +0.000 C 
ATOM     22  C   UNL     1      49.647   7.372  16.259  0.00  0.00    +0.000 C 
BRANCH  22  23
ATOM     23  C   UNL     1      49.052   6.704  17.529  0.00  0.00    +0.000 C 
ATOM     24  O   UNL     1      48.797   7.372  18.529  0.00  0.00    +0.000 OA
BRANCH  23  25
ATOM     25  C   UNL     1      48.794   5.259  17.502  0.00  0.00    +0.000 A 
ATOM     26  C   UNL     1      47.527   4.719  17.375  0.00  0.00    +0.000 A 
ATOM     27  S   UNL     1      47.533   3.016  17.223  0.00  0.00    +0.000 S 
ATOM     28  C   UNL     1      49.234   2.953  17.331  0.00  0.00    +0.000 A 
ATOM     29  N   UNL     1      49.906   1.778  17.214  0.00  0.00    +0.000 NA
ATOM     30  C   UNL     1      51.193   1.894  17.280  0.00  0.00    +0.000 A 
ATOM     31  N   UNL     1      51.857   3.073  17.496  0.00  0.00    +0.000 N 
ATOM     32  C   UNL     1      51.211   4.248  17.796  0.00  0.00    +0.000 A 
ATOM     33  O   UNL     1      51.795   5.190  18.322  0.00  0.00    +0.000 OA
ATOM     34  C   UNL     1      49.775   4.205  17.558  0.00  0.00    +0.000 A 
ATOM     35  H   UNL     1      52.859   3.072  17.639  0.00  0.00    +0.000 HD
ENDBRANCH  23  25
ENDBRANCH  22  23
ENDBRANCH  19  22
ENDBRANCH   1  19
TORSDOF 10
ENDMDL
MODEL 3
REMARK VINA RESULT:    -7.509      2.755      3.375
REMARK INTER + INTRA:         -12.476
REMARK INTER:                 -11.034
REMARK INTRA:                  -1.442
REMARK UNBOUND:                -1.017
REMARK  Name = 
REMARK  11 active torsions:
REMARK  status: ('A' for Active; 'I' for Inactive)
REMARK    1  A    between atoms: C_1  and  C_2
REMARK    2  A    between atoms: C_2  and  N_3
REMARK    3  A    between atoms: C_2  and  C_20
REMARK    4  A    between atoms: N_3  and  C_4
REMARK    5  A    between atoms: C_4  and  C_5
REMARK    6  A    between atoms: C_8  and  C_9
REMARK    7  A    between atoms: C_9  and  O_10
REMARK    8  A    between atoms: C_9  and  C_11
REMARK    9  A    between atoms: C_11  and  N_12
REMARK   10  A    between atoms: C_15  and  O_16
REMARK   11  A    between atoms: C_20  and  C_22
REMARK                            x       y       z     vdW  Elec       q    Type
REMARK                         _______ _______ _______ _____ _____    ______ ____
ROOT
ATOM      1  C   UNL     1      46.180   8.315  13.276  0.00  0.00    +0.000 C 
ENDROOT
BRANCH   1   2
ATOM      2  C   UNL     1      45.752   7.121  12.470  0.00  0.00    +0.000 A 
ATOM      3  C   UNL     1      46.390   6.823  11.259  0.00  0.00    +0.000 A 
ATOM      4  C   UNL     1      46.010   5.705  10.522  0.00  0.00    +0.000 A 
ATOM      5  C   UNL     1      44.987   4.868  10.985  0.00  0.00    +0.000 A 
ATOM      6  C   UNL     1      44.339   5.184  12.191  0.00  0.00    +0.000 A 
ATOM      7  C   UNL     1      44.716   6.303  12.924  0.00  0.00    +0.000 A 
BRANCH   5   8
ATOM      8  C   UNL     1      44.602   3.643  10.189  0.00  0.00    +0.000 C 
BRANCH   8   9
ATOM      9  O   UNL     1      43.414   3.089  10.758  0.00  0.00    +0.000 OA
ATOM     10  H   UNL     1      43.567   2.139  10.875  0.00  0.00    +0.000 HD
ENDBRANCH   8   9
BRANCH   8  11
ATOM     11  C   UNL     1      44.417   3.975   8.683  0.00  0.00    +0.000 C 
BRANCH  11  12
ATOM     12  N   UNL     1      45.259   3.171   7.785  0.00  0.00    +0.000 NA
ATOM     13  C   UNL     1      45.663   1.886   8.368  0.00  0.00    +0.000 C 
ATOM     14  C   UNL     1      46.974   1.522   7.674  0.00  0.00    +0.000 C 
ATOM     15  C   UNL     1      47.288   2.719   6.785  0.00  0.00    +0.000 C 
ATOM     16  C   UNL     1      46.507   3.860   7.427  0.00  0.00    +0.000 C 
BRANCH  15  17
ATOM     17  O   UNL     1      46.790   2.470   5.468  0.00  0.00    +0.000 OA
ATOM     18  H   UNL     1      47.424   2.915   4.870  0.00  0.00    +0.000 HD
ENDBRANCH  15  17
ENDBRANCH  11  12
ENDBRANCH   8  11
ENDBRANCH   5   8
ENDBRANCH   1   2
BRANCH   1  19
ATOM     19  N   UNL     1      47.484   8.781  12.813  0.00  0.00    +0.000 NA
ATOM     20  H   UNL     1      47.383   9.758  12.526  0.00  0.00    +0.000 HD
BRANCH  19  22
ATOM     21  C   UNL     1      47.799   9.121  15.179  0.00  0.00    +0.000 C 
ATOM     22  C   UNL     1      48.496   8.706  13.885  0.00  0.00    +0.000 C 
BRANCH  22  23
ATOM     23  C   UNL     1      49.073   7.267  13.986  0.00  0.00    +0.000 C 
ATOM     24  O   UNL     1      49.393   6.647  12.974  0.00  0.00    +0.000 OA
BRANCH  23  25
ATOM     25  C   UNL     1      49.231   6.671  15.319  0.00  0.00    +0.000 A 
ATOM     26  C   UNL     1      50.132   7.142  16.256  0.00  0.00    +0.000 A 
ATOM     27  S   UNL     1      50.002   6.357  17.769  0.00  0.00    +0.000 S 
ATOM     28  C   UNL     1      48.740   5.356  17.208  0.00  0.00    +0.000 A 
ATOM     29  N   UNL     1      48.121   4.471  18.032  0.00  0.00    +0.000 NA
ATOM     30  C   UNL     1      47.159   3.809  17.474  0.00  0.00    +0.000 A 
ATOM     31  N   UNL     1      46.797   3.927  16.158  0.00  0.00    +0.000 N 
ATOM     32  C   UNL     1      47.510   4.675  15.253  0.00  0.00    +0.000 A 
ATOM     33  O   UNL     1      47.399   4.502  14.043  0.00  0.00    +0.000 OA
ATOM     34  C   UNL     1      48.481   5.568  15.866  0.00  0.00    +0.000 A 
ATOM     35  H   UNL     1      46.103   3.302  15.765  0.00  0.00    +0.000 HD
ENDBRANCH  23  25
ENDBRANCH  22  23
ENDBRANCH  19  22
ENDBRANCH   1  19
TORSDOF 10
ENDMDL
MODEL 4
REMARK VINA RESULT:    -6.948      3.068      3.990
REMARK INTER + INTRA:         -11.621
REMARK INTER:                  -9.876
REMARK INTRA:                  -1.745
REMARK UNBOUND:                -1.017
REMARK  Name = 
REMARK  11 active torsions:
REMARK  status: ('A' for Active; 'I' for Inactive)
REMARK    1  A    between atoms: C_1  and  C_2
REMARK    2  A    between atoms: C_2  and  N_3
REMARK    3  A    between atoms: C_2  and  C_20
REMARK    4  A    between atoms: N_3  and  C_4
REMARK    5  A    between atoms: C_4  and  C_5
REMARK    6  A    between atoms: C_8  and  C_9
REMARK    7  A    between atoms: C_9  and  O_10
REMARK    8  A    between atoms: C_9  and  C_11
REMARK    9  A    between atoms: C_11  and  N_12
REMARK   10  A    between atoms: C_15  and  O_16
REMARK   11  A    between atoms: C_20  and  C_22
REMARK                            x       y       z     vdW  Elec       q    Type
REMARK                         _______ _______ _______ _____ _____    ______ ____
ROOT
ATOM      1  C   UNL     1      50.169   8.482  13.697  0.00  0.00    +0.000 C 
ENDROOT
BRANCH   1   2
ATOM      2  C   UNL     1      48.791   8.150  13.199  0.00  0.00    +0.000 A 
ATOM      3  C   UNL     1      48.616   7.195  12.190  0.00  0.00    +0.000 A 
ATOM      4  C   UNL     1      47.339   6.870  11.743  0.00  0.00    +0.000 A 
ATOM      5  C   UNL     1      46.215   7.495  12.300  0.00  0.00    +0.000 A 
ATOM      6  C   UNL     1      46.399   8.465  13.299  0.00  0.00    +0.000 A 
ATOM      7  C   UNL     1      47.675   8.793  13.741  0.00  0.00    +0.000 A 
BRANCH   5   8
ATOM      8  C   UNL     1      44.833   7.115  11.825  0.00  0.00    +0.000 C 
BRANCH   8   9
ATOM      9  O   UNL     1      44.126   8.311  11.491  0.00  0.00    +0.000 OA
ATOM     10  H   UNL     1      43.679   8.615  12.296  0.00  0.00    +0.000 HD
ENDBRANCH   8   9
BRANCH   8  11
ATOM     11  C   UNL     1      44.891   6.128  10.627  0.00  0.00    +0.000 C 
BRANCH  11  12
ATOM     12  N   UNL     1      44.699   4.720  11.003  0.00  0.00    +0.000 NA
ATOM     13  C   UNL     1      44.937   3.787   9.894  0.00  0.00    +0.000 C 
ATOM     14  C   UNL     1      44.094   2.554  10.215  0.00  0.00    +0.000 C 
ATOM     15  C   UNL     1      43.328   2.925  11.479  0.00  0.00    +0.000 C 
ATOM     16  C   UNL     1      43.330   4.449  11.468  0.00  0.00    +0.000 C 
BRANCH  15  17
ATOM     17  O   UNL     1      44.046   2.448  12.621  0.00  0.00    +0.000 OA
ATOM     18  H   UNL     1      44.746   3.114  12.774  0.00  0.00    +0.000 HD
ENDBRANCH  15  17
ENDBRANCH  11  12
ENDBRANCH   8  11
ENDBRANCH   5   8
ENDBRANCH   1   2
BRANCH   1  19
ATOM     19  N   UNL     1      50.605   7.467  14.653  0.00  0.00    +0.000 NA
ATOM     20  H   UNL     1      51.513   7.113  14.340  0.00  0.00    +0.000 HD
BRANCH  19  22
ATOM     21  C   UNL     1      50.931   9.541  15.839  0.00  0.00    +0.000 C 
ATOM     22  C   UNL     1      50.761   8.032  16.007  0.00  0.00    +0.000 C 
BRANCH  22  23
ATOM     23  C   UNL     1      49.520   7.694  16.880  0.00  0.00    +0.000 C 
ATOM     24  O   UNL     1      48.553   8.452  16.917  0.00  0.00    +0.000 OA
BRANCH  23  25
ATOM     25  C   UNL     1      49.530   6.445  17.652  0.00  0.00    +0.000 A 
ATOM     26  C   UNL     1      50.260   6.280  18.815  0.00  0.00    +0.000 A 
ATOM     27  S   UNL     1      49.972   4.781  19.585  0.00  0.00    +0.000 S 
ATOM     28  C   UNL     1      48.864   4.307  18.377  0.00  0.00    +0.000 A 
ATOM     29  N   UNL     1      48.194   3.128  18.457  0.00  0.00    +0.000 NA
ATOM     30  C   UNL     1      47.361   2.924  17.488  0.00  0.00    +0.000 A 
ATOM     31  N   UNL     1      47.178   3.774  16.429  0.00  0.00    +0.000 N 
ATOM     32  C   UNL     1      47.962   4.883  16.220  0.00  0.00    +0.000 A 
ATOM     33  O   UNL     1      48.031   5.427  15.122  0.00  0.00    +0.000 OA
ATOM     34  C   UNL     1      48.781   5.247  17.366  0.00  0.00    +0.000 A 
ATOM     35  H   UNL     1      46.586   3.500  15.655  0.00  0.00    +0.000 HD
ENDBRANCH  23  25
ENDBRANCH  22  23
ENDBRANCH  19  22
ENDBRANCH   1  19
TORSDOF 10
ENDMDL
MODEL 5
REMARK VINA RESULT:    -6.928      1.523      2.104
REMARK INTER + INTRA:         -11.591
REMARK INTER:                 -10.219
REMARK INTRA:                  -1.372
REMARK UNBOUND:                -1.017
REMARK  Name = 
REMARK  11 active torsions:
REMARK  status: ('A' for Active; 'I' for Inactive)
REMARK    1  A    between atoms: C_1  and  C_2
REMARK    2  A    between atoms: C_2  and  N_3
REMARK    3  A    between atoms: C_2  and  C_20
REMARK    4  A    between atoms: N_3  and  C_4
REMARK    5  A    between atoms: C_4  and  C_5
REMARK    6  A    between atoms: C_8  and  C_9
REMARK    7  A    between atoms: C_9  and  O_10
REMARK    8  A    between atoms: C_9  and  C_11
REMARK    9  A    between atoms: C_11  and  N_12
REMARK   10  A    between atoms: C_15  and  O_16
REMARK   11  A    between atoms: C_20  and  C_22
REMARK                            x       y       z     vdW  Elec       q    Type
REMARK                         _______ _______ _______ _____ _____    ______ ____
ROOT
ATOM      1  C   UNL     1      49.531   7.180  14.956  0.00  0.00    +0.000 C 
ENDROOT
BRANCH   1   2
ATOM      2  C   UNL     1      48.249   6.705  14.333  0.00  0.00    +0.000 A 
ATOM      3  C   UNL     1      47.519   7.551  13.489  0.00  0.00    +0.000 A 
ATOM      4  C   UNL     1      46.342   7.106  12.895  0.00  0.00    +0.000 A 
ATOM      5  C   UNL     1      45.877   5.806  13.135  0.00  0.00    +0.000 A 
ATOM      6  C   UNL     1      46.604   4.970  13.997  0.00  0.00    +0.000 A 
ATOM      7  C   UNL     1      47.777   5.417  14.594  0.00  0.00    +0.000 A 
BRANCH   5   8
ATOM      8  C   UNL     1      44.612   5.326  12.462  0.00  0.00    +0.000 C 
BRANCH   8   9
ATOM      9  O   UNL     1      43.494   5.801  13.215  0.00  0.00    +0.000 OA
ATOM     10  H   UNL     1      43.039   5.023  13.575  0.00  0.00    +0.000 HD
ENDBRANCH   8   9
BRANCH   8  11
ATOM     11  C   UNL     1      44.544   5.783  10.980  0.00  0.00    +0.000 C 
BRANCH  11  12
ATOM     12  N   UNL     1      44.401   4.679  10.019  0.00  0.00    +0.000 NA
ATOM     13  C   UNL     1      44.443   3.355  10.650  0.00  0.00    +0.000 C 
ATOM     14  C   UNL     1      44.945   2.406   9.564  0.00  0.00    +0.000 C 
ATOM     15  C   UNL     1      45.261   3.306   8.376  0.00  0.00    +0.000 C 
ATOM     16  C   UNL     1      45.469   4.677   9.009  0.00  0.00    +0.000 C 
BRANCH  15  17
ATOM     17  O   UNL     1      44.132   3.344   7.500  0.00  0.00    +0.000 OA
ATOM     18  H   UNL     1      43.804   4.264   7.550  0.00  0.00    +0.000 HD
ENDBRANCH  15  17
ENDBRANCH  11  12
ENDBRANCH   8  11
ENDBRANCH   5   8
ENDBRANCH   1   2
BRANCH   1  19
ATOM     19  N   UNL     1      49.969   6.225  15.970  0.00  0.00    +0.000 NA
ATOM     20  H   UNL     1      50.855   5.819  15.656  0.00  0.00    +0.000 HD
BRANCH  19  22
ATOM     21  C   UNL     1      49.016   7.837  17.489  0.00  0.00    +0.000 C 
ATOM     22  C   UNL     1      50.189   6.884  17.273  0.00  0.00    +0.000 C 
BRANCH  22  23
ATOM     23  C   UNL     1      50.279   5.826  18.406  0.00  0.00    +0.000 C 
ATOM     24  O   UNL     1      49.388   5.729  19.248  0.00  0.00    +0.000 OA
BRANCH  23  25
ATOM     25  C   UNL     1      51.449   4.939  18.443  0.00  0.00    +0.000 A 
ATOM     26  C   UNL     1      52.667   5.316  18.980  0.00  0.00    +0.000 A 
ATOM     27  S   UNL     1      53.806   4.042  19.025  0.00  0.00    +0.000 S 
ATOM     28  C   UNL     1      52.702   2.950  18.318  0.00  0.00    +0.000 A 
ATOM     29  N   UNL     1      53.026   1.645  18.124  0.00  0.00    +0.000 NA
ATOM     30  C   UNL     1      52.073   0.933  17.614  0.00  0.00    +0.000 A 
ATOM     31  N   UNL     1      50.849   1.424  17.242  0.00  0.00    +0.000 N 
ATOM     32  C   UNL     1      50.549   2.765  17.256  0.00  0.00    +0.000 A 
ATOM     33  O   UNL     1      49.612   3.223  16.610  0.00  0.00    +0.000 OA
ATOM     34  C   UNL     1      51.514   3.575  17.984  0.00  0.00    +0.000 A 
ATOM     35  H   UNL     1      50.192   0.829  16.753  0.00  0.00    +0.000 HD
ENDBRANCH  23  25
ENDBRANCH  22  23
ENDBRANCH  19  22
ENDBRANCH   1  19
TORSDOF 10
ENDMDL
MODEL 6
REMARK VINA RESULT:    -6.830      2.677      3.777
REMARK INTER + INTRA:         -11.441
REMARK INTER:                  -9.890
REMARK INTRA:                  -1.551
REMARK UNBOUND:                -1.017
REMARK  Name = 
REMARK  11 active torsions:
REMARK  status: ('A' for Active; 'I' for Inactive)
REMARK    1  A    between atoms: C_1  and  C_2
REMARK    2  A    between atoms: C_2  and  N_3
REMARK    3  A    between atoms: C_2  and  C_20
REMARK    4  A    between atoms: N_3  and  C_4
REMARK    5  A    between atoms: C_4  and  C_5
REMARK    6  A    between atoms: C_8  and  C_9
REMARK    7  A    between atoms: C_9  and  O_10
REMARK    8  A    between atoms: C_9  and  C_11
REMARK    9  A    between atoms: C_11  and  N_12
REMARK   10  A    between atoms: C_15  and  O_16
REMARK   11  A    between atoms: C_20  and  C_22
REMARK                            x       y       z     vdW  Elec       q    Type
REMARK                         _______ _______ _______ _____ _____    ______ ____
ROOT
ATOM      1  C   UNL     1      50.440   8.084  14.531  0.00  0.00    +0.000 C 
ENDROOT
BRANCH   1   2
ATOM      2  C   UNL     1      49.062   7.822  13.993  0.00  0.00    +0.000 A 
ATOM      3  C   UNL     1      48.043   8.764  14.176  0.00  0.00    +0.000 A 
ATOM      4  C   UNL     1      46.772   8.533  13.659  0.00  0.00    +0.000 A 
ATOM      5  C   UNL     1      46.501   7.356  12.948  0.00  0.00    +0.000 A 
ATOM      6  C   UNL     1      47.524   6.408  12.785  0.00  0.00    +0.000 A 
ATOM      7  C   UNL     1      48.792   6.637  13.306  0.00  0.00    +0.000 A 
BRANCH   5   8
ATOM      8  C   UNL     1      45.124   7.129  12.369  0.00  0.00    +0.000 C 
BRANCH   8   9
ATOM      9  O   UNL     1      44.514   8.401  12.145  0.00  0.00    +0.000 OA
ATOM     10  H   UNL     1      45.218   9.016  11.884  0.00  0.00    +0.000 HD
ENDBRANCH   8   9
BRANCH   8  11
ATOM     11  C   UNL     1      45.183   6.281  11.069  0.00  0.00    +0.000 C 
BRANCH  11  12
ATOM     12  N   UNL     1      44.876   4.858  11.268  0.00  0.00    +0.000 NA
ATOM     13  C   UNL     1      45.041   4.054  10.051  0.00  0.00    +0.000 C 
ATOM     14  C   UNL     1      44.100   2.863  10.222  0.00  0.00    +0.000 C 
ATOM     15  C   UNL     1      43.363   3.135  11.527  0.00  0.00    +0.000 C 
ATOM     16  C   UNL     1      43.488   4.643  11.705  0.00  0.00    +0.000 C 
BRANCH  15  17
ATOM     17  O   UNL     1      44.035   2.463  12.596  0.00  0.00    +0.000 OA
ATOM     18  H   UNL     1      44.969   2.406  12.309  0.00  0.00    +0.000 HD
ENDBRANCH  15  17
ENDBRANCH  11  12
ENDBRANCH   8  11
ENDBRANCH   5   8
ENDBRANCH   1   2
BRANCH   1  19
ATOM     19  N   UNL     1      50.901   6.925  15.291  0.00  0.00    +0.000 NA
ATOM     20  H   UNL     1      51.824   6.663  14.932  0.00  0.00    +0.000 HD
BRANCH  19  22
ATOM     21  C   UNL     1      51.148   8.753  16.843  0.00  0.00    +0.000 C 
ATOM     22  C   UNL     1      51.025   7.236  16.729  0.00  0.00    +0.000 C 
BRANCH  22  23
ATOM     23  C   UNL     1      49.788   6.705  17.505  0.00  0.00    +0.000 C 
ATOM     24  O   UNL     1      49.224   7.405  18.343  0.00  0.00    +0.000 OA
BRANCH  23  25
ATOM     25  C   UNL     1      49.306   5.350  17.206  0.00  0.00    +0.000 A 
ATOM     26  C   UNL     1      48.079   5.096  16.622  0.00  0.00    +0.000 A 
ATOM     27  S   UNL     1      47.837   3.444  16.254  0.00  0.00    +0.000 S 
ATOM     28  C   UNL     1      49.369   3.020  16.875  0.00  0.00    +0.000 A 
ATOM     29  N   UNL     1      49.825   1.742  16.816  0.00  0.00    +0.000 NA
ATOM     30  C   UNL     1      51.018   1.583  17.292  0.00  0.00    +0.000 A 
ATOM     31  N   UNL     1      51.768   2.580  17.859  0.00  0.00    +0.000 N 
ATOM     32  C   UNL     1      51.274   3.840  18.098  0.00  0.00    +0.000 A 
ATOM     33  O   UNL     1      51.806   4.600  18.900  0.00  0.00    +0.000 OA
ATOM     34  C   UNL     1      50.014   4.114  17.423  0.00  0.00    +0.000 A 
ATOM     35  H   UNL     1      52.650   2.360  18.304  0.00  0.00    +0.000 HD
ENDBRANCH  23  25
ENDBRANCH  22  23
ENDBRANCH  19  22
ENDBRANCH   1  19
TORSDOF 10
ENDMDL
MODEL 7
REMARK VINA RESULT:    -6.737      2.496      3.552
REMARK INTER + INTRA:         -11.299
REMARK INTER:                  -9.843
REMARK INTRA:                  -1.456
REMARK UNBOUND:                -1.017
REMARK  Name = 
REMARK  11 active torsions:
REMARK  status: ('A' for Active; 'I' for Inactive)
REMARK    1  A    between atoms: C_1  and  C_2
REMARK    2  A    between atoms: C_2  and  N_3
REMARK    3  A    between atoms: C_2  and  C_20
REMARK    4  A    between atoms: N_3  and  C_4
REMARK    5  A    between atoms: C_4  and  C_5
REMARK    6  A    between atoms: C_8  and  C_9
REMARK    7  A    between atoms: C_9  and  O_10
REMARK    8  A    between atoms: C_9  and  C_11
REMARK    9  A    between atoms: C_11  and  N_12
REMARK   10  A    between atoms: C_15  and  O_16
REMARK   11  A    between atoms: C_20  and  C_22
REMARK                            x       y       z     vdW  Elec       q    Type
REMARK                         _______ _______ _______ _____ _____    ______ ____
ROOT
ATOM      1  C   UNL     1      50.205   7.773  14.048  0.00  0.00    +0.000 C 
ENDROOT
BRANCH   1   2
ATOM      2  C   UNL     1      48.898   7.154  13.639  0.00  0.00    +0.000 A 
ATOM      3  C   UNL     1      48.331   7.460  12.396  0.00  0.00    +0.000 A 
ATOM      4  C   UNL     1      47.132   6.871  12.006  0.00  0.00    +0.000 A 
ATOM      5  C   UNL     1      46.481   5.965  12.855  0.00  0.00    +0.000 A 
ATOM      6  C   UNL     1      47.047   5.677  14.107  0.00  0.00    +0.000 A 
ATOM      7  C   UNL     1      48.242   6.269  14.498  0.00  0.00    +0.000 A 
BRANCH   5   8
ATOM      8  C   UNL     1      45.194   5.312  12.409  0.00  0.00    +0.000 C 
BRANCH   8   9
ATOM      9  O   UNL     1      44.128   5.822  13.214  0.00  0.00    +0.000 OA
ATOM     10  H   UNL     1      43.435   5.144  13.235  0.00  0.00    +0.000 HD
ENDBRANCH   8   9
BRANCH   8  11
ATOM     11  C   UNL     1      44.931   5.539  10.895  0.00  0.00    +0.000 C 
BRANCH  11  12
ATOM     12  N   UNL     1      45.265   4.383  10.050  0.00  0.00    +0.000 NA
ATOM     13  C   UNL     1      45.671   4.758   8.691  0.00  0.00    +0.000 C 
ATOM     14  C   UNL     1      45.332   3.550   7.820  0.00  0.00    +0.000 C 
ATOM     15  C   UNL     1      44.637   2.575   8.762  0.00  0.00    +0.000 C 
ATOM     16  C   UNL     1      44.128   3.464   9.890  0.00  0.00    +0.000 C 
BRANCH  15  17
ATOM     17  O   UNL     1      45.599   1.648   9.272  0.00  0.00    +0.000 OA
ATOM     18  H   UNL     1      45.143   0.782   9.264  0.00  0.00    +0.000 HD
ENDBRANCH  15  17
ENDBRANCH  11  12
ENDBRANCH   8  11
ENDBRANCH   5   8
ENDBRANCH   1   2
BRANCH   1  19
ATOM     19  N   UNL     1      50.338   7.727  15.501  0.00  0.00    +0.000 NA
ATOM     20  H   UNL     1      49.523   7.233  15.875  0.00  0.00    +0.000 HD
BRANCH  19  22
ATOM     21  C   UNL     1      52.703   8.012  15.873  0.00  0.00    +0.000 C 
ATOM     22  C   UNL     1      51.558   7.003  15.910  0.00  0.00    +0.000 C 
BRANCH  22  23
ATOM     23  C   UNL     1      51.377   6.398  17.329  0.00  0.00    +0.000 C 
ATOM     24  O   UNL     1      52.354   6.101  18.014  0.00  0.00    +0.000 OA
BRANCH  23  25
ATOM     25  C   UNL     1      50.013   6.196  17.834  0.00  0.00    +0.000 A 
ATOM     26  C   UNL     1      49.312   7.166  18.527  0.00  0.00    +0.000 A 
ATOM     27  S   UNL     1      47.697   6.717  18.866  0.00  0.00    +0.000 S 
ATOM     28  C   UNL     1      47.894   5.206  18.098  0.00  0.00    +0.000 A 
ATOM     29  N   UNL     1      46.858   4.335  17.979  0.00  0.00    +0.000 NA
ATOM     30  C   UNL     1      47.150   3.248  17.341  0.00  0.00    +0.000 A 
ATOM     31  N   UNL     1      48.395   2.943  16.855  0.00  0.00    +0.000 N 
ATOM     32  C   UNL     1      49.504   3.713  17.110  0.00  0.00    +0.000 A 
ATOM     33  O   UNL     1      50.640   3.269  16.982  0.00  0.00    +0.000 OA
ATOM     34  C   UNL     1      49.194   5.022  17.664  0.00  0.00    +0.000 A 
ATOM     35  H   UNL     1      48.574   2.029  16.458  0.00  0.00    +0.000 HD
ENDBRANCH  23  25
ENDBRANCH  22  23
ENDBRANCH  19  22
ENDBRANCH   1  19
TORSDOF 10
ENDMDL
MODEL 8
REMARK VINA RESULT:    -6.658      1.760      2.409
REMARK INTER + INTRA:         -11.179
REMARK INTER:                 -11.032
REMARK INTRA:                  -0.147
REMARK UNBOUND:                -1.017
REMARK  Name = 
REMARK  11 active torsions:
REMARK  status: ('A' for Active; 'I' for Inactive)
REMARK    1  A    between atoms: C_1  and  C_2
REMARK    2  A    between atoms: C_2  and  N_3
REMARK    3  A    between atoms: C_2  and  C_20
REMARK    4  A    between atoms: N_3  and  C_4
REMARK    5  A    between atoms: C_4  and  C_5
REMARK    6  A    between atoms: C_8  and  C_9
REMARK    7  A    between atoms: C_9  and  O_10
REMARK    8  A    between atoms: C_9  and  C_11
REMARK    9  A    between atoms: C_11  and  N_12
REMARK   10  A    between atoms: C_15  and  O_16
REMARK   11  A    between atoms: C_20  and  C_22
REMARK                            x       y       z     vdW  Elec       q    Type
REMARK                         _______ _______ _______ _____ _____    ______ ____
ROOT
ATOM      1  C   UNL     1      48.303   6.658  13.600  0.00  0.00    +0.000 C 
ENDROOT
BRANCH   1   2
ATOM      2  C   UNL     1      47.224   5.976  12.809  0.00  0.00    +0.000 A 
ATOM      3  C   UNL     1      46.765   6.537  11.611  0.00  0.00    +0.000 A 
ATOM      4  C   UNL     1      45.780   5.895  10.866  0.00  0.00    +0.000 A 
ATOM      5  C   UNL     1      45.240   4.679  11.307  0.00  0.00    +0.000 A 
ATOM      6  C   UNL     1      45.692   4.132  12.518  0.00  0.00    +0.000 A 
ATOM      7  C   UNL     1      46.672   4.776  13.265  0.00  0.00    +0.000 A 
BRANCH   5   8
ATOM      8  C   UNL     1      44.191   3.979  10.475  0.00  0.00    +0.000 C 
BRANCH   8   9
ATOM      9  O   UNL     1      43.795   4.855   9.418  0.00  0.00    +0.000 OA
ATOM     10  H   UNL     1      43.112   4.396   8.905  0.00  0.00    +0.000 HD
ENDBRANCH   8   9
BRANCH   8  11
ATOM     11  C   UNL     1      44.707   2.618   9.932  0.00  0.00    +0.000 C 
BRANCH  11  12
ATOM     12  N   UNL     1      45.687   2.741   8.844  0.00  0.00    +0.000 NA
ATOM     13  C   UNL     1      45.245   3.631   7.764  0.00  0.00    +0.000 C 
ATOM     14  C   UNL     1      45.978   3.147   6.515  0.00  0.00    +0.000 C 
ATOM     15  C   UNL     1      46.738   1.906   6.967  0.00  0.00    +0.000 C 
ATOM     16  C   UNL     1      45.977   1.449   8.205  0.00  0.00    +0.000 C 
BRANCH  15  17
ATOM     17  O   UNL     1      48.072   2.277   7.327  0.00  0.00    +0.000 OA
ATOM     18  H   UNL     1      47.970   3.077   7.880  0.00  0.00    +0.000 HD
ENDBRANCH  15  17
ENDBRANCH  11  12
ENDBRANCH   8  11
ENDBRANCH   5   8
ENDBRANCH   1   2
BRANCH   1  19
ATOM     19  N   UNL     1      47.861   6.842  14.980  0.00  0.00    +0.000 NA
ATOM     20  H   UNL     1      47.268   6.045  15.227  0.00  0.00    +0.000 HD
BRANCH  19  22
ATOM     21  C   UNL     1      49.233   8.353  16.264  0.00  0.00    +0.000 C 
ATOM     22  C   UNL     1      49.006   6.885  15.912  0.00  0.00    +0.000 C 
BRANCH  22  23
ATOM     23  C   UNL     1      48.704   6.036  17.178  0.00  0.00    +0.000 C 
ATOM     24  O   UNL     1      48.343   6.574  18.223  0.00  0.00    +0.000 OA
BRANCH  23  25
ATOM     25  C   UNL     1      48.854   4.578  17.093  0.00  0.00    +0.000 A 
ATOM     26  C   UNL     1      47.870   3.744  16.594  0.00  0.00    +0.000 A 
ATOM     27  S   UNL     1      48.366   2.112  16.474  0.00  0.00    +0.000 S 
ATOM     28  C   UNL     1      49.913   2.476  17.095  0.00  0.00    +0.000 A 
ATOM     29  N   UNL     1      50.872   1.520  17.203  0.00  0.00    +0.000 NA
ATOM     30  C   UNL     1      52.005   1.954  17.656  0.00  0.00    +0.000 A 
ATOM     31  N   UNL     1      52.241   3.246  18.048  0.00  0.00    +0.000 N 
ATOM     32  C   UNL     1      51.251   4.195  18.122  0.00  0.00    +0.000 A 
ATOM     33  O   UNL     1      51.384   5.216  18.788  0.00  0.00    +0.000 OA
ATOM     34  C   UNL     1      50.014   3.806  17.459  0.00  0.00    +0.000 A 
ATOM     35  H   UNL     1      53.119   3.489  18.489  0.00  0.00    +0.000 HD
ENDBRANCH  23  25
ENDBRANCH  22  23
ENDBRANCH  19  22
ENDBRANCH   1  19
TORSDOF 10
ENDMDL
MODEL 9
REMARK VINA RESULT:    -6.638      4.031      8.662
REMARK INTER + INTRA:         -11.148
REMARK INTER:                 -10.444
REMARK INTRA:                  -0.704
REMARK UNBOUND:                -1.017
REMARK  Name = 
REMARK  11 active torsions:
REMARK  status: ('A' for Active; 'I' for Inactive)
REMARK    1  A    between atoms: C_1  and  C_2
REMARK    2  A    between atoms: C_2  and  N_3
REMARK    3  A    between atoms: C_2  and  C_20
REMARK    4  A    between atoms: N_3  and  C_4
REMARK    5  A    between atoms: C_4  and  C_5
REMARK    6  A    between atoms: C_8  and  C_9
REMARK    7  A    between atoms: C_9  and  O_10
REMARK    8  A    between atoms: C_9  and  C_11
REMARK    9  A    between atoms: C_11  and  N_12
REMARK   10  A    between atoms: C_15  and  O_16
REMARK   11  A    between atoms: C_20  and  C_22
REMARK                            x       y       z     vdW  Elec       q    Type
REMARK                         _______ _______ _______ _____ _____    ______ ____
ROOT
ATOM      1  C   UNL     1      49.451   8.911  13.639  0.00  0.00    +0.000 C 
ENDROOT
BRANCH   1   2
ATOM      2  C   UNL     1      49.538   8.279  14.999  0.00  0.00    +0.000 A 
ATOM      3  C   UNL     1      50.488   7.283  15.255  0.00  0.00    +0.000 A 
ATOM      4  C   UNL     1      50.584   6.712  16.520  0.00  0.00    +0.000 A 
ATOM      5  C   UNL     1      49.732   7.130  17.551  0.00  0.00    +0.000 A 
ATOM      6  C   UNL     1      48.769   8.116  17.282  0.00  0.00    +0.000 A 
ATOM      7  C   UNL     1      48.670   8.683  16.017  0.00  0.00    +0.000 A 
BRANCH   5   8
ATOM      8  C   UNL     1      49.864   6.521  18.927  0.00  0.00    +0.000 C 
BRANCH   8   9
ATOM      9  O   UNL     1      50.376   7.517  19.814  0.00  0.00    +0.000 OA
ATOM     10  H   UNL     1      51.084   7.104  20.333  0.00  0.00    +0.000 HD
ENDBRANCH   8   9
BRANCH   8  11
ATOM     11  C   UNL     1      48.513   5.943  19.429  0.00  0.00    +0.000 C 
BRANCH  11  12
ATOM     12  N   UNL     1      48.173   4.632  18.856  0.00  0.00    +0.000 NA
ATOM     13  C   UNL     1      49.351   3.852  18.456  0.00  0.00    +0.000 C 
ATOM     14  C   UNL     1      48.863   2.924  17.347  0.00  0.00    +0.000 C 
ATOM     15  C   UNL     1      47.412   3.325  17.114  0.00  0.00    +0.000 C 
ATOM     16  C   UNL     1      47.341   4.750  17.649  0.00  0.00    +0.000 C 
BRANCH  15  17
ATOM     17  O   UNL     1      46.559   2.475  17.885  0.00  0.00    +0.000 OA
ATOM     18  H   UNL     1      46.572   2.855  18.787  0.00  0.00    +0.000 HD
ENDBRANCH  15  17
ENDBRANCH  11  12
ENDBRANCH   8  11
ENDBRANCH   5   8
ENDBRANCH   1   2
BRANCH   1  19
ATOM     19  N   UNL     1      48.100   8.753  13.108  0.00  0.00    +0.000 NA
ATOM     20  H   UNL     1      47.804   9.658  12.731  0.00  0.00    +0.000 HD
BRANCH  19  22
ATOM     21  C   UNL     1      49.505   7.516  11.588  0.00  0.00    +0.000 C 
ATOM     22  C   UNL     1      48.060   7.755  12.021  0.00  0.00    +0.000 C 
BRANCH  22  23
ATOM     23  C   UNL     1      47.391   6.443  12.516  0.00  0.00    +0.000 C 
ATOM     24  O   UNL     1      48.031   5.616  13.163  0.00  0.00    +0.000 OA
BRANCH  23  25
ATOM     25  C   UNL     1      45.974   6.220  12.200  0.00  0.00    +0.000 A 
ATOM     26  C   UNL     1      45.135   7.218  11.739  0.00  0.00    +0.000 A 
ATOM     27  S   UNL     1      43.581   6.649  11.311  0.00  0.00    +0.000 S 
ATOM     28  C   UNL     1      43.985   5.048  11.740  0.00  0.00    +0.000 A 
ATOM     29  N   UNL     1      43.106   4.027  11.565  0.00  0.00    +0.000 NA
ATOM     30  C   UNL     1      43.568   2.865  11.900  0.00  0.00    +0.000 A 
ATOM     31  N   UNL     1      44.811   2.649  12.435  0.00  0.00    +0.000 N 
ATOM     32  C   UNL     1      45.657   3.671  12.793  0.00  0.00    +0.000 A 
ATOM     33  O   UNL     1      46.588   3.495  13.572  0.00  0.00    +0.000 OA
ATOM     34  C   UNL     1      45.259   4.971  12.274  0.00  0.00    +0.000 A 
ATOM     35  H   UNL     1      45.065   1.728  12.770  0.00  0.00    +0.000 HD
ENDBRANCH  23  25
ENDBRANCH  22  23
ENDBRANCH  19  22
ENDBRANCH   1  19
TORSDOF 10
ENDMDL
