MODEL 1
REMARK VINA RESULT:    -9.285      0.000      0.000
REMARK INTER + INTRA:         -12.352
REMARK INTER:                 -11.456
REMARK INTRA:                  -0.896
REMARK UNBOUND:                -0.896
REMARK  Name = 
REMARK  4 active torsions:
REMARK  status: ('A' for Active; 'I' for Inactive)
REMARK    1  A    between atoms: C_2  and  C_4
REMARK    2  A    between atoms: N_8  and  C_9
REMARK    3  A    between atoms: C_9  and  C_10
REMARK    4  A    between atoms: C_14  and  C_15
REMARK                            x       y       z     vdW  Elec       q    Type
REMARK                         _______ _______ _______ _____ _____    ______ ____
ROOT
ATOM      1  C   UNL     1      43.458   4.883  10.999  0.00  0.00    +0.000 C 
ENDROOT
BRANCH   1   6
ATOM      2  C   UNL     1      46.369   2.287   7.672  0.00  0.00    +0.000 A 
ATOM      3  C   UNL     1      45.637   1.805   8.751  0.00  0.00    +0.000 A 
ATOM      4  C   UNL     1      44.777   2.672   9.428  0.00  0.00    +0.000 A 
ATOM      5  C   UNL     1      44.677   4.000   9.027  0.00  0.00    +0.000 A 
ATOM      6  N   UNL     1      43.810   4.903   9.596  0.00  0.00    +0.000 N 
ATOM      7  N   UNL     1      45.390   4.476   7.989  0.00  0.00    +0.000 NA
ATOM      8  C   UNL     1      46.225   3.623   7.341  0.00  0.00    +0.000 A 
ATOM      9  H   UNL     1      43.968   5.823   9.194  0.00  0.00    +0.000 HD
BRANCH   2  11
ATOM     10  N   UNL     1      48.403   2.033   6.365  0.00  0.00    +0.000 N 
ATOM     11  C   UNL     1      47.293   1.442   6.891  0.00  0.00    +0.000 C 
ATOM     12  O   UNL     1      47.082   0.241   6.745  0.00  0.00    +0.000 OA
ATOM     13  H   UNL     1      49.070   1.415   5.924  0.00  0.00    +0.000 HD
ATOM     14  H   UNL     1      48.733   2.934   6.675  0.00  0.00    +0.000 HD
ENDBRANCH   2  11
ENDBRANCH   1   6
BRANCH   1  15
ATOM     15  C   UNL     1      44.599   5.135  11.956  0.00  0.00    +0.000 A 
ATOM     16  C   UNL     1      45.006   4.258  12.965  0.00  0.00    +0.000 A 
ATOM     17  C   UNL     1      46.103   4.568  13.769  0.00  0.00    +0.000 A 
ATOM     18  C   UNL     1      46.833   5.737  13.547  0.00  0.00    +0.000 A 
ATOM     19  C   UNL     1      46.493   6.623  12.512  0.00  0.00    +0.000 A 
ATOM     20  C   UNL     1      45.341   6.317  11.762  0.00  0.00    +0.000 A 
BRANCH  19  21
ATOM     21  C   UNL     1      47.366   7.759  12.138  0.00  0.00    +0.000 A 
ATOM     22  C   UNL     1      46.894   9.089  12.263  0.00  0.00    +0.000 A 
ATOM     23  C   UNL     1      47.730  10.185  12.050  0.00  0.00    +0.000 A 
ATOM     24  C   UNL     1      49.063   9.984  11.710  0.00  0.00    +0.000 A 
ATOM     25  C   UNL     1      49.540   8.689  11.575  0.00  0.00    +0.000 A 
ATOM     26  F   UNL     1      50.827   8.495  11.265  0.00  0.00    +0.000 F 
ATOM     27  C   UNL     1      48.711   7.587  11.765  0.00  0.00    +0.000 A 
ENDBRANCH  19  21
ENDBRANCH   1  15
TORSDOF 4
ENDMDL
MODEL 2
REMARK VINA RESULT:    -9.177      1.130      1.494
REMARK INTER + INTRA:         -12.219
REMARK INTER:                 -11.320
REMARK INTRA:                  -0.899
REMARK UNBOUND:                -0.896
REMARK  Name = 
REMARK  4 active torsions:
REMARK  status: ('A' for Active; 'I' for Inactive)
REMARK    1  A    between atoms: C_2  and  C_4
REMARK    2  A    between atoms: N_8  and  C_9
REMARK    3  A    between atoms: C_9  and  C_10
REMARK    4  A    between atoms: C_14  and  C_15
REMARK                            x       y       z     vdW  Elec       q    Type
REMARK                         _______ _______ _______ _____ _____    ______ ____
ROOT
ATOM      1  C   UNL     1      43.449   4.772  11.088  0.00  0.00    +0.000 C 
ENDROOT
BRANCH   1   6
ATOM      2  C   UNL     1      46.345   2.271   7.676  0.00  0.00    +0.000 A 
ATOM      3  C   UNL     1      45.649   1.764   8.767  0.00  0.00    +0.000 A 
ATOM      4  C   UNL     1      44.785   2.605   9.470  0.00  0.00    +0.000 A 
ATOM      5  C   UNL     1      44.644   3.933   9.082  0.00  0.00    +0.000 A 
ATOM      6  N   UNL     1      43.769   4.811   9.677  0.00  0.00    +0.000 N 
ATOM      7  N   UNL     1      45.322   4.435   8.032  0.00  0.00    +0.000 NA
ATOM      8  C   UNL     1      46.163   3.606   7.359  0.00  0.00    +0.000 A 
ATOM      9  H   UNL     1      43.896   5.738   9.280  0.00  0.00    +0.000 HD
BRANCH   2  11
ATOM     10  N   UNL     1      48.306   2.091   6.251  0.00  0.00    +0.000 N 
ATOM     11  C   UNL     1      47.271   1.454   6.868  0.00  0.00    +0.000 C 
ATOM     12  O   UNL     1      47.128   0.238   6.779  0.00  0.00    +0.000 OA
ATOM     13  H   UNL     1      48.983   1.498   5.790  0.00  0.00    +0.000 HD
ATOM     14  H   UNL     1      48.596   3.023   6.506  0.00  0.00    +0.000 HD
ENDBRANCH   2  11
ENDBRANCH   1   6
BRANCH   1  15
ATOM     15  C   UNL     1      44.609   5.025  12.022  0.00  0.00    +0.000 A 
ATOM     16  C   UNL     1      45.164   4.075  12.884  0.00  0.00    +0.000 A 
ATOM     17  C   UNL     1      46.265   4.400  13.676  0.00  0.00    +0.000 A 
ATOM     18  C   UNL     1      46.852   5.663  13.586  0.00  0.00    +0.000 A 
ATOM     19  C   UNL     1      46.362   6.633  12.696  0.00  0.00    +0.000 A 
ATOM     20  C   UNL     1      45.208   6.298  11.960  0.00  0.00    +0.000 A 
BRANCH  19  21
ATOM     21  C   UNL     1      47.085   7.900  12.445  0.00  0.00    +0.000 A 
ATOM     22  C   UNL     1      48.443   7.876  12.042  0.00  0.00    +0.000 A 
ATOM     23  C   UNL     1      49.116   9.038  11.667  0.00  0.00    +0.000 A 
ATOM     24  C   UNL     1      48.450  10.259  11.678  0.00  0.00    +0.000 A 
ATOM     25  C   UNL     1      47.122  10.302  12.078  0.00  0.00    +0.000 A 
ATOM     26  F   UNL     1      46.477  11.474  12.073  0.00  0.00    +0.000 F 
ATOM     27  C   UNL     1      46.446   9.152  12.474  0.00  0.00    +0.000 A 
ENDBRANCH  19  21
ENDBRANCH   1  15
TORSDOF 4
ENDMDL
MODEL 3
REMARK VINA RESULT:    -8.539      2.299      3.490
REMARK INTER + INTRA:         -11.431
REMARK INTER:                 -10.609
REMARK INTRA:                  -0.821
REMARK UNBOUND:                -0.896
REMARK  Name = 
REMARK  4 active torsions:
REMARK  status: ('A' for Active; 'I' for Inactive)
REMARK    1  A    between atoms: C_2  and  C_4
REMARK    2  A    between atoms: N_8  and  C_9
REMARK    3  A    between atoms: C_9  and  C_10
REMARK    4  A    between atoms: C_14  and  C_15
REMARK                            x       y       z     vdW  Elec       q    Type
REMARK                         _______ _______ _______ _____ _____    ______ ____
ROOT
ATOM      1  C   UNL     1      43.721   5.060  10.995  0.00  0.00    +0.000 C 
ENDROOT
BRANCH   1   6
ATOM      2  C   UNL     1      46.363   2.225   7.638  0.00  0.00    +0.000 A 
ATOM      3  C   UNL     1      45.836   1.853   8.869  0.00  0.00    +0.000 A 
ATOM      4  C   UNL     1      45.004   2.745   9.548  0.00  0.00    +0.000 A 
ATOM      5  C   UNL     1      44.728   3.991   8.995  0.00  0.00    +0.000 A 
ATOM      6  N   UNL     1      43.871   4.903   9.564  0.00  0.00    +0.000 N 
ATOM      7  N   UNL     1      45.243   4.363   7.808  0.00  0.00    +0.000 NA
ATOM      8  C   UNL     1      46.054   3.487   7.160  0.00  0.00    +0.000 A 
ATOM      9  H   UNL     1      43.887   5.765   9.026  0.00  0.00    +0.000 HD
BRANCH   2  11
ATOM     10  N   UNL     1      48.277   1.920   6.171  0.00  0.00    +0.000 N 
ATOM     11  C   UNL     1      47.242   1.344   6.845  0.00  0.00    +0.000 C 
ATOM     12  O   UNL     1      47.061   0.130   6.817  0.00  0.00    +0.000 OA
ATOM     13  H   UNL     1      48.923   1.287   5.721  0.00  0.00    +0.000 HD
ATOM     14  H   UNL     1      48.601   2.854   6.375  0.00  0.00    +0.000 HD
ENDBRANCH   2  11
ENDBRANCH   1   6
BRANCH   1  15
ATOM     15  C   UNL     1      44.678   6.033  11.642  0.00  0.00    +0.000 A 
ATOM     16  C   UNL     1      44.669   7.416  11.444  0.00  0.00    +0.000 A 
ATOM     17  C   UNL     1      45.572   8.232  12.125  0.00  0.00    +0.000 A 
ATOM     18  C   UNL     1      46.467   7.682  13.045  0.00  0.00    +0.000 A 
ATOM     19  C   UNL     1      46.478   6.304  13.316  0.00  0.00    +0.000 A 
ATOM     20  C   UNL     1      45.601   5.499  12.562  0.00  0.00    +0.000 A 
BRANCH  19  21
ATOM     21  C   UNL     1      47.278   5.731  14.422  0.00  0.00    +0.000 A 
ATOM     22  C   UNL     1      48.328   6.482  15.004  0.00  0.00    +0.000 A 
ATOM     23  C   UNL     1      49.012   6.032  16.133  0.00  0.00    +0.000 A 
ATOM     24  C   UNL     1      48.663   4.819  16.716  0.00  0.00    +0.000 A 
ATOM     25  C   UNL     1      47.643   4.066  16.155  0.00  0.00    +0.000 A 
ATOM     26  F   UNL     1      47.296   2.907  16.726  0.00  0.00    +0.000 F 
ATOM     27  C   UNL     1      46.967   4.495  15.016  0.00  0.00    +0.000 A 
ENDBRANCH  19  21
ENDBRANCH   1  15
TORSDOF 4
ENDMDL
MODEL 4
REMARK VINA RESULT:    -8.075      5.155      7.907
REMARK INTER + INTRA:         -10.859
REMARK INTER:                 -10.287
REMARK INTRA:                  -0.572
REMARK UNBOUND:                -0.896
REMARK  Name = 
REMARK  4 active torsions:
REMARK  status: ('A' for Active; 'I' for Inactive)
REMARK    1  A    between atoms: C_2  and  C_4
REMARK    2  A    between atoms: N_8  and  C_9
REMARK    3  A    between atoms: C_9  and  C_10
REMARK    4  A    between atoms: C_14  and  C_15
REMARK                            x       y       z     vdW  Elec       q    Type
REMARK                         _______ _______ _______ _____ _____    ______ ____
ROOT
ATOM      1  C   UNL     1      46.024   5.214  13.840  0.00  0.00    +0.000 C 
ENDROOT
BRANCH   1   6
ATOM      2  C   UNL     1      49.550   3.731  17.254  0.00  0.00    +0.000 A 
ATOM      3  C   UNL     1      49.023   4.999  17.041  0.00  0.00    +0.000 A 
ATOM      4  C   UNL     1      47.945   5.146  16.165  0.00  0.00    +0.000 A 
ATOM      5  C   UNL     1      47.428   4.033  15.511  0.00  0.00    +0.000 A 
ATOM      6  N   UNL     1      46.332   4.078  14.683  0.00  0.00    +0.000 N 
ATOM      7  N   UNL     1      47.941   2.803  15.705  0.00  0.00    +0.000 NA
ATOM      8  C   UNL     1      48.991   2.674  16.556  0.00  0.00    +0.000 A 
ATOM      9  H   UNL     1      46.187   3.165  14.261  0.00  0.00    +0.000 HD
BRANCH   2  11
ATOM     10  N   UNL     1      51.390   2.327  17.999  0.00  0.00    +0.000 N 
ATOM     11  C   UNL     1      50.681   3.478  18.169  0.00  0.00    +0.000 C 
ATOM     12  O   UNL     1      50.987   4.292  19.035  0.00  0.00    +0.000 OA
ATOM     13  H   UNL     1      52.219   2.226  18.569  0.00  0.00    +0.000 HD
ATOM     14  H   UNL     1      51.330   1.775  17.157  0.00  0.00    +0.000 HD
ENDBRANCH   2  11
ENDBRANCH   1   6
BRANCH   1  15
ATOM     15  C   UNL     1      45.023   4.950  12.741  0.00  0.00    +0.000 A 
ATOM     16  C   UNL     1      43.716   5.445  12.712  0.00  0.00    +0.000 A 
ATOM     17  C   UNL     1      42.884   5.176  11.626  0.00  0.00    +0.000 A 
ATOM     18  C   UNL     1      43.359   4.446  10.535  0.00  0.00    +0.000 A 
ATOM     19  C   UNL     1      44.681   3.973  10.496  0.00  0.00    +0.000 A 
ATOM     20  C   UNL     1      45.475   4.201  11.636  0.00  0.00    +0.000 A 
BRANCH  19  21
ATOM     21  C   UNL     1      45.259   3.371   9.273  0.00  0.00    +0.000 A 
ATOM     22  C   UNL     1      45.758   4.201   8.239  0.00  0.00    +0.000 A 
ATOM     23  C   UNL     1      46.430   3.674   7.137  0.00  0.00    +0.000 A 
ATOM     24  C   UNL     1      46.627   2.301   7.037  0.00  0.00    +0.000 A 
ATOM     25  C   UNL     1      46.138   1.472   8.036  0.00  0.00    +0.000 A 
ATOM     26  F   UNL     1      46.342   0.152   7.948  0.00  0.00    +0.000 F 
ATOM     27  C   UNL     1      45.447   1.985   9.130  0.00  0.00    +0.000 A 
ENDBRANCH  19  21
ENDBRANCH   1  15
TORSDOF 4
ENDMDL
MODEL 5
REMARK VINA RESULT:    -8.050      4.198      7.195
REMARK INTER + INTRA:         -10.828
REMARK INTER:                 -10.633
REMARK INTRA:                  -0.195
REMARK UNBOUND:                -0.896
REMARK  Name = 
REMARK  4 active torsions:
REMARK  status: ('A' for Active; 'I' for Inactive)
REMARK    1  A    between atoms: C_2  and  C_4
REMARK    2  A    between atoms: N_8  and  C_9
REMARK    3  A    between atoms: C_9  and  C_10
REMARK    4  A    between atoms: C_14  and  C_15
REMARK                            x       y       z     vdW  Elec       q    Type
REMARK                         _______ _______ _______ _____ _____    ______ ____
ROOT
ATOM      1  C   UNL     1      45.997   7.322  11.744  0.00  0.00    +0.000 C 
ENDROOT
BRANCH   1   6
ATOM      2  C   UNL     1      47.441   4.435  15.727  0.00  0.00    +0.000 A 
ATOM      3  C   UNL     1      46.409   4.218  14.821  0.00  0.00    +0.000 A 
ATOM      4  C   UNL     1      46.298   5.052  13.708  0.00  0.00    +0.000 A 
ATOM      5  C   UNL     1      47.204   6.092  13.530  0.00  0.00    +0.000 A 
ATOM      6  N   UNL     1      47.205   6.920  12.432  0.00  0.00    +0.000 N 
ATOM      7  N   UNL     1      48.200   6.316  14.408  0.00  0.00    +0.000 NA
ATOM      8  C   UNL     1      48.295   5.498  15.488  0.00  0.00    +0.000 A 
ATOM      9  H   UNL     1      47.904   7.648  12.557  0.00  0.00    +0.000 HD
BRANCH   2  11
ATOM     10  N   UNL     1      48.904   3.516  17.438  0.00  0.00    +0.000 N 
ATOM     11  C   UNL     1      47.644   3.597  16.926  0.00  0.00    +0.000 C 
ATOM     12  O   UNL     1      46.702   3.016  17.457  0.00  0.00    +0.000 OA
ATOM     13  H   UNL     1      48.997   3.022  18.315  0.00  0.00    +0.000 HD
ATOM     14  H   UNL     1      49.631   4.169  17.189  0.00  0.00    +0.000 HD
ENDBRANCH   2  11
ENDBRANCH   1   6
BRANCH   1  15
ATOM     15  C   UNL     1      45.122   6.190  11.261  0.00  0.00    +0.000 A 
ATOM     16  C   UNL     1      43.766   6.041  11.564  0.00  0.00    +0.000 A 
ATOM     17  C   UNL     1      43.036   4.979  11.030  0.00  0.00    +0.000 A 
ATOM     18  C   UNL     1      43.641   4.077  10.153  0.00  0.00    +0.000 A 
ATOM     19  C   UNL     1      44.988   4.215   9.780  0.00  0.00    +0.000 A 
ATOM     20  C   UNL     1      45.715   5.257  10.388  0.00  0.00    +0.000 A 
BRANCH  19  21
ATOM     21  C   UNL     1      45.590   3.391   8.707  0.00  0.00    +0.000 A 
ATOM     22  C   UNL     1      46.236   4.012   7.610  0.00  0.00    +0.000 A 
ATOM     23  C   UNL     1      46.930   3.271   6.654  0.00  0.00    +0.000 A 
ATOM     24  C   UNL     1      47.003   1.887   6.769  0.00  0.00    +0.000 A 
ATOM     25  C   UNL     1      46.369   1.261   7.832  0.00  0.00    +0.000 A 
ATOM     26  F   UNL     1      46.454  -0.069   7.952  0.00  0.00    +0.000 F 
ATOM     27  C   UNL     1      45.656   1.988   8.781  0.00  0.00    +0.000 A 
ENDBRANCH  19  21
ENDBRANCH   1  15
TORSDOF 4
ENDMDL
MODEL 6
REMARK VINA RESULT:    -7.968      3.993      7.032
REMARK INTER + INTRA:         -10.727
REMARK INTER:                  -9.910
REMARK INTRA:                  -0.818
REMARK UNBOUND:                -0.896
REMARK  Name = 
REMARK  4 active torsions:
REMARK  status: ('A' for Active; 'I' for Inactive)
REMARK    1  A    between atoms: C_2  and  C_4
REMARK    2  A    between atoms: N_8  and  C_9
REMARK    3  A    between atoms: C_9  and  C_10
REMARK    4  A    between atoms: C_14  and  C_15
REMARK                            x       y       z     vdW  Elec       q    Type
REMARK                         _______ _______ _______ _____ _____    ______ ____
ROOT
ATOM      1  C   UNL     1      44.481   6.650  11.904  0.00  0.00    +0.000 C 
ENDROOT
BRANCH   1   6
ATOM      2  C   UNL     1      49.399   7.793  12.795  0.00  0.00    +0.000 A 
ATOM      3  C   UNL     1      48.587   8.196  11.741  0.00  0.00    +0.000 A 
ATOM      4  C   UNL     1      47.224   7.901  11.784  0.00  0.00    +0.000 A 
ATOM      5  C   UNL     1      46.702   7.198  12.865  0.00  0.00    +0.000 A 
ATOM      6  N   UNL     1      45.365   6.920  13.018  0.00  0.00    +0.000 N 
ATOM      7  N   UNL     1      47.484   6.794  13.885  0.00  0.00    +0.000 NA
ATOM      8  C   UNL     1      48.809   7.086  13.829  0.00  0.00    +0.000 A 
ATOM      9  H   UNL     1      45.231   6.334  13.837  0.00  0.00    +0.000 HD
BRANCH   2  11
ATOM     10  N   UNL     1      51.519   7.760  13.985  0.00  0.00    +0.000 N 
ATOM     11  C   UNL     1      50.848   8.071  12.840  0.00  0.00    +0.000 C 
ATOM     12  O   UNL     1      51.433   8.540  11.868  0.00  0.00    +0.000 OA
ATOM     13  H   UNL     1      52.524   7.863  13.955  0.00  0.00    +0.000 HD
ATOM     14  H   UNL     1      51.131   7.150  14.690  0.00  0.00    +0.000 HD
ENDBRANCH   2  11
ENDBRANCH   1   6
BRANCH   1  15
ATOM     15  C   UNL     1      44.288   5.189  11.572  0.00  0.00    +0.000 A 
ATOM     16  C   UNL     1      43.375   4.339  12.203  0.00  0.00    +0.000 A 
ATOM     17  C   UNL     1      43.244   3.013  11.791  0.00  0.00    +0.000 A 
ATOM     18  C   UNL     1      43.993   2.531  10.716  0.00  0.00    +0.000 A 
ATOM     19  C   UNL     1      44.885   3.361  10.018  0.00  0.00    +0.000 A 
ATOM     20  C   UNL     1      45.044   4.675  10.501  0.00  0.00    +0.000 A 
BRANCH  19  21
ATOM     21  C   UNL     1      45.537   2.927   8.762  0.00  0.00    +0.000 A 
ATOM     22  C   UNL     1      45.925   3.886   7.793  0.00  0.00    +0.000 A 
ATOM     23  C   UNL     1      46.660   3.528   6.664  0.00  0.00    +0.000 A 
ATOM     24  C   UNL     1      47.034   2.203   6.471  0.00  0.00    +0.000 A 
ATOM     25  C   UNL     1      46.656   1.250   7.404  0.00  0.00    +0.000 A 
ATOM     26  F   UNL     1      47.030  -0.023   7.228  0.00  0.00    +0.000 F 
ATOM     27  C   UNL     1      45.904   1.590   8.525  0.00  0.00    +0.000 A 
ENDBRANCH  19  21
ENDBRANCH   1  15
TORSDOF 4
ENDMDL
MODEL 7
REMARK VINA RESULT:    -6.914      5.797      8.181
REMARK INTER + INTRA:          -9.426
REMARK INTER:                  -8.695
REMARK INTRA:                  -0.731
REMARK UNBOUND:                -0.896
REMARK  Name = 
REMARK  4 active torsions:
REMARK  status: ('A' for Active; 'I' for Inactive)
REMARK    1  A    between atoms: C_2  and  C_4
REMARK    2  A    between atoms: N_8  and  C_9
REMARK    3  A    between atoms: C_9  and  C_10
REMARK    4  A    between atoms: C_14  and  C_15
REMARK                            x       y       z     vdW  Elec       q    Type
REMARK                         _______ _______ _______ _____ _____    ______ ____
ROOT
ATOM      1  C   UNL     1      48.701   6.693  15.889  0.00  0.00    +0.000 C 
ENDROOT
BRANCH   1   6
ATOM      2  C   UNL     1      51.313   2.617  17.574  0.00  0.00    +0.000 A 
ATOM      3  C   UNL     1      51.656   3.962  17.645  0.00  0.00    +0.000 A 
ATOM      4  C   UNL     1      50.714   4.922  17.270  0.00  0.00    +0.000 A 
ATOM      5  C   UNL     1      49.461   4.522  16.818  0.00  0.00    +0.000 A 
ATOM      6  N   UNL     1      48.455   5.399  16.489  0.00  0.00    +0.000 N 
ATOM      7  N   UNL     1      49.125   3.220  16.737  0.00  0.00    +0.000 NA
ATOM      8  C   UNL     1      50.052   2.297  17.102  0.00  0.00    +0.000 A 
ATOM      9  H   UNL     1      47.664   4.883  16.114  0.00  0.00    +0.000 HD
BRANCH   2  11
ATOM     10  N   UNL     1      51.735   0.272  18.057  0.00  0.00    +0.000 N 
ATOM     11  C   UNL     1      52.239   1.534  17.960  0.00  0.00    +0.000 C 
ATOM     12  O   UNL     1      53.429   1.761  18.160  0.00  0.00    +0.000 OA
ATOM     13  H   UNL     1      52.407  -0.465  18.221  0.00  0.00    +0.000 HD
ATOM     14  H   UNL     1      50.845   0.014  17.658  0.00  0.00    +0.000 HD
ENDBRANCH   2  11
ENDBRANCH   1   6
BRANCH   1  15
ATOM     15  C   UNL     1      48.359   6.801  14.421  0.00  0.00    +0.000 A 
ATOM     16  C   UNL     1      49.173   7.390  13.451  0.00  0.00    +0.000 A 
ATOM     17  C   UNL     1      48.782   7.399  12.112  0.00  0.00    +0.000 A 
ATOM     18  C   UNL     1      47.593   6.782  11.720  0.00  0.00    +0.000 A 
ATOM     19  C   UNL     1      46.767   6.132  12.652  0.00  0.00    +0.000 A 
ATOM     20  C   UNL     1      47.155   6.199  14.004  0.00  0.00    +0.000 A 
BRANCH  19  21
ATOM     21  C   UNL     1      45.611   5.308  12.231  0.00  0.00    +0.000 A 
ATOM     22  C   UNL     1      44.749   4.743  13.203  0.00  0.00    +0.000 A 
ATOM     23  C   UNL     1      43.577   4.078  12.843  0.00  0.00    +0.000 A 
ATOM     24  C   UNL     1      43.231   3.960  11.502  0.00  0.00    +0.000 A 
ATOM     25  C   UNL     1      44.068   4.499  10.536  0.00  0.00    +0.000 A 
ATOM     26  F   UNL     1      43.726   4.401   9.246  0.00  0.00    +0.000 F 
ATOM     27  C   UNL     1      45.250   5.148  10.881  0.00  0.00    +0.000 A 
ENDBRANCH  19  21
ENDBRANCH   1  15
TORSDOF 4
ENDMDL
MODEL 8
REMARK VINA RESULT:    -6.711      5.569      8.228
REMARK INTER + INTRA:          -9.176
REMARK INTER:                  -8.603
REMARK INTRA:                  -0.573
REMARK UNBOUND:                -0.896
REMARK  Name = 
REMARK  4 active torsions:
REMARK  status: ('A' for Active; 'I' for Inactive)
REMARK    1  A    between atoms: C_2  and  C_4
REMARK    2  A    between atoms: N_8  and  C_9
REMARK    3  A    between atoms: C_9  and  C_10
REMARK    4  A    between atoms: C_14  and  C_15
REMARK                            x       y       z     vdW  Elec       q    Type
REMARK                         _______ _______ _______ _____ _____    ______ ____
ROOT
ATOM      1  C   UNL     1      48.193   7.333  14.128  0.00  0.00    +0.000 C 
ENDROOT
BRANCH   1   6
ATOM      2  C   UNL     1      50.998   4.817  17.605  0.00  0.00    +0.000 A 
ATOM      3  C   UNL     1      51.274   6.021  16.968  0.00  0.00    +0.000 A 
ATOM      4  C   UNL     1      50.288   6.610  16.175  0.00  0.00    +0.000 A 
ATOM      5  C   UNL     1      49.057   5.982  16.021  0.00  0.00    +0.000 A 
ATOM      6  N   UNL     1      48.010   6.522  15.312  0.00  0.00    +0.000 N 
ATOM      7  N   UNL     1      48.785   4.810  16.627  0.00  0.00    +0.000 NA
ATOM      8  C   UNL     1      49.754   4.246  17.393  0.00  0.00    +0.000 A 
ATOM      9  H   UNL     1      47.245   5.853  15.274  0.00  0.00    +0.000 HD
BRANCH   2  11
ATOM     10  N   UNL     1      51.994   2.764  18.445  0.00  0.00    +0.000 N 
ATOM     11  C   UNL     1      51.975   4.126  18.470  0.00  0.00    +0.000 C 
ATOM     12  O   UNL     1      52.761   4.761  19.167  0.00  0.00    +0.000 OA
ATOM     13  H   UNL     1      52.737   2.319  18.965  0.00  0.00    +0.000 HD
ATOM     14  H   UNL     1      51.551   2.231  17.711  0.00  0.00    +0.000 HD
ENDBRANCH   2  11
ENDBRANCH   1   6
BRANCH   1  15
ATOM     15  C   UNL     1      46.984   7.447  13.230  0.00  0.00    +0.000 A 
ATOM     16  C   UNL     1      46.290   8.631  12.969  0.00  0.00    +0.000 A 
ATOM     17  C   UNL     1      45.209   8.636  12.088  0.00  0.00    +0.000 A 
ATOM     18  C   UNL     1      44.835   7.467  11.423  0.00  0.00    +0.000 A 
ATOM     19  C   UNL     1      45.535   6.264  11.613  0.00  0.00    +0.000 A 
ATOM     20  C   UNL     1      46.578   6.276  12.560  0.00  0.00    +0.000 A 
BRANCH  19  21
ATOM     21  C   UNL     1      45.280   5.070  10.776  0.00  0.00    +0.000 A 
ATOM     22  C   UNL     1      44.558   3.972  11.304  0.00  0.00    +0.000 A 
ATOM     23  C   UNL     1      44.182   2.891  10.507  0.00  0.00    +0.000 A 
ATOM     24  C   UNL     1      44.515   2.877   9.157  0.00  0.00    +0.000 A 
ATOM     25  C   UNL     1      45.230   3.940   8.625  0.00  0.00    +0.000 A 
ATOM     26  F   UNL     1      45.535   3.935   7.322  0.00  0.00    +0.000 F 
ATOM     27  C   UNL     1      45.628   5.015   9.415  0.00  0.00    +0.000 A 
ENDBRANCH  19  21
ENDBRANCH   1  15
TORSDOF 4
ENDMDL
MODEL 9
REMARK VINA RESULT:    -6.559      5.737      8.601
REMARK INTER + INTRA:          -8.988
REMARK INTER:                  -8.217
REMARK INTRA:                  -0.771
REMARK UNBOUND:                -0.896
REMARK  Name = 
REMARK  4 active torsions:
REMARK  status: ('A' for Active; 'I' for Inactive)
REMARK    1  A    between atoms: C_2  and  C_4
REMARK    2  A    between atoms: N_8  and  C_9
REMARK    3  A    between atoms: C_9  and  C_10
REMARK    4  A    between atoms: C_14  and  C_15
REMARK                            x       y       z     vdW  Elec       q    Type
REMARK                         _______ _______ _______ _____ _____    ______ ____
ROOT
ATOM      1  C   UNL     1      49.025   7.038  13.766  0.00  0.00    +0.000 C 
ENDROOT
BRANCH   1   6
ATOM      2  C   UNL     1      48.335   5.798  18.693  0.00  0.00    +0.000 A 
ATOM      3  C   UNL     1      48.614   4.965  17.615  0.00  0.00    +0.000 A 
ATOM      4  C   UNL     1      48.929   5.537  16.381  0.00  0.00    +0.000 A 
ATOM      5  C   UNL     1      48.944   6.921  16.243  0.00  0.00    +0.000 A 
ATOM      6  N   UNL     1      49.305   7.566  15.084  0.00  0.00    +0.000 N 
ATOM      7  N   UNL     1      48.665   7.734  17.280  0.00  0.00    +0.000 NA
ATOM      8  C   UNL     1      48.357   7.165  18.474  0.00  0.00    +0.000 A 
ATOM      9  H   UNL     1      49.166   8.567  15.196  0.00  0.00    +0.000 HD
BRANCH   2  11
ATOM     10  N   UNL     1      48.513   4.072  20.396  0.00  0.00    +0.000 N 
ATOM     11  C   UNL     1      48.002   5.283  20.036  0.00  0.00    +0.000 C 
ATOM     12  O   UNL     1      47.312   5.939  20.810  0.00  0.00    +0.000 OA
ATOM     13  H   UNL     1      48.356   3.790  21.354  0.00  0.00    +0.000 HD
ATOM     14  H   UNL     1      49.274   3.637  19.898  0.00  0.00    +0.000 HD
ENDBRANCH   2  11
ENDBRANCH   1   6
BRANCH   1  15
ATOM     15  C   UNL     1      47.628   7.292  13.251  0.00  0.00    +0.000 A 
ATOM     16  C   UNL     1      46.931   8.495  13.388  0.00  0.00    +0.000 A 
ATOM     17  C   UNL     1      45.658   8.639  12.837  0.00  0.00    +0.000 A 
ATOM     18  C   UNL     1      45.082   7.599  12.107  0.00  0.00    +0.000 A 
ATOM     19  C   UNL     1      45.766   6.389  11.898  0.00  0.00    +0.000 A 
ATOM     20  C   UNL     1      47.020   6.250  12.524  0.00  0.00    +0.000 A 
BRANCH  19  21
ATOM     21  C   UNL     1      45.259   5.355  10.968  0.00  0.00    +0.000 A 
ATOM     22  C   UNL     1      45.678   5.349   9.615  0.00  0.00    +0.000 A 
ATOM     23  C   UNL     1      45.330   4.315   8.746  0.00  0.00    +0.000 A 
ATOM     24  C   UNL     1      44.556   3.255   9.205  0.00  0.00    +0.000 A 
ATOM     25  C   UNL     1      44.130   3.249  10.525  0.00  0.00    +0.000 A 
ATOM     26  F   UNL     1      43.399   2.220  10.971  0.00  0.00    +0.000 F 
ATOM     27  C   UNL     1      44.453   4.285  11.396  0.00  0.00    +0.000 A 
ENDBRANCH  19  21
ENDBRANCH   1  15
TORSDOF 4
ENDMDL
