MODEL 1
REMARK VINA RESULT:    -8.326      0.000      0.000
REMARK INTER + INTRA:         -12.815
REMARK INTER:                 -11.733
REMARK INTRA:                  -1.082
REMARK UNBOUND:                -1.082
REMARK  Name = 
REMARK  7 active torsions:
REMARK  status: ('A' for Active; 'I' for Inactive)
REMARK    1  A    between atoms: C_2  and  C_3
REMARK    2  A    between atoms: C_6  and  N_7
REMARK    3  A    between atoms: N_7  and  C_8
REMARK    4  A    between atoms: C_8  and  C_9
REMARK    5  A    between atoms: C_9  and  C_12
REMARK    6  A    between atoms: C_16  and  O_17
REMARK    7  A    between atoms: O_17  and  C_18
REMARK                            x       y       z     vdW  Elec       q    Type
REMARK                         _______ _______ _______ _____ _____    ______ ____
ROOT
ATOM      1  C   UNL     1      44.167   4.896  12.430  0.00  0.00    +0.000 C 
ATOM      2  F   UNL     1      43.275   5.465  13.291  0.00  0.00    +0.000 F 
ATOM      3  F   UNL     1      44.034   3.546  12.604  0.00  0.00    +0.000 F 
ENDROOT
BRANCH   1   4
ATOM      4  C   UNL     1      45.585   5.375  12.675  0.00  0.00    +0.000 A 
ATOM      5  C   UNL     1      46.186   6.306  11.818  0.00  0.00    +0.000 A 
ATOM      6  C   UNL     1      47.435   6.845  12.129  0.00  0.00    +0.000 A 
ATOM      7  C   UNL     1      48.103   6.453  13.292  0.00  0.00    +0.000 A 
ATOM      8  C   UNL     1      47.532   5.499  14.131  0.00  0.00    +0.000 A 
ATOM      9  C   UNL     1      46.279   4.966  13.825  0.00  0.00    +0.000 A 
BRANCH   8  10
ATOM     10  O   UNL     1      48.085   5.050  15.303  0.00  0.00    +0.000 OA
BRANCH  10  11
ATOM     11  C   UNL     1      47.341   4.109  16.108  0.00  0.00    +0.000 C 
ATOM     12  C   UNL     1      47.157   4.420  17.600  0.00  0.00    +0.000 C 
ATOM     13  O   UNL     1      47.769   3.169  17.990  0.00  0.00    +0.000 OA
ATOM     14  C   UNL     1      48.150   2.908  16.620  0.00  0.00    +0.000 C 
ENDBRANCH  10  11
ENDBRANCH   8  10
ENDBRANCH   1   4
BRANCH   1  15
ATOM     15  C   UNL     1      43.766   5.247  10.971  0.00  0.00    +0.000 C 
BRANCH  15  16
ATOM     16  N   UNL     1      43.566   4.067  10.110  0.00  0.00    +0.000 N 
ATOM     17  H   UNL     1      43.092   3.296  10.588  0.00  0.00    +0.000 HD
BRANCH  16  21
ATOM     18  C   UNL     1      46.604   2.574   7.570  0.00  0.00    +0.000 A 
ATOM     19  C   UNL     1      46.415   3.952   7.689  0.00  0.00    +0.000 A 
ATOM     20  C   UNL     1      45.432   4.462   8.548  0.00  0.00    +0.000 A 
ATOM     21  C   UNL     1      44.632   3.611   9.320  0.00  0.00    +0.000 A 
ATOM     22  C   UNL     1      44.835   2.228   9.165  0.00  0.00    +0.000 A 
ATOM     23  F   UNL     1      44.080   1.371   9.871  0.00  0.00    +0.000 F 
ATOM     24  C   UNL     1      45.810   1.705   8.316  0.00  0.00    +0.000 A 
BRANCH  18  26
ATOM     25  N   UNL     1      48.397   1.634   5.946  0.00  0.00    +0.000 NA
ATOM     26  C   UNL     1      47.599   2.056   6.675  0.00  0.00    +0.000 C 
ENDBRANCH  18  26
ENDBRANCH  16  21
ENDBRANCH  15  16
ENDBRANCH   1  15
TORSDOF 7
ENDMDL
MODEL 2
REMARK VINA RESULT:    -7.463      2.439      3.931
REMARK INTER + INTRA:         -11.598
REMARK INTER:                 -11.038
REMARK INTRA:                  -0.560
REMARK UNBOUND:                -1.082
REMARK  Name = 
REMARK  7 active torsions:
REMARK  status: ('A' for Active; 'I' for Inactive)
REMARK    1  A    between atoms: C_2  and  C_3
REMARK    2  A    between atoms: C_6  and  N_7
REMARK    3  A    between atoms: N_7  and  C_8
REMARK    4  A    between atoms: C_8  and  C_9
REMARK    5  A    between atoms: C_9  and  C_12
REMARK    6  A    between atoms: C_16  and  O_17
REMARK    7  A    between atoms: O_17  and  C_18
REMARK                            x       y       z     vdW  Elec       q    Type
REMARK                         _______ _______ _______ _____ _____    ______ ____
ROOT
ATOM      1  C   UNL     1      43.379   4.576  12.660  0.00  0.00    +0.000 C 
ATOM      2  F   UNL     1      42.391   5.459  12.331  0.00  0.00    +0.000 F 
ATOM      3  F   UNL     1      42.947   3.949  13.795  0.00  0.00    +0.000 F 
ENDROOT
BRANCH   1   4
ATOM      4  C   UNL     1      44.718   5.261  12.849  0.00  0.00    +0.000 A 
ATOM      5  C   UNL     1      45.772   4.609  13.503  0.00  0.00    +0.000 A 
ATOM      6  C   UNL     1      47.040   5.191  13.549  0.00  0.00    +0.000 A 
ATOM      7  C   UNL     1      47.267   6.435  12.954  0.00  0.00    +0.000 A 
ATOM      8  C   UNL     1      46.217   7.110  12.336  0.00  0.00    +0.000 A 
ATOM      9  C   UNL     1      44.951   6.524  12.281  0.00  0.00    +0.000 A 
BRANCH   8  10
ATOM     10  O   UNL     1      46.324   8.323  11.707  0.00  0.00    +0.000 OA
BRANCH  10  11
ATOM     11  C   UNL     1      45.719   9.482  12.322  0.00  0.00    +0.000 C 
ATOM     12  C   UNL     1      44.466  10.079  11.665  0.00  0.00    +0.000 C 
ATOM     13  O   UNL     1      45.093  11.375  11.525  0.00  0.00    +0.000 OA
ATOM     14  C   UNL     1      46.361  10.827  11.950  0.00  0.00    +0.000 C 
ENDBRANCH  10  11
ENDBRANCH   8  10
ENDBRANCH   1   4
BRANCH   1  15
ATOM     15  C   UNL     1      43.513   3.516  11.532  0.00  0.00    +0.000 C 
BRANCH  15  16
ATOM     16  N   UNL     1      43.676   4.098  10.187  0.00  0.00    +0.000 N 
ATOM     17  H   UNL     1      42.795   4.170   9.671  0.00  0.00    +0.000 HD
BRANCH  16  21
ATOM     18  C   UNL     1      46.644   2.624   7.554  0.00  0.00    +0.000 A 
ATOM     19  C   UNL     1      46.525   3.999   7.766  0.00  0.00    +0.000 A 
ATOM     20  C   UNL     1      45.566   4.500   8.657  0.00  0.00    +0.000 A 
ATOM     21  C   UNL     1      44.720   3.641   9.370  0.00  0.00    +0.000 A 
ATOM     22  C   UNL     1      44.853   2.263   9.121  0.00  0.00    +0.000 A 
ATOM     23  F   UNL     1      44.052   1.400   9.767  0.00  0.00    +0.000 F 
ATOM     24  C   UNL     1      45.803   1.749   8.240  0.00  0.00    +0.000 A 
BRANCH  18  26
ATOM     25  N   UNL     1      48.406   1.710   5.882  0.00  0.00    +0.000 NA
ATOM     26  C   UNL     1      47.614   2.117   6.627  0.00  0.00    +0.000 C 
ENDBRANCH  18  26
ENDBRANCH  16  21
ENDBRANCH  15  16
ENDBRANCH   1  15
TORSDOF 7
ENDMDL
MODEL 3
REMARK VINA RESULT:    -7.352      1.602      1.864
REMARK INTER + INTRA:         -11.442
REMARK INTER:                 -10.613
REMARK INTRA:                  -0.829
REMARK UNBOUND:                -1.082
REMARK  Name = 
REMARK  7 active torsions:
REMARK  status: ('A' for Active; 'I' for Inactive)
REMARK    1  A    between atoms: C_2  and  C_3
REMARK    2  A    between atoms: C_6  and  N_7
REMARK    3  A    between atoms: N_7  and  C_8
REMARK    4  A    between atoms: C_8  and  C_9
REMARK    5  A    between atoms: C_9  and  C_12
REMARK    6  A    between atoms: C_16  and  O_17
REMARK    7  A    between atoms: O_17  and  C_18
REMARK                            x       y       z     vdW  Elec       q    Type
REMARK                         _______ _______ _______ _____ _____    ______ ____
ROOT
ATOM      1  C   UNL     1      45.036   4.763  12.405  0.00  0.00    +0.000 C 
ATOM      2  F   UNL     1      44.312   4.825  13.559  0.00  0.00    +0.000 F 
ATOM      3  F   UNL     1      45.269   3.433  12.189  0.00  0.00    +0.000 F 
ENDROOT
BRANCH   1   4
ATOM      4  C   UNL     1      46.317   5.570  12.489  0.00  0.00    +0.000 A 
ATOM      5  C   UNL     1      46.623   6.535  11.520  0.00  0.00    +0.000 A 
ATOM      6  C   UNL     1      47.731   7.368  11.680  0.00  0.00    +0.000 A 
ATOM      7  C   UNL     1      48.553   7.239  12.802  0.00  0.00    +0.000 A 
ATOM      8  C   UNL     1      48.281   6.257  13.752  0.00  0.00    +0.000 A 
ATOM      9  C   UNL     1      47.168   5.430  13.597  0.00  0.00    +0.000 A 
BRANCH   8  10
ATOM     10  O   UNL     1      49.005   6.049  14.898  0.00  0.00    +0.000 OA
BRANCH  10  11
ATOM     11  C   UNL     1      49.336   7.185  15.728  0.00  0.00    +0.000 C 
ATOM     12  C   UNL     1      50.639   7.134  16.538  0.00  0.00    +0.000 C 
ATOM     13  O   UNL     1      49.934   7.342  17.784  0.00  0.00    +0.000 OA
ATOM     14  C   UNL     1      48.664   7.201  17.108  0.00  0.00    +0.000 C 
ENDBRANCH  10  11
ENDBRANCH   8  10
ENDBRANCH   1   4
BRANCH   1  15
ATOM     15  C   UNL     1      44.177   5.309  11.232  0.00  0.00    +0.000 C 
BRANCH  15  16
ATOM     16  N   UNL     1      43.816   4.287  10.233  0.00  0.00    +0.000 N 
ATOM     17  H   UNL     1      43.222   3.545  10.614  0.00  0.00    +0.000 HD
BRANCH  16  21
ATOM     18  C   UNL     1      46.638   2.627   7.551  0.00  0.00    +0.000 A 
ATOM     19  C   UNL     1      46.540   4.014   7.684  0.00  0.00    +0.000 A 
ATOM     20  C   UNL     1      45.630   4.577   8.589  0.00  0.00    +0.000 A 
ATOM     21  C   UNL     1      44.815   3.771   9.394  0.00  0.00    +0.000 A 
ATOM     22  C   UNL     1      44.926   2.379   9.225  0.00  0.00    +0.000 A 
ATOM     23  F   UNL     1      44.153   1.565   9.962  0.00  0.00    +0.000 F 
ATOM     24  C   UNL     1      45.828   1.804   8.331  0.00  0.00    +0.000 A 
BRANCH  18  26
ATOM     25  N   UNL     1      48.300   1.598   5.843  0.00  0.00    +0.000 NA
ATOM     26  C   UNL     1      47.558   2.055   6.610  0.00  0.00    +0.000 C 
ENDBRANCH  18  26
ENDBRANCH  16  21
ENDBRANCH  15  16
ENDBRANCH   1  15
TORSDOF 7
ENDMDL
MODEL 4
REMARK VINA RESULT:    -7.303      2.242      3.460
REMARK INTER + INTRA:         -11.373
REMARK INTER:                 -10.683
REMARK INTRA:                  -0.690
REMARK UNBOUND:                -1.082
REMARK  Name = 
REMARK  7 active torsions:
REMARK  status: ('A' for Active; 'I' for Inactive)
REMARK    1  A    between atoms: C_2  and  C_3
REMARK    2  A    between atoms: C_6  and  N_7
REMARK    3  A    between atoms: N_7  and  C_8
REMARK    4  A    between atoms: C_8  and  C_9
REMARK    5  A    between atoms: C_9  and  C_12
REMARK    6  A    between atoms: C_16  and  O_17
REMARK    7  A    between atoms: O_17  and  C_18
REMARK                            x       y       z     vdW  Elec       q    Type
REMARK                         _______ _______ _______ _____ _____    ______ ____
ROOT
ATOM      1  C   UNL     1      43.574   5.352  12.373  0.00  0.00    +0.000 C 
ATOM      2  F   UNL     1      43.017   6.365  11.648  0.00  0.00    +0.000 F 
ATOM      3  F   UNL     1      42.739   5.163  13.440  0.00  0.00    +0.000 F 
ENDROOT
BRANCH   1   4
ATOM      4  C   UNL     1      44.995   5.667  12.797  0.00  0.00    +0.000 A 
ATOM      5  C   UNL     1      45.703   4.798  13.637  0.00  0.00    +0.000 A 
ATOM      6  C   UNL     1      47.053   5.024  13.908  0.00  0.00    +0.000 A 
ATOM      7  C   UNL     1      47.708   6.128  13.355  0.00  0.00    +0.000 A 
ATOM      8  C   UNL     1      47.003   7.021  12.551  0.00  0.00    +0.000 A 
ATOM      9  C   UNL     1      45.656   6.790  12.272  0.00  0.00    +0.000 A 
BRANCH   8  10
ATOM     10  O   UNL     1      47.542   8.125  11.943  0.00  0.00    +0.000 OA
BRANCH  10  11
ATOM     11  C   UNL     1      48.875   8.543  12.313  0.00  0.00    +0.000 C 
ATOM     12  C   UNL     1      49.027   9.521  13.487  0.00  0.00    +0.000 C 
ATOM     13  O   UNL     1      49.734  10.479  12.665  0.00  0.00    +0.000 OA
ATOM     14  C   UNL     1      49.451   9.698  11.481  0.00  0.00    +0.000 C 
ENDBRANCH  10  11
ENDBRANCH   8  10
ENDBRANCH   1   4
BRANCH   1  15
ATOM     15  C   UNL     1      43.583   4.055  11.519  0.00  0.00    +0.000 C 
BRANCH  15  16
ATOM     16  N   UNL     1      43.605   4.301  10.066  0.00  0.00    +0.000 N 
ATOM     17  H   UNL     1      42.698   4.149   9.618  0.00  0.00    +0.000 HD
BRANCH  16  21
ATOM     18  C   UNL     1      46.593   2.587   7.606  0.00  0.00    +0.000 A 
ATOM     19  C   UNL     1      46.454   3.975   7.663  0.00  0.00    +0.000 A 
ATOM     20  C   UNL     1      45.488   4.558   8.495  0.00  0.00    +0.000 A 
ATOM     21  C   UNL     1      44.656   3.772   9.301  0.00  0.00    +0.000 A 
ATOM     22  C   UNL     1      44.809   2.377   9.208  0.00  0.00    +0.000 A 
ATOM     23  F   UNL     1      44.022   1.580   9.949  0.00  0.00    +0.000 F 
ATOM     24  C   UNL     1      45.767   1.782   8.388  0.00  0.00    +0.000 A 
BRANCH  18  26
ATOM     25  N   UNL     1      48.367   1.515   6.044  0.00  0.00    +0.000 NA
ATOM     26  C   UNL     1      47.570   1.993   6.739  0.00  0.00    +0.000 C 
ENDBRANCH  18  26
ENDBRANCH  16  21
ENDBRANCH  15  16
ENDBRANCH   1  15
TORSDOF 7
ENDMDL
MODEL 5
REMARK VINA RESULT:    -6.865      3.635      7.517
REMARK INTER + INTRA:         -10.756
REMARK INTER:                  -9.838
REMARK INTRA:                  -0.918
REMARK UNBOUND:                -1.082
REMARK  Name = 
REMARK  7 active torsions:
REMARK  status: ('A' for Active; 'I' for Inactive)
REMARK    1  A    between atoms: C_2  and  C_3
REMARK    2  A    between atoms: C_6  and  N_7
REMARK    3  A    between atoms: N_7  and  C_8
REMARK    4  A    between atoms: C_8  and  C_9
REMARK    5  A    between atoms: C_9  and  C_12
REMARK    6  A    between atoms: C_16  and  O_17
REMARK    7  A    between atoms: O_17  and  C_18
REMARK                            x       y       z     vdW  Elec       q    Type
REMARK                         _______ _______ _______ _____ _____    ______ ____
ROOT
ATOM      1  C   UNL     1      45.000   6.468  11.630  0.00  0.00    +0.000 C 
ATOM      2  F   UNL     1      44.393   6.325  12.843  0.00  0.00    +0.000 F 
ATOM      3  F   UNL     1      44.334   7.485  11.004  0.00  0.00    +0.000 F 
ENDROOT
BRANCH   1   4
ATOM      4  C   UNL     1      44.982   5.182  10.827  0.00  0.00    +0.000 A 
ATOM      5  C   UNL     1      44.252   4.070  11.268  0.00  0.00    +0.000 A 
ATOM      6  C   UNL     1      44.128   2.942  10.456  0.00  0.00    +0.000 A 
ATOM      7  C   UNL     1      44.743   2.905   9.202  0.00  0.00    +0.000 A 
ATOM      8  C   UNL     1      45.504   3.989   8.770  0.00  0.00    +0.000 A 
ATOM      9  C   UNL     1      45.620   5.121   9.577  0.00  0.00    +0.000 A 
BRANCH   8  10
ATOM     10  O   UNL     1      46.137   4.071   7.557  0.00  0.00    +0.000 OA
BRANCH  10  11
ATOM     11  C   UNL     1      46.307   2.867   6.777  0.00  0.00    +0.000 C 
ATOM     12  C   UNL     1      47.372   1.858   7.226  0.00  0.00    +0.000 C 
ATOM     13  O   UNL     1      48.046   1.920   5.947  0.00  0.00    +0.000 OA
ATOM     14  C   UNL     1      47.197   3.016   5.534  0.00  0.00    +0.000 C 
ENDBRANCH  10  11
ENDBRANCH   8  10
ENDBRANCH   1   4
BRANCH   1  15
ATOM     15  C   UNL     1      46.475   6.904  11.844  0.00  0.00    +0.000 C 
BRANCH  15  16
ATOM     16  N   UNL     1      47.349   5.823  12.333  0.00  0.00    +0.000 N 
ATOM     17  H   UNL     1      47.174   4.926  11.872  0.00  0.00    +0.000 HD
BRANCH  16  21
ATOM     18  C   UNL     1      48.049   5.139  16.451  0.00  0.00    +0.000 A 
ATOM     19  C   UNL     1      48.568   6.282  15.839  0.00  0.00    +0.000 A 
ATOM     20  C   UNL     1      48.321   6.536  14.484  0.00  0.00    +0.000 A 
ATOM     21  C   UNL     1      47.534   5.669  13.715  0.00  0.00    +0.000 A 
ATOM     22  C   UNL     1      47.040   4.518  14.356  0.00  0.00    +0.000 A 
ATOM     23  F   UNL     1      46.296   3.647  13.656  0.00  0.00    +0.000 F 
ATOM     24  C   UNL     1      47.276   4.253  15.704  0.00  0.00    +0.000 A 
BRANCH  18  26
ATOM     25  N   UNL     1      48.540   4.667  18.955  0.00  0.00    +0.000 NA
ATOM     26  C   UNL     1      48.320   4.873  17.834  0.00  0.00    +0.000 C 
ENDBRANCH  18  26
ENDBRANCH  16  21
ENDBRANCH  15  16
ENDBRANCH   1  15
TORSDOF 7
ENDMDL
MODEL 6
REMARK VINA RESULT:    -6.577      2.597      3.481
REMARK INTER + INTRA:         -10.350
REMARK INTER:                  -9.658
REMARK INTRA:                  -0.692
REMARK UNBOUND:                -1.082
REMARK  Name = 
REMARK  7 active torsions:
REMARK  status: ('A' for Active; 'I' for Inactive)
REMARK    1  A    between atoms: C_2  and  C_3
REMARK    2  A    between atoms: C_6  and  N_7
REMARK    3  A    between atoms: N_7  and  C_8
REMARK    4  A    between atoms: C_8  and  C_9
REMARK    5  A    between atoms: C_9  and  C_12
REMARK    6  A    between atoms: C_16  and  O_17
REMARK    7  A    between atoms: O_17  and  C_18
REMARK                            x       y       z     vdW  Elec       q    Type
REMARK                         _______ _______ _______ _____ _____    ______ ____
ROOT
ATOM      1  C   UNL     1      44.863   5.783  12.185  0.00  0.00    +0.000 C 
ATOM      2  F   UNL     1      44.091   5.611  13.297  0.00  0.00    +0.000 F 
ATOM      3  F   UNL     1      45.664   4.677  12.120  0.00  0.00    +0.000 F 
ENDROOT
BRANCH   1   4
ATOM      4  C   UNL     1      45.657   7.073  12.234  0.00  0.00    +0.000 A 
ATOM      5  C   UNL     1      45.063   8.296  11.894  0.00  0.00    +0.000 A 
ATOM      6  C   UNL     1      45.759   9.492  12.076  0.00  0.00    +0.000 A 
ATOM      7  C   UNL     1      47.060   9.481  12.586  0.00  0.00    +0.000 A 
ATOM      8  C   UNL     1      47.675   8.268  12.890  0.00  0.00    +0.000 A 
ATOM      9  C   UNL     1      46.976   7.073  12.717  0.00  0.00    +0.000 A 
BRANCH   8  10
ATOM     10  O   UNL     1      48.936   8.135  13.409  0.00  0.00    +0.000 OA
BRANCH  10  11
ATOM     11  C   UNL     1      50.024   8.856  12.790  0.00  0.00    +0.000 C 
ATOM     12  C   UNL     1      50.567   8.338  11.451  0.00  0.00    +0.000 C 
ATOM     13  O   UNL     1      51.907   8.213  11.983  0.00  0.00    +0.000 OA
ATOM     14  C   UNL     1      51.423   8.502  13.315  0.00  0.00    +0.000 C 
ENDBRANCH  10  11
ENDBRANCH   8  10
ENDBRANCH   1   4
BRANCH   1  15
ATOM     15  C   UNL     1      43.950   5.805  10.928  0.00  0.00    +0.000 C 
BRANCH  15  16
ATOM     16  N   UNL     1      43.709   4.472  10.346  0.00  0.00    +0.000 N 
ATOM     17  H   UNL     1      43.340   3.799  11.023  0.00  0.00    +0.000 HD
BRANCH  16  21
ATOM     18  C   UNL     1      46.479   2.631   7.729  0.00  0.00    +0.000 A 
ATOM     19  C   UNL     1      46.401   4.025   7.789  0.00  0.00    +0.000 A 
ATOM     20  C   UNL     1      45.509   4.649   8.671  0.00  0.00    +0.000 A 
ATOM     21  C   UNL     1      44.692   3.899   9.526  0.00  0.00    +0.000 A 
ATOM     22  C   UNL     1      44.781   2.498   9.430  0.00  0.00    +0.000 A 
ATOM     23  F   UNL     1      44.005   1.736  10.217  0.00  0.00    +0.000 F 
ATOM     24  C   UNL     1      45.666   1.863   8.559  0.00  0.00    +0.000 A 
BRANCH  18  26
ATOM     25  N   UNL     1      48.111   1.476   6.074  0.00  0.00    +0.000 NA
ATOM     26  C   UNL     1      47.381   1.997   6.811  0.00  0.00    +0.000 C 
ENDBRANCH  18  26
ENDBRANCH  16  21
ENDBRANCH  15  16
ENDBRANCH   1  15
TORSDOF 7
ENDMDL
MODEL 7
REMARK VINA RESULT:    -6.272      4.235      7.198
REMARK INTER + INTRA:          -9.921
REMARK INTER:                  -9.249
REMARK INTRA:                  -0.672
REMARK UNBOUND:                -1.082
REMARK  Name = 
REMARK  7 active torsions:
REMARK  status: ('A' for Active; 'I' for Inactive)
REMARK    1  A    between atoms: C_2  and  C_3
REMARK    2  A    between atoms: C_6  and  N_7
REMARK    3  A    between atoms: N_7  and  C_8
REMARK    4  A    between atoms: C_8  and  C_9
REMARK    5  A    between atoms: C_9  and  C_12
REMARK    6  A    between atoms: C_16  and  O_17
REMARK    7  A    between atoms: O_17  and  C_18
REMARK                            x       y       z     vdW  Elec       q    Type
REMARK                         _______ _______ _______ _____ _____    ______ ____
ROOT
ATOM      1  C   UNL     1      44.317   5.987  11.534  0.00  0.00    +0.000 C 
ATOM      2  F   UNL     1      44.342   5.754  12.878  0.00  0.00    +0.000 F 
ATOM      3  F   UNL     1      43.096   6.550  11.283  0.00  0.00    +0.000 F 
ENDROOT
BRANCH   1   4
ATOM      4  C   UNL     1      44.549   4.722  10.730  0.00  0.00    +0.000 A 
ATOM      5  C   UNL     1      43.965   3.509  11.117  0.00  0.00    +0.000 A 
ATOM      6  C   UNL     1      44.070   2.384  10.297  0.00  0.00    +0.000 A 
ATOM      7  C   UNL     1      44.769   2.454   9.089  0.00  0.00    +0.000 A 
ATOM      8  C   UNL     1      45.388   3.645   8.714  0.00  0.00    +0.000 A 
ATOM      9  C   UNL     1      45.275   4.772   9.529  0.00  0.00    +0.000 A 
BRANCH   8  10
ATOM     10  O   UNL     1      46.084   3.837   7.549  0.00  0.00    +0.000 OA
BRANCH  10  11
ATOM     11  C   UNL     1      46.368   2.694   6.712  0.00  0.00    +0.000 C 
ATOM     12  C   UNL     1      47.506   1.753   7.133  0.00  0.00    +0.000 C 
ATOM     13  O   UNL     1      48.195   1.938   5.875  0.00  0.00    +0.000 OA
ATOM     14  C   UNL     1      47.266   2.981   5.500  0.00  0.00    +0.000 C 
ENDBRANCH  10  11
ENDBRANCH   8  10
ENDBRANCH   1   4
BRANCH   1  15
ATOM     15  C   UNL     1      45.420   7.019  11.173  0.00  0.00    +0.000 C 
BRANCH  15  16
ATOM     16  N   UNL     1      46.077   7.621  12.347  0.00  0.00    +0.000 N 
ATOM     17  H   UNL     1      45.501   8.327  12.813  0.00  0.00    +0.000 HD
BRANCH  16  21
ATOM     18  C   UNL     1      50.138   8.693  11.825  0.00  0.00    +0.000 A 
ATOM     19  C   UNL     1      49.140   9.659  11.673  0.00  0.00    +0.000 A 
ATOM     20  C   UNL     1      47.794   9.325  11.870  0.00  0.00    +0.000 A 
ATOM     21  C   UNL     1      47.415   8.029  12.244  0.00  0.00    +0.000 A 
ATOM     22  C   UNL     1      48.442   7.076  12.373  0.00  0.00    +0.000 A 
ATOM     23  F   UNL     1      48.127   5.816  12.712  0.00  0.00    +0.000 F 
ATOM     24  C   UNL     1      49.786   7.393  12.182  0.00  0.00    +0.000 A 
BRANCH  18  26
ATOM     25  N   UNL     1      52.625   9.312  11.416  0.00  0.00    +0.000 NA
ATOM     26  C   UNL     1      51.514   9.035  11.604  0.00  0.00    +0.000 C 
ENDBRANCH  18  26
ENDBRANCH  16  21
ENDBRANCH  15  16
ENDBRANCH   1  15
TORSDOF 7
ENDMDL
MODEL 8
REMARK VINA RESULT:    -6.055      4.267      7.953
REMARK INTER + INTRA:          -9.615
REMARK INTER:                  -8.812
REMARK INTRA:                  -0.803
REMARK UNBOUND:                -1.082
REMARK  Name = 
REMARK  7 active torsions:
REMARK  status: ('A' for Active; 'I' for Inactive)
REMARK    1  A    between atoms: C_2  and  C_3
REMARK    2  A    between atoms: C_6  and  N_7
REMARK    3  A    between atoms: N_7  and  C_8
REMARK    4  A    between atoms: C_8  and  C_9
REMARK    5  A    between atoms: C_9  and  C_12
REMARK    6  A    between atoms: C_16  and  O_17
REMARK    7  A    between atoms: O_17  and  C_18
REMARK                            x       y       z     vdW  Elec       q    Type
REMARK                         _______ _______ _______ _____ _____    ______ ____
ROOT
ATOM      1  C   UNL     1      46.555   5.372  13.284  0.00  0.00    +0.000 C 
ATOM      2  F   UNL     1      46.474   6.518  14.020  0.00  0.00    +0.000 F 
ATOM      3  F   UNL     1      47.584   5.572  12.407  0.00  0.00    +0.000 F 
ENDROOT
BRANCH   1   4
ATOM      4  C   UNL     1      45.249   5.048  12.584  0.00  0.00    +0.000 A 
ATOM      5  C   UNL     1      44.039   5.591  13.036  0.00  0.00    +0.000 A 
ATOM      6  C   UNL     1      42.866   5.401  12.304  0.00  0.00    +0.000 A 
ATOM      7  C   UNL     1      42.884   4.657  11.122  0.00  0.00    +0.000 A 
ATOM      8  C   UNL     1      44.075   4.080  10.684  0.00  0.00    +0.000 A 
ATOM      9  C   UNL     1      45.250   4.277  11.410  0.00  0.00    +0.000 A 
BRANCH   8  10
ATOM     10  O   UNL     1      44.217   3.347   9.535  0.00  0.00    +0.000 OA
BRANCH  10  11
ATOM     11  C   UNL     1      45.547   3.090   9.033  0.00  0.00    +0.000 C 
ATOM     12  C   UNL     1      45.885   3.552   7.608  0.00  0.00    +0.000 C 
ATOM     13  O   UNL     1      46.254   2.213   7.205  0.00  0.00    +0.000 OA
ATOM     14  C   UNL     1      45.767   1.683   8.459  0.00  0.00    +0.000 C 
ENDBRANCH  10  11
ENDBRANCH   8  10
ENDBRANCH   1   4
BRANCH   1  15
ATOM     15  C   UNL     1      46.928   4.189  14.219  0.00  0.00    +0.000 C 
BRANCH  15  16
ATOM     16  N   UNL     1      46.797   4.502  15.654  0.00  0.00    +0.000 N 
ATOM     17  H   UNL     1      46.182   5.299  15.837  0.00  0.00    +0.000 HD
BRANCH  16  21
ATOM     18  C   UNL     1      50.393   4.459  17.886  0.00  0.00    +0.000 A 
ATOM     19  C   UNL     1      49.973   5.639  17.269  0.00  0.00    +0.000 A 
ATOM     20  C   UNL     1      48.771   5.676  16.551  0.00  0.00    +0.000 A 
ATOM     21  C   UNL     1      47.952   4.544  16.449  0.00  0.00    +0.000 A 
ATOM     22  C   UNL     1      48.411   3.367  17.067  0.00  0.00    +0.000 A 
ATOM     23  F   UNL     1      47.669   2.250  16.982  0.00  0.00    +0.000 F 
ATOM     24  C   UNL     1      49.604   3.315  17.787  0.00  0.00    +0.000 A 
BRANCH  18  26
ATOM     25  N   UNL     1      52.637   4.398  19.189  0.00  0.00    +0.000 NA
ATOM     26  C   UNL     1      51.634   4.421  18.605  0.00  0.00    +0.000 C 
ENDBRANCH  18  26
ENDBRANCH  16  21
ENDBRANCH  15  16
ENDBRANCH   1  15
TORSDOF 7
ENDMDL
MODEL 9
REMARK VINA RESULT:    -6.041      2.670      4.014
REMARK INTER + INTRA:          -9.595
REMARK INTER:                  -8.628
REMARK INTRA:                  -0.967
REMARK UNBOUND:                -1.082
REMARK  Name = 
REMARK  7 active torsions:
REMARK  status: ('A' for Active; 'I' for Inactive)
REMARK    1  A    between atoms: C_2  and  C_3
REMARK    2  A    between atoms: C_6  and  N_7
REMARK    3  A    between atoms: N_7  and  C_8
REMARK    4  A    between atoms: C_8  and  C_9
REMARK    5  A    between atoms: C_9  and  C_12
REMARK    6  A    between atoms: C_16  and  O_17
REMARK    7  A    between atoms: O_17  and  C_18
REMARK                            x       y       z     vdW  Elec       q    Type
REMARK                         _______ _______ _______ _____ _____    ______ ____
ROOT
ATOM      1  C   UNL     1      47.791   8.059  12.813  0.00  0.00    +0.000 C 
ATOM      2  F   UNL     1      48.132   6.980  12.051  0.00  0.00    +0.000 F 
ATOM      3  F   UNL     1      48.354   9.139  12.192  0.00  0.00    +0.000 F 
ENDROOT
BRANCH   1   4
ATOM      4  C   UNL     1      48.251   7.911  14.251  0.00  0.00    +0.000 A 
ATOM      5  C   UNL     1      48.168   8.987  15.145  0.00  0.00    +0.000 A 
ATOM      6  C   UNL     1      48.461   8.803  16.497  0.00  0.00    +0.000 A 
ATOM      7  C   UNL     1      48.852   7.547  16.969  0.00  0.00    +0.000 A 
ATOM      8  C   UNL     1      48.976   6.480  16.082  0.00  0.00    +0.000 A 
ATOM      9  C   UNL     1      48.674   6.661  14.732  0.00  0.00    +0.000 A 
BRANCH   8  10
ATOM     10  O   UNL     1      49.334   5.204  16.432  0.00  0.00    +0.000 OA
BRANCH  10  11
ATOM     11  C   UNL     1      48.550   4.509  17.427  0.00  0.00    +0.000 C 
ATOM     12  C   UNL     1      48.556   2.974  17.411  0.00  0.00    +0.000 C 
ATOM     13  O   UNL     1      47.116   2.917  17.280  0.00  0.00    +0.000 OA
ATOM     14  C   UNL     1      47.061   4.349  17.089  0.00  0.00    +0.000 C 
ENDBRANCH  10  11
ENDBRANCH   8  10
ENDBRANCH   1   4
BRANCH   1  15
ATOM     15  C   UNL     1      46.248   8.230  12.796  0.00  0.00    +0.000 C 
BRANCH  15  16
ATOM     16  N   UNL     1      45.511   7.019  13.200  0.00  0.00    +0.000 N 
ATOM     17  H   UNL     1      45.748   6.700  14.143  0.00  0.00    +0.000 HD
BRANCH  16  21
ATOM     18  C   UNL     1      44.998   3.715  10.605  0.00  0.00    +0.000 A 
ATOM     19  C   UNL     1      44.952   5.014  10.092  0.00  0.00    +0.000 A 
ATOM     20  C   UNL     1      45.148   6.116  10.934  0.00  0.00    +0.000 A 
ATOM     21  C   UNL     1      45.415   5.948  12.299  0.00  0.00    +0.000 A 
ATOM     22  C   UNL     1      45.439   4.629  12.787  0.00  0.00    +0.000 A 
ATOM     23  F   UNL     1      45.673   4.417  14.092  0.00  0.00    +0.000 F 
ATOM     24  C   UNL     1      45.247   3.522  11.962  0.00  0.00    +0.000 A 
BRANCH  18  26
ATOM     25  N   UNL     1      44.608   1.677   9.046  0.00  0.00    +0.000 NA
ATOM     26  C   UNL     1      44.778   2.590   9.742  0.00  0.00    +0.000 C 
ENDBRANCH  18  26
ENDBRANCH  16  21
ENDBRANCH  15  16
ENDBRANCH   1  15
TORSDOF 7
ENDMDL
