MODEL 1
REMARK VINA RESULT:    -9.387      0.000      0.000
REMARK INTER + INTRA:         -14.462
REMARK INTER:                 -13.228
REMARK INTRA:                  -1.234
REMARK UNBOUND:                -1.234
REMARK  Name = 
REMARK  7 active torsions:
REMARK  status: ('A' for Active; 'I' for Inactive)
REMARK    1  A    between atoms: C_2  and  C_4
REMARK    2  A    between atoms: C_7  and  N_8
REMARK    3  A    between atoms: N_8  and  C_9
REMARK    4  A    between atoms: C_9  and  C_10
REMARK    5  A    between atoms: C_10  and  C_13
REMARK    6  A    between atoms: C_17  and  C_18
REMARK    7  A    between atoms: C_22  and  C_23
REMARK                            x       y       z     vdW  Elec       q    Type
REMARK                         _______ _______ _______ _____ _____    ______ ____
ROOT
ATOM      1  C   UNL     1      43.278   4.879  12.285  0.00  0.00    +0.000 C 
ATOM      2  F   UNL     1      42.356   5.760  11.802  0.00  0.00    +0.000 F 
ATOM      3  F   UNL     1      42.806   4.486  13.507  0.00  0.00    +0.000 F 
ENDROOT
BRANCH   1   4
ATOM      4  C   UNL     1      44.665   5.497  12.367  0.00  0.00    +0.000 A 
ATOM      5  C   UNL     1      45.083   6.454  11.437  0.00  0.00    +0.000 A 
ATOM      6  C   UNL     1      46.327   7.067  11.576  0.00  0.00    +0.000 A 
ATOM      7  C   UNL     1      47.158   6.738  12.651  0.00  0.00    +0.000 A 
ATOM      8  C   UNL     1      46.765   5.796  13.618  0.00  0.00    +0.000 A 
ATOM      9  C   UNL     1      45.514   5.174  13.442  0.00  0.00    +0.000 A 
BRANCH   8  10
ATOM     10  C   UNL     1      47.606   5.499  14.796  0.00  0.00    +0.000 A 
ATOM     11  C   UNL     1      48.585   6.384  15.252  0.00  0.00    +0.000 A 
ATOM     12  N   UNL     1      49.366   6.192  16.345  0.00  0.00    +0.000 NA
ATOM     13  C   UNL     1      49.165   5.057  17.045  0.00  0.00    +0.000 A 
ATOM     14  C   UNL     1      48.226   4.099  16.702  0.00  0.00    +0.000 A 
ATOM     15  C   UNL     1      47.449   4.329  15.556  0.00  0.00    +0.000 A 
BRANCH  14  16
ATOM     16  C   UNL     1      48.041   2.869  17.534  0.00  0.00    +0.000 C 
ATOM     17  F   UNL     1      46.738   2.514  17.704  0.00  0.00    +0.000 F 
ATOM     18  F   UNL     1      48.654   1.780  16.990  0.00  0.00    +0.000 F 
ATOM     19  F   UNL     1      48.558   3.002  18.784  0.00  0.00    +0.000 F 
ENDBRANCH  14  16
ENDBRANCH   8  10
ENDBRANCH   1   4
BRANCH   1  20
ATOM     20  C   UNL     1      43.341   3.639  11.359  0.00  0.00    +0.000 C 
BRANCH  20  21
ATOM     21  N   UNL     1      43.399   3.939   9.917  0.00  0.00    +0.000 N 
ATOM     22  H   UNL     1      42.517   3.817   9.421  0.00  0.00    +0.000 HD
BRANCH  21  26
ATOM     23  C   UNL     1      46.636   2.565   7.573  0.00  0.00    +0.000 A 
ATOM     24  C   UNL     1      46.326   3.924   7.594  0.00  0.00    +0.000 A 
ATOM     25  C   UNL     1      45.270   4.388   8.380  0.00  0.00    +0.000 A 
ATOM     26  C   UNL     1      44.514   3.522   9.183  0.00  0.00    +0.000 A 
ATOM     27  C   UNL     1      44.821   2.155   9.129  0.00  0.00    +0.000 A 
ATOM     28  C   UNL     1      45.867   1.675   8.328  0.00  0.00    +0.000 A 
BRANCH  23  30
ATOM     29  N   UNL     1      48.186   2.861   5.722  0.00  0.00    +0.000 N 
ATOM     30  C   UNL     1      47.737   2.043   6.725  0.00  0.00    +0.000 C 
ATOM     31  O   UNL     1      48.243   0.947   6.923  0.00  0.00    +0.000 OA
ATOM     32  H   UNL     1      48.993   2.540   5.204  0.00  0.00    +0.000 HD
ATOM     33  H   UNL     1      47.964   3.845   5.686  0.00  0.00    +0.000 HD
ENDBRANCH  23  30
ENDBRANCH  21  26
ENDBRANCH  20  21
ENDBRANCH   1  20
TORSDOF 7
ENDMDL
MODEL 2
REMARK VINA RESULT:    -8.799      1.546      1.940
REMARK INTER + INTRA:         -13.634
REMARK INTER:                 -12.431
REMARK INTRA:                  -1.203
REMARK UNBOUND:                -1.234
REMARK  Name = 
REMARK  7 active torsions:
REMARK  status: ('A' for Active; 'I' for Inactive)
REMARK    1  A    between atoms: C_2  and  C_4
REMARK    2  A    between atoms: C_7  and  N_8
REMARK    3  A    between atoms: N_8  and  C_9
REMARK    4  A    between atoms: C_9  and  C_10
REMARK    5  A    between atoms: C_10  and  C_13
REMARK    6  A    between atoms: C_17  and  C_18
REMARK    7  A    between atoms: C_22  and  C_23
REMARK                            x       y       z     vdW  Elec       q    Type
REMARK                         _______ _______ _______ _____ _____    ______ ____
ROOT
ATOM      1  C   UNL     1      43.933   5.135  12.291  0.00  0.00    +0.000 C 
ATOM      2  F   UNL     1      43.571   5.966  11.271  0.00  0.00    +0.000 F 
ATOM      3  F   UNL     1      42.991   5.317  13.265  0.00  0.00    +0.000 F 
ENDROOT
BRANCH   1   4
ATOM      4  C   UNL     1      45.343   5.423  12.782  0.00  0.00    +0.000 A 
ATOM      5  C   UNL     1      46.136   6.397  12.167  0.00  0.00    +0.000 A 
ATOM      6  C   UNL     1      47.395   6.702  12.682  0.00  0.00    +0.000 A 
ATOM      7  C   UNL     1      47.866   6.045  13.822  0.00  0.00    +0.000 A 
ATOM      8  C   UNL     1      47.092   5.075  14.481  0.00  0.00    +0.000 A 
ATOM      9  C   UNL     1      45.834   4.768  13.928  0.00  0.00    +0.000 A 
BRANCH   8  10
ATOM     10  C   UNL     1      47.553   4.431  15.729  0.00  0.00    +0.000 A 
ATOM     11  C   UNL     1      47.981   3.102  15.765  0.00  0.00    +0.000 A 
ATOM     12  N   UNL     1      48.450   2.461  16.864  0.00  0.00    +0.000 NA
ATOM     13  C   UNL     1      48.513   3.176  18.006  0.00  0.00    +0.000 A 
ATOM     14  C   UNL     1      48.121   4.499  18.105  0.00  0.00    +0.000 A 
ATOM     15  C   UNL     1      47.628   5.122  16.948  0.00  0.00    +0.000 A 
BRANCH  14  16
ATOM     16  C   UNL     1      48.235   5.241  19.400  0.00  0.00    +0.000 C 
ATOM     17  F   UNL     1      48.448   4.436  20.477  0.00  0.00    +0.000 F 
ATOM     18  F   UNL     1      49.265   6.135  19.395  0.00  0.00    +0.000 F 
ATOM     19  F   UNL     1      47.119   5.963  19.687  0.00  0.00    +0.000 F 
ENDBRANCH  14  16
ENDBRANCH   8  10
ENDBRANCH   1   4
BRANCH   1  20
ATOM     20  C   UNL     1      43.866   3.666  11.808  0.00  0.00    +0.000 C 
BRANCH  20  21
ATOM     21  N   UNL     1      43.542   3.492  10.380  0.00  0.00    +0.000 N 
ATOM     22  H   UNL     1      42.708   2.936  10.197  0.00  0.00    +0.000 HD
BRANCH  21  26
ATOM     23  C   UNL     1      46.541   2.661   7.520  0.00  0.00    +0.000 A 
ATOM     24  C   UNL     1      46.132   3.977   7.730  0.00  0.00    +0.000 A 
ATOM     25  C   UNL     1      45.154   4.262   8.685  0.00  0.00    +0.000 A 
ATOM     26  C   UNL     1      44.580   3.255   9.473  0.00  0.00    +0.000 A 
ATOM     27  C   UNL     1      44.982   1.934   9.231  0.00  0.00    +0.000 A 
ATOM     28  C   UNL     1      45.949   1.634   8.261  0.00  0.00    +0.000 A 
BRANCH  23  30
ATOM     29  N   UNL     1      47.539   3.072   5.341  0.00  0.00    +0.000 N 
ATOM     30  C   UNL     1      47.558   2.329   6.491  0.00  0.00    +0.000 C 
ATOM     31  O   UNL     1      48.394   1.453   6.666  0.00  0.00    +0.000 OA
ATOM     32  H   UNL     1      48.287   2.903   4.681  0.00  0.00    +0.000 HD
ATOM     33  H   UNL     1      47.033   3.943   5.267  0.00  0.00    +0.000 HD
ENDBRANCH  23  30
ENDBRANCH  21  26
ENDBRANCH  20  21
ENDBRANCH   1  20
TORSDOF 7
ENDMDL
MODEL 3
REMARK VINA RESULT:    -8.777      1.181      1.541
REMARK INTER + INTRA:         -13.603
REMARK INTER:                 -12.301
REMARK INTRA:                  -1.302
REMARK UNBOUND:                -1.234
REMARK  Name = 
REMARK  7 active torsions:
REMARK  status: ('A' for Active; 'I' for Inactive)
REMARK    1  A    between atoms: C_2  and  C_4
REMARK    2  A    between atoms: C_7  and  N_8
REMARK    3  A    between atoms: N_8  and  C_9
REMARK    4  A    between atoms: C_9  and  C_10
REMARK    5  A    between atoms: C_10  and  C_13
REMARK    6  A    between atoms: C_17  and  C_18
REMARK    7  A    between atoms: C_22  and  C_23
REMARK                            x       y       z     vdW  Elec       q    Type
REMARK                         _______ _______ _______ _____ _____    ______ ____
ROOT
ATOM      1  C   UNL     1      44.824   4.320  12.503  0.00  0.00    +0.000 C 
ATOM      2  F   UNL     1      44.044   4.345  13.623  0.00  0.00    +0.000 F 
ATOM      3  F   UNL     1      45.215   3.018  12.357  0.00  0.00    +0.000 F 
ENDROOT
BRANCH   1   4
ATOM      4  C   UNL     1      46.003   5.275  12.612  0.00  0.00    +0.000 A 
ATOM      5  C   UNL     1      46.265   6.213  11.608  0.00  0.00    +0.000 A 
ATOM      6  C   UNL     1      47.301   7.131  11.765  0.00  0.00    +0.000 A 
ATOM      7  C   UNL     1      48.076   7.128  12.928  0.00  0.00    +0.000 A 
ATOM      8  C   UNL     1      47.831   6.214  13.967  0.00  0.00    +0.000 A 
ATOM      9  C   UNL     1      46.794   5.282  13.776  0.00  0.00    +0.000 A 
BRANCH   8  10
ATOM     10  C   UNL     1      48.598   6.254  15.230  0.00  0.00    +0.000 A 
ATOM     11  C   UNL     1      49.589   7.210  15.468  0.00  0.00    +0.000 A 
ATOM     12  N   UNL     1      50.303   7.326  16.615  0.00  0.00    +0.000 NA
ATOM     13  C   UNL     1      50.021   6.450  17.601  0.00  0.00    +0.000 A 
ATOM     14  C   UNL     1      49.063   5.457  17.494  0.00  0.00    +0.000 A 
ATOM     15  C   UNL     1      48.355   5.362  16.285  0.00  0.00    +0.000 A 
BRANCH  14  16
ATOM     16  C   UNL     1      48.785   4.529  18.634  0.00  0.00    +0.000 C 
ATOM     17  F   UNL     1      48.075   3.423  18.280  0.00  0.00    +0.000 F 
ATOM     18  F   UNL     1      49.929   4.065  19.214  0.00  0.00    +0.000 F 
ATOM     19  F   UNL     1      48.078   5.124  19.631  0.00  0.00    +0.000 F 
ENDBRANCH  14  16
ENDBRANCH   8  10
ENDBRANCH   1   4
BRANCH   1  20
ATOM     20  C   UNL     1      43.973   4.720  11.273  0.00  0.00    +0.000 C 
BRANCH  20  21
ATOM     21  N   UNL     1      43.759   3.645  10.287  0.00  0.00    +0.000 N 
ATOM     22  H   UNL     1      43.303   2.811  10.657  0.00  0.00    +0.000 HD
BRANCH  21  26
ATOM     23  C   UNL     1      46.665   2.674   7.377  0.00  0.00    +0.000 A 
ATOM     24  C   UNL     1      46.260   3.999   7.533  0.00  0.00    +0.000 A 
ATOM     25  C   UNL     1      45.314   4.330   8.504  0.00  0.00    +0.000 A 
ATOM     26  C   UNL     1      44.767   3.364   9.360  0.00  0.00    +0.000 A 
ATOM     27  C   UNL     1      45.164   2.032   9.171  0.00  0.00    +0.000 A 
ATOM     28  C   UNL     1      46.100   1.684   8.186  0.00  0.00    +0.000 A 
BRANCH  23  30
ATOM     29  N   UNL     1      47.742   3.112   5.241  0.00  0.00    +0.000 N 
ATOM     30  C   UNL     1      47.650   2.292   6.333  0.00  0.00    +0.000 C 
ATOM     31  O   UNL     1      48.367   1.308   6.449  0.00  0.00    +0.000 OA
ATOM     32  H   UNL     1      48.474   2.898   4.575  0.00  0.00    +0.000 HD
ATOM     33  H   UNL     1      47.350   4.043   5.227  0.00  0.00    +0.000 HD
ENDBRANCH  23  30
ENDBRANCH  21  26
ENDBRANCH  20  21
ENDBRANCH   1  20
TORSDOF 7
ENDMDL
MODEL 4
REMARK VINA RESULT:    -8.621      3.581      4.626
REMARK INTER + INTRA:         -13.384
REMARK INTER:                 -12.140
REMARK INTRA:                  -1.244
REMARK UNBOUND:                -1.234
REMARK  Name = 
REMARK  7 active torsions:
REMARK  status: ('A' for Active; 'I' for Inactive)
REMARK    1  A    between atoms: C_2  and  C_4
REMARK    2  A    between atoms: C_7  and  N_8
REMARK    3  A    between atoms: N_8  and  C_9
REMARK    4  A    between atoms: C_9  and  C_10
REMARK    5  A    between atoms: C_10  and  C_13
REMARK    6  A    between atoms: C_17  and  C_18
REMARK    7  A    between atoms: C_22  and  C_23
REMARK                            x       y       z     vdW  Elec       q    Type
REMARK                         _______ _______ _______ _____ _____    ______ ____
ROOT
ATOM      1  C   UNL     1      43.376   5.481  12.135  0.00  0.00    +0.000 C 
ATOM      2  F   UNL     1      42.765   6.699  12.194  0.00  0.00    +0.000 F 
ATOM      3  F   UNL     1      42.582   4.637  12.861  0.00  0.00    +0.000 F 
ENDROOT
BRANCH   1   4
ATOM      4  C   UNL     1      44.802   5.536  12.660  0.00  0.00    +0.000 A 
ATOM      5  C   UNL     1      45.318   4.506  13.453  0.00  0.00    +0.000 A 
ATOM      6  C   UNL     1      46.651   4.537  13.858  0.00  0.00    +0.000 A 
ATOM      7  C   UNL     1      47.483   5.589  13.464  0.00  0.00    +0.000 A 
ATOM      8  C   UNL     1      47.007   6.632  12.650  0.00  0.00    +0.000 A 
ATOM      9  C   UNL     1      45.651   6.590  12.275  0.00  0.00    +0.000 A 
BRANCH   8  10
ATOM     10  C   UNL     1      47.900   7.707  12.169  0.00  0.00    +0.000 A 
ATOM     11  C   UNL     1      47.491   9.042  12.111  0.00  0.00    +0.000 A 
ATOM     12  N   UNL     1      48.267  10.081  11.716  0.00  0.00    +0.000 NA
ATOM     13  C   UNL     1      49.536   9.793  11.361  0.00  0.00    +0.000 A 
ATOM     14  C   UNL     1      50.066   8.515  11.375  0.00  0.00    +0.000 A 
ATOM     15  C   UNL     1      49.225   7.465  11.777  0.00  0.00    +0.000 A 
BRANCH  14  16
ATOM     16  C   UNL     1      51.489   8.266  10.987  0.00  0.00    +0.000 C 
ATOM     17  F   UNL     1      51.670   7.125  10.267  0.00  0.00    +0.000 F 
ATOM     18  F   UNL     1      52.000   9.272  10.221  0.00  0.00    +0.000 F 
ATOM     19  F   UNL     1      52.314   8.164  12.063  0.00  0.00    +0.000 F 
ENDBRANCH  14  16
ENDBRANCH   8  10
ENDBRANCH   1   4
BRANCH   1  20
ATOM     20  C   UNL     1      43.406   4.989  10.667  0.00  0.00    +0.000 C 
BRANCH  20  21
ATOM     21  N   UNL     1      43.795   3.578  10.490  0.00  0.00    +0.000 N 
ATOM     22  H   UNL     1      43.992   3.078  11.357  0.00  0.00    +0.000 HD
BRANCH  21  26
ATOM     23  C   UNL     1      46.559   2.652   7.430  0.00  0.00    +0.000 A 
ATOM     24  C   UNL     1      45.973   1.624   8.166  0.00  0.00    +0.000 A 
ATOM     25  C   UNL     1      45.046   1.920   9.167  0.00  0.00    +0.000 A 
ATOM     26  C   UNL     1      44.657   3.238   9.442  0.00  0.00    +0.000 A 
ATOM     27  C   UNL     1      45.276   4.263   8.712  0.00  0.00    +0.000 A 
ATOM     28  C   UNL     1      46.223   3.979   7.719  0.00  0.00    +0.000 A 
BRANCH  23  30
ATOM     29  N   UNL     1      47.404   2.999   5.176  0.00  0.00    +0.000 N 
ATOM     30  C   UNL     1      47.568   2.365   6.379  0.00  0.00    +0.000 C 
ATOM     31  O   UNL     1      48.518   1.622   6.580  0.00  0.00    +0.000 OA
ATOM     32  H   UNL     1      48.141   2.870   4.494  0.00  0.00    +0.000 HD
ATOM     33  H   UNL     1      46.786   3.788   5.059  0.00  0.00    +0.000 HD
ENDBRANCH  23  30
ENDBRANCH  21  26
ENDBRANCH  20  21
ENDBRANCH   1  20
TORSDOF 7
ENDMDL
MODEL 5
REMARK VINA RESULT:    -8.220      3.042      3.688
REMARK INTER + INTRA:         -12.819
REMARK INTER:                 -12.183
REMARK INTRA:                  -0.636
REMARK UNBOUND:                -1.234
REMARK  Name = 
REMARK  7 active torsions:
REMARK  status: ('A' for Active; 'I' for Inactive)
REMARK    1  A    between atoms: C_2  and  C_4
REMARK    2  A    between atoms: C_7  and  N_8
REMARK    3  A    between atoms: N_8  and  C_9
REMARK    4  A    between atoms: C_9  and  C_10
REMARK    5  A    between atoms: C_10  and  C_13
REMARK    6  A    between atoms: C_17  and  C_18
REMARK    7  A    between atoms: C_22  and  C_23
REMARK                            x       y       z     vdW  Elec       q    Type
REMARK                         _______ _______ _______ _____ _____    ______ ____
ROOT
ATOM      1  C   UNL     1      43.915   4.541  12.476  0.00  0.00    +0.000 C 
ATOM      2  F   UNL     1      43.036   4.572  13.519  0.00  0.00    +0.000 F 
ATOM      3  F   UNL     1      44.677   3.422  12.670  0.00  0.00    +0.000 F 
ENDROOT
BRANCH   1   4
ATOM      4  C   UNL     1      44.750   5.810  12.401  0.00  0.00    +0.000 A 
ATOM      5  C   UNL     1      44.273   6.949  11.745  0.00  0.00    +0.000 A 
ATOM      6  C   UNL     1      45.019   8.126  11.758  0.00  0.00    +0.000 A 
ATOM      7  C   UNL     1      46.241   8.178  12.434  0.00  0.00    +0.000 A 
ATOM      8  C   UNL     1      46.745   7.061  13.122  0.00  0.00    +0.000 A 
ATOM      9  C   UNL     1      45.984   5.878  13.076  0.00  0.00    +0.000 A 
BRANCH   8  10
ATOM     10  C   UNL     1      47.999   7.132  13.902  0.00  0.00    +0.000 A 
ATOM     11  C   UNL     1      48.225   6.325  15.019  0.00  0.00    +0.000 A 
ATOM     12  N   UNL     1      49.363   6.312  15.757  0.00  0.00    +0.000 NA
ATOM     13  C   UNL     1      50.353   7.142  15.366  0.00  0.00    +0.000 A 
ATOM     14  C   UNL     1      50.257   7.990  14.277  0.00  0.00    +0.000 A 
ATOM     15  C   UNL     1      49.056   7.983  13.548  0.00  0.00    +0.000 A 
BRANCH  14  16
ATOM     16  C   UNL     1      51.400   8.873  13.884  0.00  0.00    +0.000 C 
ATOM     17  F   UNL     1      51.924   8.580  12.662  0.00  0.00    +0.000 F 
ATOM     18  F   UNL     1      51.042  10.188  13.829  0.00  0.00    +0.000 F 
ATOM     19  F   UNL     1      52.436   8.806  14.762  0.00  0.00    +0.000 F 
ENDBRANCH  14  16
ENDBRANCH   8  10
ENDBRANCH   1   4
BRANCH   1  20
ATOM     20  C   UNL     1      43.135   4.381  11.148  0.00  0.00    +0.000 C 
BRANCH  20  21
ATOM     21  N   UNL     1      43.836   4.875   9.949  0.00  0.00    +0.000 N 
ATOM     22  H   UNL     1      43.290   5.509   9.367  0.00  0.00    +0.000 HD
BRANCH  21  26
ATOM     23  C   UNL     1      46.413   2.287   7.823  0.00  0.00    +0.000 A 
ATOM     24  C   UNL     1      45.506   1.758   8.739  0.00  0.00    +0.000 A 
ATOM     25  C   UNL     1      44.639   2.605   9.433  0.00  0.00    +0.000 A 
ATOM     26  C   UNL     1      44.632   3.990   9.215  0.00  0.00    +0.000 A 
ATOM     27  C   UNL     1      45.569   4.509   8.310  0.00  0.00    +0.000 A 
ATOM     28  C   UNL     1      46.458   3.670   7.623  0.00  0.00    +0.000 A 
BRANCH  23  30
ATOM     29  N   UNL     1      48.452   2.019   6.525  0.00  0.00    +0.000 N 
ATOM     30  C   UNL     1      47.365   1.411   7.093  0.00  0.00    +0.000 C 
ATOM     31  O   UNL     1      47.206   0.200   7.023  0.00  0.00    +0.000 OA
ATOM     32  H   UNL     1      49.142   1.410   6.105  0.00  0.00    +0.000 HD
ATOM     33  H   UNL     1      48.736   2.958   6.766  0.00  0.00    +0.000 HD
ENDBRANCH  23  30
ENDBRANCH  21  26
ENDBRANCH  20  21
ENDBRANCH   1  20
TORSDOF 7
ENDMDL
MODEL 6
REMARK VINA RESULT:    -7.840      1.276      2.015
REMARK INTER + INTRA:         -12.283
REMARK INTER:                 -11.324
REMARK INTRA:                  -0.959
REMARK UNBOUND:                -1.234
REMARK  Name = 
REMARK  7 active torsions:
REMARK  status: ('A' for Active; 'I' for Inactive)
REMARK    1  A    between atoms: C_2  and  C_4
REMARK    2  A    between atoms: C_7  and  N_8
REMARK    3  A    between atoms: N_8  and  C_9
REMARK    4  A    between atoms: C_9  and  C_10
REMARK    5  A    between atoms: C_10  and  C_13
REMARK    6  A    between atoms: C_17  and  C_18
REMARK    7  A    between atoms: C_22  and  C_23
REMARK                            x       y       z     vdW  Elec       q    Type
REMARK                         _______ _______ _______ _____ _____    ______ ____
ROOT
ATOM      1  C   UNL     1      45.041   6.861  11.926  0.00  0.00    +0.000 C 
ATOM      2  F   UNL     1      44.150   7.892  11.871  0.00  0.00    +0.000 F 
ATOM      3  F   UNL     1      44.425   5.881  12.655  0.00  0.00    +0.000 F 
ENDROOT
BRANCH   1   4
ATOM      4  C   UNL     1      46.369   7.290  12.531  0.00  0.00    +0.000 A 
ATOM      5  C   UNL     1      47.045   8.419  12.057  0.00  0.00    +0.000 A 
ATOM      6  C   UNL     1      48.219   8.842  12.678  0.00  0.00    +0.000 A 
ATOM      7  C   UNL     1      48.720   8.149  13.784  0.00  0.00    +0.000 A 
ATOM      8  C   UNL     1      48.058   7.023  14.303  0.00  0.00    +0.000 A 
ATOM      9  C   UNL     1      46.888   6.602  13.644  0.00  0.00    +0.000 A 
BRANCH   8  10
ATOM     10  C   UNL     1      48.541   6.331  15.516  0.00  0.00    +0.000 A 
ATOM     11  C   UNL     1      49.430   6.934  16.410  0.00  0.00    +0.000 A 
ATOM     12  N   UNL     1      49.884   6.373  17.558  0.00  0.00    +0.000 NA
ATOM     13  C   UNL     1      49.429   5.138  17.855  0.00  0.00    +0.000 A 
ATOM     14  C   UNL     1      48.546   4.433  17.056  0.00  0.00    +0.000 A 
ATOM     15  C   UNL     1      48.111   5.044  15.869  0.00  0.00    +0.000 A 
BRANCH  14  16
ATOM     16  C   UNL     1      48.064   3.073  17.454  0.00  0.00    +0.000 C 
ATOM     17  F   UNL     1      48.517   2.665  18.671  0.00  0.00    +0.000 F 
ATOM     18  F   UNL     1      46.704   3.007  17.523  0.00  0.00    +0.000 F 
ATOM     19  F   UNL     1      48.439   2.108  16.573  0.00  0.00    +0.000 F 
ENDBRANCH  14  16
ENDBRANCH   8  10
ENDBRANCH   1   4
BRANCH   1  20
ATOM     20  C   UNL     1      45.298   6.323  10.497  0.00  0.00    +0.000 C 
BRANCH  20  21
ATOM     21  N   UNL     1      44.554   5.100  10.147  0.00  0.00    +0.000 N 
ATOM     22  H   UNL     1      44.050   4.671  10.923  0.00  0.00    +0.000 HD
BRANCH  21  26
ATOM     23  C   UNL     1      46.524   2.366   7.596  0.00  0.00    +0.000 A 
ATOM     24  C   UNL     1      45.746   1.890   8.651  0.00  0.00    +0.000 A 
ATOM     25  C   UNL     1      45.078   2.786   9.487  0.00  0.00    +0.000 A 
ATOM     26  C   UNL     1      45.142   4.171   9.282  0.00  0.00    +0.000 A 
ATOM     27  C   UNL     1      45.950   4.636   8.234  0.00  0.00    +0.000 A 
ATOM     28  C   UNL     1      46.642   3.746   7.400  0.00  0.00    +0.000 A 
BRANCH  23  30
ATOM     29  N   UNL     1      48.276   1.974   5.957  0.00  0.00    +0.000 N 
ATOM     30  C   UNL     1      47.267   1.436   6.709  0.00  0.00    +0.000 C 
ATOM     31  O   UNL     1      47.014   0.240   6.668  0.00  0.00    +0.000 OA
ATOM     32  H   UNL     1      48.837   1.323   5.421  0.00  0.00    +0.000 HD
ATOM     33  H   UNL     1      48.664   2.887   6.143  0.00  0.00    +0.000 HD
ENDBRANCH  23  30
ENDBRANCH  21  26
ENDBRANCH  20  21
ENDBRANCH   1  20
TORSDOF 7
ENDMDL
MODEL 7
REMARK VINA RESULT:    -7.814      4.239      8.210
REMARK INTER + INTRA:         -12.246
REMARK INTER:                 -10.809
REMARK INTRA:                  -1.437
REMARK UNBOUND:                -1.234
REMARK  Name = 
REMARK  7 active torsions:
REMARK  status: ('A' for Active; 'I' for Inactive)
REMARK    1  A    between atoms: C_2  and  C_4
REMARK    2  A    between atoms: C_7  and  N_8
REMARK    3  A    between atoms: N_8  and  C_9
REMARK    4  A    between atoms: C_9  and  C_10
REMARK    5  A    between atoms: C_10  and  C_13
REMARK    6  A    between atoms: C_17  and  C_18
REMARK    7  A    between atoms: C_22  and  C_23
REMARK                            x       y       z     vdW  Elec       q    Type
REMARK                         _______ _______ _______ _____ _____    ______ ____
ROOT
ATOM      1  C   UNL     1      49.217   8.429  12.183  0.00  0.00    +0.000 C 
ATOM      2  F   UNL     1      49.566   9.740  12.330  0.00  0.00    +0.000 F 
ATOM      3  F   UNL     1      49.814   8.018  11.023  0.00  0.00    +0.000 F 
ENDROOT
BRANCH   1   4
ATOM      4  C   UNL     1      47.708   8.244  12.159  0.00  0.00    +0.000 A 
ATOM      5  C   UNL     1      46.848   9.299  12.483  0.00  0.00    +0.000 A 
ATOM      6  C   UNL     1      45.468   9.132  12.377  0.00  0.00    +0.000 A 
ATOM      7  C   UNL     1      44.937   7.916  11.937  0.00  0.00    +0.000 A 
ATOM      8  C   UNL     1      45.769   6.839  11.584  0.00  0.00    +0.000 A 
ATOM      9  C   UNL     1      47.158   7.025  11.721  0.00  0.00    +0.000 A 
BRANCH   8  10
ATOM     10  C   UNL     1      45.217   5.578  11.047  0.00  0.00    +0.000 A 
ATOM     11  C   UNL     1      44.193   4.880  11.694  0.00  0.00    +0.000 A 
ATOM     12  N   UNL     1      43.617   3.740  11.240  0.00  0.00    +0.000 NA
ATOM     13  C   UNL     1      44.069   3.253  10.065  0.00  0.00    +0.000 A 
ATOM     14  C   UNL     1      45.076   3.848   9.325  0.00  0.00    +0.000 A 
ATOM     15  C   UNL     1      45.656   5.020   9.837  0.00  0.00    +0.000 A 
BRANCH  14  16
ATOM     16  C   UNL     1      45.518   3.267   8.019  0.00  0.00    +0.000 C 
ATOM     17  F   UNL     1      45.944   1.977   8.109  0.00  0.00    +0.000 F 
ATOM     18  F   UNL     1      44.520   3.264   7.091  0.00  0.00    +0.000 F 
ATOM     19  F   UNL     1      46.544   3.962   7.460  0.00  0.00    +0.000 F 
ENDBRANCH  14  16
ENDBRANCH   8  10
ENDBRANCH   1   4
BRANCH   1  20
ATOM     20  C   UNL     1      49.800   7.605  13.357  0.00  0.00    +0.000 C 
BRANCH  20  21
ATOM     21  N   UNL     1      49.242   7.925  14.682  0.00  0.00    +0.000 N 
ATOM     22  H   UNL     1      49.737   8.660  15.187  0.00  0.00    +0.000 HD
BRANCH  21  26
ATOM     23  C   UNL     1      48.017   4.634  17.034  0.00  0.00    +0.000 A 
ATOM     24  C   UNL     1      48.878   5.587  17.575  0.00  0.00    +0.000 A 
ATOM     25  C   UNL     1      49.273   6.686  16.811  0.00  0.00    +0.000 A 
ATOM     26  C   UNL     1      48.804   6.881  15.504  0.00  0.00    +0.000 A 
ATOM     27  C   UNL     1      47.961   5.900  14.965  0.00  0.00    +0.000 A 
ATOM     28  C   UNL     1      47.573   4.781  15.716  0.00  0.00    +0.000 A 
BRANCH  23  30
ATOM     29  N   UNL     1      48.353   3.138  18.921  0.00  0.00    +0.000 N 
ATOM     30  C   UNL     1      47.604   3.441  17.816  0.00  0.00    +0.000 C 
ATOM     31  O   UNL     1      46.626   2.773  17.510  0.00  0.00    +0.000 OA
ATOM     32  H   UNL     1      48.017   2.379  19.500  0.00  0.00    +0.000 HD
ATOM     33  H   UNL     1      49.002   3.793  19.332  0.00  0.00    +0.000 HD
ENDBRANCH  23  30
ENDBRANCH  21  26
ENDBRANCH  20  21
ENDBRANCH   1  20
TORSDOF 7
ENDMDL
MODEL 8
REMARK VINA RESULT:    -7.520      3.834      8.419
REMARK INTER + INTRA:         -11.831
REMARK INTER:                 -10.770
REMARK INTRA:                  -1.061
REMARK UNBOUND:                -1.234
REMARK  Name = 
REMARK  7 active torsions:
REMARK  status: ('A' for Active; 'I' for Inactive)
REMARK    1  A    between atoms: C_2  and  C_4
REMARK    2  A    between atoms: C_7  and  N_8
REMARK    3  A    between atoms: N_8  and  C_9
REMARK    4  A    between atoms: C_9  and  C_10
REMARK    5  A    between atoms: C_10  and  C_13
REMARK    6  A    between atoms: C_17  and  C_18
REMARK    7  A    between atoms: C_22  and  C_23
REMARK                            x       y       z     vdW  Elec       q    Type
REMARK                         _______ _______ _______ _____ _____    ______ ____
ROOT
ATOM      1  C   UNL     1      48.718   6.414  15.699  0.00  0.00    +0.000 C 
ATOM      2  F   UNL     1      48.404   7.457  16.520  0.00  0.00    +0.000 F 
ATOM      3  F   UNL     1      50.084   6.381  15.653  0.00  0.00    +0.000 F 
ENDROOT
BRANCH   1   4
ATOM      4  C   UNL     1      48.092   6.568  14.322  0.00  0.00    +0.000 A 
ATOM      5  C   UNL     1      48.567   7.523  13.417  0.00  0.00    +0.000 A 
ATOM      6  C   UNL     1      48.033   7.595  12.132  0.00  0.00    +0.000 A 
ATOM      7  C   UNL     1      47.029   6.706  11.736  0.00  0.00    +0.000 A 
ATOM      8  C   UNL     1      46.539   5.719  12.609  0.00  0.00    +0.000 A 
ATOM      9  C   UNL     1      47.078   5.683  13.909  0.00  0.00    +0.000 A 
BRANCH   8  10
ATOM     10  C   UNL     1      45.532   4.730  12.173  0.00  0.00    +0.000 A 
ATOM     11  C   UNL     1      44.385   4.457  12.923  0.00  0.00    +0.000 A 
ATOM     12  N   UNL     1      43.405   3.591  12.565  0.00  0.00    +0.000 NA
ATOM     13  C   UNL     1      43.555   2.954  11.385  0.00  0.00    +0.000 A 
ATOM     14  C   UNL     1      44.642   3.135  10.548  0.00  0.00    +0.000 A 
ATOM     15  C   UNL     1      45.642   4.030  10.962  0.00  0.00    +0.000 A 
BRANCH  14  16
ATOM     16  C   UNL     1      44.738   2.410   9.243  0.00  0.00    +0.000 C 
ATOM     17  F   UNL     1      44.235   3.110   8.189  0.00  0.00    +0.000 F 
ATOM     18  F   UNL     1      46.027   2.115   8.910  0.00  0.00    +0.000 F 
ATOM     19  F   UNL     1      44.076   1.224   9.254  0.00  0.00    +0.000 F 
ENDBRANCH  14  16
ENDBRANCH   8  10
ENDBRANCH   1   4
BRANCH   1  20
ATOM     20  C   UNL     1      48.214   5.092  16.328  0.00  0.00    +0.000 C 
BRANCH  20  21
ATOM     21  N   UNL     1      48.784   4.773  17.650  0.00  0.00    +0.000 N 
ATOM     22  H   UNL     1      48.883   5.573  18.275  0.00  0.00    +0.000 HD
BRANCH  21  26
ATOM     23  C   UNL     1      51.987   2.017  17.680  0.00  0.00    +0.000 A 
ATOM     24  C   UNL     1      52.195   3.323  18.123  0.00  0.00    +0.000 A 
ATOM     25  C   UNL     1      51.138   4.234  18.132  0.00  0.00    +0.000 A 
ATOM     26  C   UNL     1      49.846   3.867  17.731  0.00  0.00    +0.000 A 
ATOM     27  C   UNL     1      49.659   2.558  17.263  0.00  0.00    +0.000 A 
ATOM     28  C   UNL     1      50.718   1.640  17.230  0.00  0.00    +0.000 A 
BRANCH  23  30
ATOM     29  N   UNL     1      52.876  -0.181  18.219  0.00  0.00    +0.000 N 
ATOM     30  C   UNL     1      53.101   1.036  17.634  0.00  0.00    +0.000 C 
ATOM     31  O   UNL     1      54.161   1.286  17.078  0.00  0.00    +0.000 OA
ATOM     32  H   UNL     1      53.603  -0.877  18.109  0.00  0.00    +0.000 HD
ATOM     33  H   UNL     1      51.951  -0.502  18.465  0.00  0.00    +0.000 HD
ENDBRANCH  23  30
ENDBRANCH  21  26
ENDBRANCH  20  21
ENDBRANCH   1  20
TORSDOF 7
ENDMDL
MODEL 9
REMARK VINA RESULT:    -7.295      3.151      4.688
REMARK INTER + INTRA:         -11.514
REMARK INTER:                  -9.953
REMARK INTRA:                  -1.561
REMARK UNBOUND:                -1.234
REMARK  Name = 
REMARK  7 active torsions:
REMARK  status: ('A' for Active; 'I' for Inactive)
REMARK    1  A    between atoms: C_2  and  C_4
REMARK    2  A    between atoms: C_7  and  N_8
REMARK    3  A    between atoms: N_8  and  C_9
REMARK    4  A    between atoms: C_9  and  C_10
REMARK    5  A    between atoms: C_10  and  C_13
REMARK    6  A    between atoms: C_17  and  C_18
REMARK    7  A    between atoms: C_22  and  C_23
REMARK                            x       y       z     vdW  Elec       q    Type
REMARK                         _______ _______ _______ _____ _____    ______ ____
ROOT
ATOM      1  C   UNL     1      48.029   8.502  12.219  0.00  0.00    +0.000 C 
ATOM      2  F   UNL     1      48.313   7.244  11.776  0.00  0.00    +0.000 F 
ATOM      3  F   UNL     1      48.638   9.349  11.336  0.00  0.00    +0.000 F 
ENDROOT
BRANCH   1   4
ATOM      4  C   UNL     1      48.496   8.717  13.651  0.00  0.00    +0.000 A 
ATOM      5  C   UNL     1      48.771  10.000  14.134  0.00  0.00    +0.000 A 
ATOM      6  C   UNL     1      49.120  10.183  15.471  0.00  0.00    +0.000 A 
ATOM      7  C   UNL     1      49.185   9.089  16.338  0.00  0.00    +0.000 A 
ATOM      8  C   UNL     1      48.896   7.787  15.896  0.00  0.00    +0.000 A 
ATOM      9  C   UNL     1      48.569   7.625  14.536  0.00  0.00    +0.000 A 
BRANCH   8  10
ATOM     10  C   UNL     1      48.890   6.637  16.824  0.00  0.00    +0.000 A 
ATOM     11  C   UNL     1      49.188   6.777  18.182  0.00  0.00    +0.000 A 
ATOM     12  N   UNL     1      49.166   5.774  19.094  0.00  0.00    +0.000 NA
ATOM     13  C   UNL     1      48.818   4.550  18.647  0.00  0.00    +0.000 A 
ATOM     14  C   UNL     1      48.499   4.277  17.328  0.00  0.00    +0.000 A 
ATOM     15  C   UNL     1      48.548   5.340  16.412  0.00  0.00    +0.000 A 
BRANCH  14  16
ATOM     16  C   UNL     1      48.103   2.899  16.900  0.00  0.00    +0.000 C 
ATOM     17  F   UNL     1      47.658   2.830  15.615  0.00  0.00    +0.000 F 
ATOM     18  F   UNL     1      49.138   2.015  16.982  0.00  0.00    +0.000 F 
ATOM     19  F   UNL     1      47.109   2.379  17.669  0.00  0.00    +0.000 F 
ENDBRANCH  14  16
ENDBRANCH   8  10
ENDBRANCH   1   4
BRANCH   1  20
ATOM     20  C   UNL     1      46.500   8.739  12.155  0.00  0.00    +0.000 C 
BRANCH  20  21
ATOM     21  N   UNL     1      45.703   7.935  13.099  0.00  0.00    +0.000 N 
ATOM     22  H   UNL     1      46.040   7.950  14.061  0.00  0.00    +0.000 HD
BRANCH  21  26
ATOM     23  C   UNL     1      44.376   4.180  11.685  0.00  0.00    +0.000 A 
ATOM     24  C   UNL     1      45.241   4.241  12.777  0.00  0.00    +0.000 A 
ATOM     25  C   UNL     1      45.670   5.478  13.261  0.00  0.00    +0.000 A 
ATOM     26  C   UNL     1      45.231   6.682  12.693  0.00  0.00    +0.000 A 
ATOM     27  C   UNL     1      44.384   6.604  11.579  0.00  0.00    +0.000 A 
ATOM     28  C   UNL     1      43.963   5.366  11.071  0.00  0.00    +0.000 A 
BRANCH  23  30
ATOM     29  N   UNL     1      44.610   2.398  10.047  0.00  0.00    +0.000 N 
ATOM     30  C   UNL     1      43.928   2.876  11.134  0.00  0.00    +0.000 C 
ATOM     31  O   UNL     1      43.011   2.241  11.637  0.00  0.00    +0.000 OA
ATOM     32  H   UNL     1      44.360   1.470   9.729  0.00  0.00    +0.000 HD
ATOM     33  H   UNL     1      45.506   2.767   9.764  0.00  0.00    +0.000 HD
ENDBRANCH  23  30
ENDBRANCH  21  26
ENDBRANCH  20  21
ENDBRANCH   1  20
TORSDOF 7
ENDMDL
