MODEL 1
REMARK VINA RESULT:    -8.174      0.000      0.000
REMARK INTER + INTRA:         -11.870
REMARK INTER:                 -11.041
REMARK INTRA:                  -0.829
REMARK UNBOUND:                -0.829
REMARK  Name = 
REMARK  7 active torsions:
REMARK  status: ('A' for Active; 'I' for Inactive)
REMARK    1  A    between atoms: C_1  and  C_2
REMARK    2  A    between atoms: C_4  and  C_5
REMARK    3  A    between atoms: C_10  and  O_11
REMARK    4  A    between atoms: O_11  and  C_12
REMARK    5  A    between atoms: C_12  and  C_13
REMARK    6  A    between atoms: C_18  and  C_19
REMARK    7  A    between atoms: C_23  and  C_24
REMARK                            x       y       z     vdW  Elec       q    Type
REMARK                         _______ _______ _______ _____ _____    ______ ____
ROOT
ATOM      1  C   UNL     1      44.844   5.382  12.119  0.00  0.00    +0.000 A 
ATOM      2  C   UNL     1      45.112   4.455  13.125  0.00  0.00    +0.000 A 
ATOM      3  C   UNL     1      46.265   4.607  13.887  0.00  0.00    +0.000 A 
ATOM      4  C   UNL     1      47.112   5.678  13.629  0.00  0.00    +0.000 A 
ATOM      5  F   UNL     1      48.218   5.812  14.376  0.00  0.00    +0.000 F 
ATOM      6  C   UNL     1      46.800   6.580  12.613  0.00  0.00    +0.000 A 
ATOM      7  N   UNL     1      45.667   6.437  11.866  0.00  0.00    +0.000 NA
ENDROOT
BRANCH   6   8
ATOM      8  C   UNL     1      47.656   7.724  12.239  0.00  0.00    +0.000 A 
ATOM      9  C   UNL     1      47.134   9.024  12.195  0.00  0.00    +0.000 A 
ATOM     10  C   UNL     1      47.953  10.076  11.820  0.00  0.00    +0.000 A 
ATOM     11  N   UNL     1      49.249   9.932  11.476  0.00  0.00    +0.000 NA
ATOM     12  C   UNL     1      49.770   8.676  11.502  0.00  0.00    +0.000 A 
ATOM     13  C   UNL     1      49.005   7.568  11.880  0.00  0.00    +0.000 A 
BRANCH  12  14
ATOM     14  C   UNL     1      51.219   8.451  11.090  0.00  0.00    +0.000 C 
ATOM     15  F   UNL     1      51.424   7.344  10.321  0.00  0.00    +0.000 F 
ATOM     16  F   UNL     1      51.728   9.498  10.376  0.00  0.00    +0.000 F 
ATOM     17  F   UNL     1      52.049   8.312  12.167  0.00  0.00    +0.000 F 
ENDBRANCH  12  14
ENDBRANCH   6   8
BRANCH   1  18
ATOM     18  C   UNL     1      43.655   5.188  11.199  0.00  0.00    +0.000 C 
BRANCH  18  19
ATOM     19  O   UNL     1      44.047   5.172   9.833  0.00  0.00    +0.000 OA
BRANCH  19  26
ATOM     20  C   UNL     1      43.699   2.130  10.708  0.00  0.00    +0.000 C 
ATOM     21  C   UNL     1      44.606   2.722   9.665  0.00  0.00    +0.000 A 
ATOM     22  C   UNL     1      45.412   1.790   8.968  0.00  0.00    +0.000 A 
ATOM     23  C   UNL     1      46.308   2.170   7.958  0.00  0.00    +0.000 A 
ATOM     24  C   UNL     1      46.408   3.520   7.637  0.00  0.00    +0.000 A 
ATOM     25  C   UNL     1      45.620   4.457   8.320  0.00  0.00    +0.000 A 
ATOM     26  C   UNL     1      44.714   4.083   9.331  0.00  0.00    +0.000 A 
BRANCH  23  27
ATOM     27  C   UNL     1      47.092   1.088   7.292  0.00  0.00    +0.000 C 
ATOM     28  N   UNL     1      46.805  -0.214   7.589  0.00  0.00    +0.000 N 
ATOM     29  O   UNL     1      47.982   1.345   6.491  0.00  0.00    +0.000 OA
ATOM     30  H   UNL     1      46.087  -0.522   8.221  0.00  0.00    +0.000 HD
ATOM     31  H   UNL     1      47.354  -0.918   7.113  0.00  0.00    +0.000 HD
ENDBRANCH  23  27
ENDBRANCH  19  26
ENDBRANCH  18  19
ENDBRANCH   1  18
TORSDOF 6
ENDMDL
MODEL 2
REMARK VINA RESULT:    -8.165      2.822      4.470
REMARK INTER + INTRA:         -11.858
REMARK INTER:                 -11.194
REMARK INTRA:                  -0.664
REMARK UNBOUND:                -0.829
REMARK  Name = 
REMARK  7 active torsions:
REMARK  status: ('A' for Active; 'I' for Inactive)
REMARK    1  A    between atoms: C_1  and  C_2
REMARK    2  A    between atoms: C_4  and  C_5
REMARK    3  A    between atoms: C_10  and  O_11
REMARK    4  A    between atoms: O_11  and  C_12
REMARK    5  A    between atoms: C_12  and  C_13
REMARK    6  A    between atoms: C_18  and  C_19
REMARK    7  A    between atoms: C_23  and  C_24
REMARK                            x       y       z     vdW  Elec       q    Type
REMARK                         _______ _______ _______ _____ _____    ______ ____
ROOT
ATOM      1  C   UNL     1      44.984   5.633  11.881  0.00  0.00    +0.000 A 
ATOM      2  C   UNL     1      44.771   6.926  11.406  0.00  0.00    +0.000 A 
ATOM      3  C   UNL     1      45.491   7.973  11.968  0.00  0.00    +0.000 A 
ATOM      4  C   UNL     1      46.404   7.703  12.980  0.00  0.00    +0.000 A 
ATOM      5  F   UNL     1      47.095   8.725  13.507  0.00  0.00    +0.000 F 
ATOM      6  C   UNL     1      46.584   6.392  13.419  0.00  0.00    +0.000 A 
ATOM      7  N   UNL     1      45.882   5.361  12.867  0.00  0.00    +0.000 NA
ENDROOT
BRANCH   6   8
ATOM      8  C   UNL     1      47.501   6.012  14.514  0.00  0.00    +0.000 A 
ATOM      9  C   UNL     1      48.583   6.834  14.858  0.00  0.00    +0.000 A 
ATOM     10  C   UNL     1      49.441   6.444  15.873  0.00  0.00    +0.000 A 
ATOM     11  N   UNL     1      49.308   5.295  16.566  0.00  0.00    +0.000 NA
ATOM     12  C   UNL     1      48.270   4.479  16.238  0.00  0.00    +0.000 A 
ATOM     13  C   UNL     1      47.360   4.813  15.230  0.00  0.00    +0.000 A 
BRANCH  12  14
ATOM     14  C   UNL     1      48.095   3.152  16.964  0.00  0.00    +0.000 C 
ATOM     15  F   UNL     1      48.944   2.963  18.014  0.00  0.00    +0.000 F 
ATOM     16  F   UNL     1      46.836   2.996  17.473  0.00  0.00    +0.000 F 
ATOM     17  F   UNL     1      48.284   2.080  16.138  0.00  0.00    +0.000 F 
ENDBRANCH  12  14
ENDBRANCH   6   8
BRANCH   1  18
ATOM     18  C   UNL     1      44.141   4.483  11.369  0.00  0.00    +0.000 C 
BRANCH  18  19
ATOM     19  O   UNL     1      43.965   4.548   9.960  0.00  0.00    +0.000 OA
BRANCH  19  26
ATOM     20  C   UNL     1      44.061   1.410   9.424  0.00  0.00    +0.000 C 
ATOM     21  C   UNL     1      44.924   2.501   8.851  0.00  0.00    +0.000 A 
ATOM     22  C   UNL     1      45.913   2.068   7.936  0.00  0.00    +0.000 A 
ATOM     23  C   UNL     1      46.797   2.952   7.300  0.00  0.00    +0.000 A 
ATOM     24  C   UNL     1      46.696   4.309   7.592  0.00  0.00    +0.000 A 
ATOM     25  C   UNL     1      45.725   4.755   8.499  0.00  0.00    +0.000 A 
ATOM     26  C   UNL     1      44.830   3.874   9.136  0.00  0.00    +0.000 A 
BRANCH  23  27
ATOM     27  C   UNL     1      47.787   2.369   6.347  0.00  0.00    +0.000 C 
ATOM     28  N   UNL     1      47.994   2.992   5.149  0.00  0.00    +0.000 N 
ATOM     29  O   UNL     1      48.411   1.351   6.618  0.00  0.00    +0.000 OA
ATOM     30  H   UNL     1      47.541   3.836   4.845  0.00  0.00    +0.000 HD
ATOM     31  H   UNL     1      48.677   2.570   4.533  0.00  0.00    +0.000 HD
ENDBRANCH  23  27
ENDBRANCH  19  26
ENDBRANCH  18  19
ENDBRANCH   1  18
TORSDOF 6
ENDMDL
MODEL 3
REMARK VINA RESULT:    -8.048      1.457      2.115
REMARK INTER + INTRA:         -11.699
REMARK INTER:                 -10.436
REMARK INTRA:                  -1.263
REMARK UNBOUND:                -0.829
REMARK  Name = 
REMARK  7 active torsions:
REMARK  status: ('A' for Active; 'I' for Inactive)
REMARK    1  A    between atoms: C_1  and  C_2
REMARK    2  A    between atoms: C_4  and  C_5
REMARK    3  A    between atoms: C_10  and  O_11
REMARK    4  A    between atoms: O_11  and  C_12
REMARK    5  A    between atoms: C_12  and  C_13
REMARK    6  A    between atoms: C_18  and  C_19
REMARK    7  A    between atoms: C_23  and  C_24
REMARK                            x       y       z     vdW  Elec       q    Type
REMARK                         _______ _______ _______ _____ _____    ______ ____
ROOT
ATOM      1  C   UNL     1      44.745   4.511  12.448  0.00  0.00    +0.000 A 
ATOM      2  C   UNL     1      45.610   3.684  13.162  0.00  0.00    +0.000 A 
ATOM      3  C   UNL     1      46.776   4.229  13.688  0.00  0.00    +0.000 A 
ATOM      4  C   UNL     1      47.043   5.578  13.491  0.00  0.00    +0.000 A 
ATOM      5  F   UNL     1      48.171   6.088  14.009  0.00  0.00    +0.000 F 
ATOM      6  C   UNL     1      46.146   6.365  12.771  0.00  0.00    +0.000 A 
ATOM      7  N   UNL     1      44.998   5.835  12.258  0.00  0.00    +0.000 NA
ENDROOT
BRANCH   6   8
ATOM      8  C   UNL     1      46.362   7.796  12.477  0.00  0.00    +0.000 A 
ATOM      9  C   UNL     1      45.286   8.695  12.470  0.00  0.00    +0.000 A 
ATOM     10  C   UNL     1      45.511  10.028  12.169  0.00  0.00    +0.000 A 
ATOM     11  N   UNL     1      46.724  10.533  11.867  0.00  0.00    +0.000 NA
ATOM     12  C   UNL     1      47.779   9.673  11.858  0.00  0.00    +0.000 A 
ATOM     13  C   UNL     1      47.626   8.317  12.161  0.00  0.00    +0.000 A 
BRANCH  12  14
ATOM     14  C   UNL     1      49.166  10.184  11.489  0.00  0.00    +0.000 C 
ATOM     15  F   UNL     1      49.190  11.048  10.435  0.00  0.00    +0.000 F 
ATOM     16  F   UNL     1      49.774  10.840  12.521  0.00  0.00    +0.000 F 
ATOM     17  F   UNL     1      50.019   9.170  11.154  0.00  0.00    +0.000 F 
ENDBRANCH  12  14
ENDBRANCH   6   8
BRANCH   1  18
ATOM     18  C   UNL     1      43.520   3.931  11.770  0.00  0.00    +0.000 C 
BRANCH  18  19
ATOM     19  O   UNL     1      43.522   4.191  10.373  0.00  0.00    +0.000 OA
BRANCH  19  26
ATOM     20  C   UNL     1      45.970   5.607   8.909  0.00  0.00    +0.000 C 
ATOM     21  C   UNL     1      45.568   4.158   8.904  0.00  0.00    +0.000 A 
ATOM     22  C   UNL     1      46.404   3.304   8.146  0.00  0.00    +0.000 A 
ATOM     23  C   UNL     1      46.180   1.923   8.041  0.00  0.00    +0.000 A 
ATOM     24  C   UNL     1      45.085   1.379   8.705  0.00  0.00    +0.000 A 
ATOM     25  C   UNL     1      44.244   2.212   9.456  0.00  0.00    +0.000 A 
ATOM     26  C   UNL     1      44.466   3.598   9.573  0.00  0.00    +0.000 A 
BRANCH  23  27
ATOM     27  C   UNL     1      47.143   1.131   7.221  0.00  0.00    +0.000 C 
ATOM     28  N   UNL     1      48.217   1.767   6.666  0.00  0.00    +0.000 N 
ATOM     29  O   UNL     1      46.987  -0.070   7.036  0.00  0.00    +0.000 OA
ATOM     30  H   UNL     1      48.434   2.743   6.771  0.00  0.00    +0.000 HD
ATOM     31  H   UNL     1      48.850   1.195   6.121  0.00  0.00    +0.000 HD
ENDBRANCH  23  27
ENDBRANCH  19  26
ENDBRANCH  18  19
ENDBRANCH   1  18
TORSDOF 6
ENDMDL
MODEL 4
REMARK VINA RESULT:    -8.016      5.761      8.460
REMARK INTER + INTRA:         -11.656
REMARK INTER:                 -10.668
REMARK INTRA:                  -0.988
REMARK UNBOUND:                -0.829
REMARK  Name = 
REMARK  7 active torsions:
REMARK  status: ('A' for Active; 'I' for Inactive)
REMARK    1  A    between atoms: C_1  and  C_2
REMARK    2  A    between atoms: C_4  and  C_5
REMARK    3  A    between atoms: C_10  and  O_11
REMARK    4  A    between atoms: O_11  and  C_12
REMARK    5  A    between atoms: C_12  and  C_13
REMARK    6  A    between atoms: C_18  and  C_19
REMARK    7  A    between atoms: C_23  and  C_24
REMARK                            x       y       z     vdW  Elec       q    Type
REMARK                         _______ _______ _______ _____ _____    ______ ____
ROOT
ATOM      1  C   UNL     1      47.391   4.770  15.376  0.00  0.00    +0.000 A 
ATOM      2  C   UNL     1      48.247   5.835  15.103  0.00  0.00    +0.000 A 
ATOM      3  C   UNL     1      48.086   6.536  13.913  0.00  0.00    +0.000 A 
ATOM      4  C   UNL     1      47.078   6.159  13.035  0.00  0.00    +0.000 A 
ATOM      5  F   UNL     1      46.935   6.849  11.893  0.00  0.00    +0.000 F 
ATOM      6  C   UNL     1      46.245   5.087  13.354  0.00  0.00    +0.000 A 
ATOM      7  N   UNL     1      46.396   4.400  14.523  0.00  0.00    +0.000 NA
ENDROOT
BRANCH   6   8
ATOM      8  C   UNL     1      45.174   4.589  12.468  0.00  0.00    +0.000 A 
ATOM      9  C   UNL     1      43.826   4.823  12.774  0.00  0.00    +0.000 A 
ATOM     10  C   UNL     1      42.839   4.326  11.939  0.00  0.00    +0.000 A 
ATOM     11  N   UNL     1      43.091   3.607  10.827  0.00  0.00    +0.000 NA
ATOM     12  C   UNL     1      44.394   3.360  10.519  0.00  0.00    +0.000 A 
ATOM     13  C   UNL     1      45.441   3.839  11.312  0.00  0.00    +0.000 A 
BRANCH  12  14
ATOM     14  C   UNL     1      44.734   2.522   9.293  0.00  0.00    +0.000 C 
ATOM     15  F   UNL     1      44.208   1.265   9.302  0.00  0.00    +0.000 F 
ATOM     16  F   UNL     1      44.303   3.097   8.131  0.00  0.00    +0.000 F 
ATOM     17  F   UNL     1      46.081   2.358   9.136  0.00  0.00    +0.000 F 
ENDBRANCH  12  14
ENDBRANCH   6   8
BRANCH   1  18
ATOM     18  C   UNL     1      47.603   3.917  16.610  0.00  0.00    +0.000 C 
BRANCH  18  19
ATOM     19  O   UNL     1      48.638   4.436  17.435  0.00  0.00    +0.000 OA
BRANCH  19  26
ATOM     20  C   UNL     1      51.458   5.623  18.318  0.00  0.00    +0.000 C 
ATOM     21  C   UNL     1      51.097   4.215  17.929  0.00  0.00    +0.000 A 
ATOM     22  C   UNL     1      52.164   3.286  17.971  0.00  0.00    +0.000 A 
ATOM     23  C   UNL     1      52.002   1.931  17.649  0.00  0.00    +0.000 A 
ATOM     24  C   UNL     1      50.740   1.490  17.266  0.00  0.00    +0.000 A 
ATOM     25  C   UNL     1      49.672   2.398  17.214  0.00  0.00    +0.000 A 
ATOM     26  C   UNL     1      49.825   3.758  17.543  0.00  0.00    +0.000 A 
BRANCH  23  27
ATOM     27  C   UNL     1      53.205   1.052  17.745  0.00  0.00    +0.000 C 
ATOM     28  N   UNL     1      53.069  -0.197  18.282  0.00  0.00    +0.000 N 
ATOM     29  O   UNL     1      54.304   1.429  17.355  0.00  0.00    +0.000 OA
ATOM     30  H   UNL     1      52.209  -0.596  18.615  0.00  0.00    +0.000 HD
ATOM     31  H   UNL     1      53.906  -0.764  18.324  0.00  0.00    +0.000 HD
ENDBRANCH  23  27
ENDBRANCH  19  26
ENDBRANCH  18  19
ENDBRANCH   1  18
TORSDOF 6
ENDMDL
MODEL 5
REMARK VINA RESULT:    -7.790      4.884      8.410
REMARK INTER + INTRA:         -11.351
REMARK INTER:                 -10.269
REMARK INTRA:                  -1.082
REMARK UNBOUND:                -0.829
REMARK  Name = 
REMARK  7 active torsions:
REMARK  status: ('A' for Active; 'I' for Inactive)
REMARK    1  A    between atoms: C_1  and  C_2
REMARK    2  A    between atoms: C_4  and  C_5
REMARK    3  A    between atoms: C_10  and  O_11
REMARK    4  A    between atoms: O_11  and  C_12
REMARK    5  A    between atoms: C_12  and  C_13
REMARK    6  A    between atoms: C_18  and  C_19
REMARK    7  A    between atoms: C_23  and  C_24
REMARK                            x       y       z     vdW  Elec       q    Type
REMARK                         _______ _______ _______ _____ _____    ______ ____
ROOT
ATOM      1  C   UNL     1      47.273   7.395  13.437  0.00  0.00    +0.000 A 
ATOM      2  C   UNL     1      46.792   8.691  13.259  0.00  0.00    +0.000 A 
ATOM      3  C   UNL     1      45.626   8.878  12.525  0.00  0.00    +0.000 A 
ATOM      4  C   UNL     1      44.972   7.771  11.998  0.00  0.00    +0.000 A 
ATOM      5  F   UNL     1      43.846   7.969  11.296  0.00  0.00    +0.000 F 
ATOM      6  C   UNL     1      45.492   6.495  12.205  0.00  0.00    +0.000 A 
ATOM      7  N   UNL     1      46.633   6.307  12.928  0.00  0.00    +0.000 NA
ENDROOT
BRANCH   6   8
ATOM      8  C   UNL     1      44.891   5.264  11.651  0.00  0.00    +0.000 A 
ATOM      9  C   UNL     1      43.931   4.547  12.379  0.00  0.00    +0.000 A 
ATOM     10  C   UNL     1      43.399   3.384  11.847  0.00  0.00    +0.000 A 
ATOM     11  N   UNL     1      43.756   2.876  10.650  0.00  0.00    +0.000 NA
ATOM     12  C   UNL     1      44.694   3.553   9.934  0.00  0.00    +0.000 A 
ATOM     13  C   UNL     1      45.267   4.738  10.405  0.00  0.00    +0.000 A 
BRANCH  12  14
ATOM     14  C   UNL     1      45.159   3.005   8.591  0.00  0.00    +0.000 C 
ATOM     15  F   UNL     1      45.350   1.655   8.565  0.00  0.00    +0.000 F 
ATOM     16  F   UNL     1      44.277   3.273   7.583  0.00  0.00    +0.000 F 
ATOM     17  F   UNL     1      46.344   3.553   8.190  0.00  0.00    +0.000 F 
ENDBRANCH  12  14
ENDBRANCH   6   8
BRANCH   1  18
ATOM     18  C   UNL     1      48.597   7.162  14.137  0.00  0.00    +0.000 C 
BRANCH  18  19
ATOM     19  O   UNL     1      48.640   5.888  14.765  0.00  0.00    +0.000 OA
BRANCH  19  26
ATOM     20  C   UNL     1      47.532   3.329  16.305  0.00  0.00    +0.000 C 
ATOM     21  C   UNL     1      47.883   4.688  16.846  0.00  0.00    +0.000 A 
ATOM     22  C   UNL     1      47.702   4.846  18.241  0.00  0.00    +0.000 A 
ATOM     23  C   UNL     1      47.989   6.044  18.911  0.00  0.00    +0.000 A 
ATOM     24  C   UNL     1      48.464   7.119  18.168  0.00  0.00    +0.000 A 
ATOM     25  C   UNL     1      48.645   6.982  16.784  0.00  0.00    +0.000 A 
ATOM     26  C   UNL     1      48.366   5.781  16.105  0.00  0.00    +0.000 A 
BRANCH  23  27
ATOM     27  C   UNL     1      47.765   6.077  20.387  0.00  0.00    +0.000 C 
ATOM     28  N   UNL     1      47.894   4.919  21.100  0.00  0.00    +0.000 N 
ATOM     29  O   UNL     1      47.469   7.116  20.965  0.00  0.00    +0.000 OA
ATOM     30  H   UNL     1      48.145   4.024  20.717  0.00  0.00    +0.000 HD
ATOM     31  H   UNL     1      47.740   4.983  22.098  0.00  0.00    +0.000 HD
ENDBRANCH  23  27
ENDBRANCH  19  26
ENDBRANCH  18  19
ENDBRANCH   1  18
TORSDOF 6
ENDMDL
MODEL 6
REMARK VINA RESULT:    -7.760      5.267      8.129
REMARK INTER + INTRA:         -11.311
REMARK INTER:                 -10.132
REMARK INTRA:                  -1.179
REMARK UNBOUND:                -0.829
REMARK  Name = 
REMARK  7 active torsions:
REMARK  status: ('A' for Active; 'I' for Inactive)
REMARK    1  A    between atoms: C_1  and  C_2
REMARK    2  A    between atoms: C_4  and  C_5
REMARK    3  A    between atoms: C_10  and  O_11
REMARK    4  A    between atoms: O_11  and  C_12
REMARK    5  A    between atoms: C_12  and  C_13
REMARK    6  A    between atoms: C_18  and  C_19
REMARK    7  A    between atoms: C_23  and  C_24
REMARK                            x       y       z     vdW  Elec       q    Type
REMARK                         _______ _______ _______ _____ _____    ______ ____
ROOT
ATOM      1  C   UNL     1      49.230   7.150  15.196  0.00  0.00    +0.000 A 
ATOM      2  C   UNL     1      49.978   7.902  14.292  0.00  0.00    +0.000 A 
ATOM      3  C   UNL     1      49.652   7.848  12.942  0.00  0.00    +0.000 A 
ATOM      4  C   UNL     1      48.589   7.052  12.533  0.00  0.00    +0.000 A 
ATOM      5  F   UNL     1      48.284   7.014  11.227  0.00  0.00    +0.000 F 
ATOM      6  C   UNL     1      47.869   6.319  13.475  0.00  0.00    +0.000 A 
ATOM      7  N   UNL     1      48.183   6.374  14.801  0.00  0.00    +0.000 NA
ENDROOT
BRANCH   6   8
ATOM      8  C   UNL     1      46.751   5.416  13.133  0.00  0.00    +0.000 A 
ATOM      9  C   UNL     1      46.845   4.038  13.373  0.00  0.00    +0.000 A 
ATOM     10  C   UNL     1      45.792   3.210  13.022  0.00  0.00    +0.000 A 
ATOM     11  N   UNL     1      44.656   3.647  12.443  0.00  0.00    +0.000 NA
ATOM     12  C   UNL     1      44.550   4.980  12.192  0.00  0.00    +0.000 A 
ATOM     13  C   UNL     1      45.570   5.876  12.528  0.00  0.00    +0.000 A 
BRANCH  12  14
ATOM     14  C   UNL     1      43.303   5.523  11.507  0.00  0.00    +0.000 C 
ATOM     15  F   UNL     1      42.145   5.324  12.198  0.00  0.00    +0.000 F 
ATOM     16  F   UNL     1      43.373   6.869  11.282  0.00  0.00    +0.000 F 
ATOM     17  F   UNL     1      43.101   4.963  10.278  0.00  0.00    +0.000 F 
ENDBRANCH  12  14
ENDBRANCH   6   8
BRANCH   1  18
ATOM     18  C   UNL     1      49.623   7.100  16.658  0.00  0.00    +0.000 C 
BRANCH  18  19
ATOM     19  O   UNL     1      49.000   6.015  17.332  0.00  0.00    +0.000 OA
BRANCH  19  26
ATOM     20  C   UNL     1      47.686   3.133  17.001  0.00  0.00    +0.000 C 
ATOM     21  C   UNL     1      49.121   3.501  17.258  0.00  0.00    +0.000 A 
ATOM     22  C   UNL     1      50.015   2.407  17.358  0.00  0.00    +0.000 A 
ATOM     23  C   UNL     1      51.389   2.570  17.586  0.00  0.00    +0.000 A 
ATOM     24  C   UNL     1      51.887   3.862  17.726  0.00  0.00    +0.000 A 
ATOM     25  C   UNL     1      51.015   4.956  17.634  0.00  0.00    +0.000 A 
ATOM     26  C   UNL     1      49.636   4.801  17.399  0.00  0.00    +0.000 A 
BRANCH  23  27
ATOM     27  C   UNL     1      52.225   1.336  17.659  0.00  0.00    +0.000 C 
ATOM     28  N   UNL     1      51.656   0.179  18.110  0.00  0.00    +0.000 N 
ATOM     29  O   UNL     1      53.404   1.342  17.325  0.00  0.00    +0.000 OA
ATOM     30  H   UNL     1      50.697   0.073  18.393  0.00  0.00    +0.000 HD
ATOM     31  H   UNL     1      52.254  -0.638  18.139  0.00  0.00    +0.000 HD
ENDBRANCH  23  27
ENDBRANCH  19  26
ENDBRANCH  18  19
ENDBRANCH   1  18
TORSDOF 6
ENDMDL
MODEL 7
REMARK VINA RESULT:    -6.943      1.791      2.572
REMARK INTER + INTRA:         -10.207
REMARK INTER:                  -9.292
REMARK INTRA:                  -0.915
REMARK UNBOUND:                -0.829
REMARK  Name = 
REMARK  7 active torsions:
REMARK  status: ('A' for Active; 'I' for Inactive)
REMARK    1  A    between atoms: C_1  and  C_2
REMARK    2  A    between atoms: C_4  and  C_5
REMARK    3  A    between atoms: C_10  and  O_11
REMARK    4  A    between atoms: O_11  and  C_12
REMARK    5  A    between atoms: C_12  and  C_13
REMARK    6  A    between atoms: C_18  and  C_19
REMARK    7  A    between atoms: C_23  and  C_24
REMARK                            x       y       z     vdW  Elec       q    Type
REMARK                         _______ _______ _______ _____ _____    ______ ____
ROOT
ATOM      1  C   UNL     1      44.787   4.734  12.078  0.00  0.00    +0.000 A 
ATOM      2  C   UNL     1      43.710   5.617  12.020  0.00  0.00    +0.000 A 
ATOM      3  C   UNL     1      43.914   6.947  12.372  0.00  0.00    +0.000 A 
ATOM      4  C   UNL     1      45.182   7.357  12.766  0.00  0.00    +0.000 A 
ATOM      5  F   UNL     1      45.362   8.644  13.098  0.00  0.00    +0.000 F 
ATOM      6  C   UNL     1      46.228   6.436  12.806  0.00  0.00    +0.000 A 
ATOM      7  N   UNL     1      46.033   5.132  12.456  0.00  0.00    +0.000 NA
ENDROOT
BRANCH   6   8
ATOM      8  C   UNL     1      47.597   6.769  13.248  0.00  0.00    +0.000 A 
ATOM      9  C   UNL     1      48.013   6.491  14.558  0.00  0.00    +0.000 A 
ATOM     10  C   UNL     1      49.296   6.832  14.954  0.00  0.00    +0.000 A 
ATOM     11  N   UNL     1      50.193   7.437  14.150  0.00  0.00    +0.000 NA
ATOM     12  C   UNL     1      49.803   7.724  12.878  0.00  0.00    +0.000 A 
ATOM     13  C   UNL     1      48.527   7.400  12.407  0.00  0.00    +0.000 A 
BRANCH  12  14
ATOM     14  C   UNL     1      50.765   8.439  11.937  0.00  0.00    +0.000 C 
ATOM     15  F   UNL     1      51.674   9.242  12.559  0.00  0.00    +0.000 F 
ATOM     16  F   UNL     1      51.496   7.570  11.178  0.00  0.00    +0.000 F 
ATOM     17  F   UNL     1      50.115   9.241  11.042  0.00  0.00    +0.000 F 
ENDBRANCH  12  14
ENDBRANCH   6   8
BRANCH   1  18
ATOM     18  C   UNL     1      44.579   3.258  11.806  0.00  0.00    +0.000 C 
BRANCH  18  19
ATOM     19  O   UNL     1      44.089   3.031  10.491  0.00  0.00    +0.000 OA
BRANCH  19  26
ATOM     20  C   UNL     1      45.469   5.497   9.023  0.00  0.00    +0.000 C 
ATOM     21  C   UNL     1      45.612   4.025   8.750  0.00  0.00    +0.000 A 
ATOM     22  C   UNL     1      46.494   3.691   7.694  0.00  0.00    +0.000 A 
ATOM     23  C   UNL     1      46.752   2.367   7.312  0.00  0.00    +0.000 A 
ATOM     24  C   UNL     1      46.104   1.344   7.998  0.00  0.00    +0.000 A 
ATOM     25  C   UNL     1      45.224   1.657   9.044  0.00  0.00    +0.000 A 
ATOM     26  C   UNL     1      44.966   2.984   9.438  0.00  0.00    +0.000 A 
BRANCH  23  27
ATOM     27  C   UNL     1      47.712   2.148   6.190  0.00  0.00    +0.000 C 
ATOM     28  N   UNL     1      49.013   2.533   6.350  0.00  0.00    +0.000 N 
ATOM     29  O   UNL     1      47.356   1.635   5.136  0.00  0.00    +0.000 OA
ATOM     30  H   UNL     1      49.399   2.949   7.180  0.00  0.00    +0.000 HD
ATOM     31  H   UNL     1      49.634   2.363   5.570  0.00  0.00    +0.000 HD
ENDBRANCH  23  27
ENDBRANCH  19  26
ENDBRANCH  18  19
ENDBRANCH   1  18
TORSDOF 6
ENDMDL
MODEL 8
REMARK VINA RESULT:    -6.770      4.794      8.126
REMARK INTER + INTRA:          -9.973
REMARK INTER:                  -8.933
REMARK INTRA:                  -1.040
REMARK UNBOUND:                -0.829
REMARK  Name = 
REMARK  7 active torsions:
REMARK  status: ('A' for Active; 'I' for Inactive)
REMARK    1  A    between atoms: C_1  and  C_2
REMARK    2  A    between atoms: C_4  and  C_5
REMARK    3  A    between atoms: C_10  and  O_11
REMARK    4  A    between atoms: O_11  and  C_12
REMARK    5  A    between atoms: C_12  and  C_13
REMARK    6  A    between atoms: C_18  and  C_19
REMARK    7  A    between atoms: C_23  and  C_24
REMARK                            x       y       z     vdW  Elec       q    Type
REMARK                         _______ _______ _______ _____ _____    ______ ____
ROOT
ATOM      1  C   UNL     1      47.781   8.273  12.785  0.00  0.00    +0.000 A 
ATOM      2  C   UNL     1      47.126   9.478  12.538  0.00  0.00    +0.000 A 
ATOM      3  C   UNL     1      45.839   9.446  12.012  0.00  0.00    +0.000 A 
ATOM      4  C   UNL     1      45.243   8.218  11.752  0.00  0.00    +0.000 A 
ATOM      5  F   UNL     1      44.000   8.205  11.249  0.00  0.00    +0.000 F 
ATOM      6  C   UNL     1      45.939   7.040  12.017  0.00  0.00    +0.000 A 
ATOM      7  N   UNL     1      47.199   7.067  12.538  0.00  0.00    +0.000 NA
ENDROOT
BRANCH   6   8
ATOM      8  C   UNL     1      45.405   5.691  11.738  0.00  0.00    +0.000 A 
ATOM      9  C   UNL     1      44.969   4.864  12.782  0.00  0.00    +0.000 A 
ATOM     10  C   UNL     1      44.494   3.595  12.496  0.00  0.00    +0.000 A 
ATOM     11  N   UNL     1      44.427   3.083  11.250  0.00  0.00    +0.000 NA
ATOM     12  C   UNL     1      44.856   3.868  10.224  0.00  0.00    +0.000 A 
ATOM     13  C   UNL     1      45.339   5.162  10.439  0.00  0.00    +0.000 A 
BRANCH  12  14
ATOM     14  C   UNL     1      44.835   3.327   8.801  0.00  0.00    +0.000 C 
ATOM     15  F   UNL     1      44.182   2.139   8.655  0.00  0.00    +0.000 F 
ATOM     16  F   UNL     1      44.240   4.187   7.923  0.00  0.00    +0.000 F 
ATOM     17  F   UNL     1      46.092   3.120   8.307  0.00  0.00    +0.000 F 
ENDBRANCH  12  14
ENDBRANCH   6   8
BRANCH   1  18
ATOM     18  C   UNL     1      49.221   8.270  13.255  0.00  0.00    +0.000 C 
BRANCH  18  19
ATOM     19  O   UNL     1      49.314   8.471  14.659  0.00  0.00    +0.000 OA
BRANCH  19  26
ATOM     20  C   UNL     1      52.336   7.825  15.431  0.00  0.00    +0.000 C 
ATOM     21  C   UNL     1      51.075   7.118  15.847  0.00  0.00    +0.000 A 
ATOM     22  C   UNL     1      51.261   6.013  16.712  0.00  0.00    +0.000 A 
ATOM     23  C   UNL     1      50.194   5.247  17.203  0.00  0.00    +0.000 A 
ATOM     24  C   UNL     1      48.903   5.589  16.815  0.00  0.00    +0.000 A 
ATOM     25  C   UNL     1      48.700   6.677  15.955  0.00  0.00    +0.000 A 
ATOM     26  C   UNL     1      49.766   7.455  15.463  0.00  0.00    +0.000 A 
BRANCH  23  27
ATOM     27  C   UNL     1      50.524   4.114  18.118  0.00  0.00    +0.000 C 
ATOM     28  N   UNL     1      50.095   2.858  17.793  0.00  0.00    +0.000 N 
ATOM     29  O   UNL     1      51.166   4.289  19.146  0.00  0.00    +0.000 OA
ATOM     30  H   UNL     1      49.575   2.615  16.968  0.00  0.00    +0.000 HD
ATOM     31  H   UNL     1      50.343   2.116  18.435  0.00  0.00    +0.000 HD
ENDBRANCH  23  27
ENDBRANCH  19  26
ENDBRANCH  18  19
ENDBRANCH   1  18
TORSDOF 6
ENDMDL
MODEL 9
REMARK VINA RESULT:    -6.428      4.611      8.333
REMARK INTER + INTRA:          -9.511
REMARK INTER:                  -8.464
REMARK INTRA:                  -1.046
REMARK UNBOUND:                -0.829
REMARK  Name = 
REMARK  7 active torsions:
REMARK  status: ('A' for Active; 'I' for Inactive)
REMARK    1  A    between atoms: C_1  and  C_2
REMARK    2  A    between atoms: C_4  and  C_5
REMARK    3  A    between atoms: C_10  and  O_11
REMARK    4  A    between atoms: O_11  and  C_12
REMARK    5  A    between atoms: C_12  and  C_13
REMARK    6  A    between atoms: C_18  and  C_19
REMARK    7  A    between atoms: C_23  and  C_24
REMARK                            x       y       z     vdW  Elec       q    Type
REMARK                         _______ _______ _______ _____ _____    ______ ____
ROOT
ATOM      1  C   UNL     1      49.167   8.425  13.311  0.00  0.00    +0.000 A 
ATOM      2  C   UNL     1      48.580   9.600  12.845  0.00  0.00    +0.000 A 
ATOM      3  C   UNL     1      47.293   9.544  12.322  0.00  0.00    +0.000 A 
ATOM      4  C   UNL     1      46.628   8.325  12.284  0.00  0.00    +0.000 A 
ATOM      5  F   UNL     1      45.386   8.290  11.780  0.00  0.00    +0.000 F 
ATOM      6  C   UNL     1      47.257   7.177  12.765  0.00  0.00    +0.000 A 
ATOM      7  N   UNL     1      48.518   7.228  13.283  0.00  0.00    +0.000 NA
ENDROOT
BRANCH   6   8
ATOM      8  C   UNL     1      46.648   5.832  12.730  0.00  0.00    +0.000 A 
ATOM      9  C   UNL     1      47.062   4.836  13.625  0.00  0.00    +0.000 A 
ATOM     10  C   UNL     1      46.491   3.576  13.558  0.00  0.00    +0.000 A 
ATOM     11  N   UNL     1      45.545   3.229  12.662  0.00  0.00    +0.000 NA
ATOM     12  C   UNL     1      45.137   4.180  11.778  0.00  0.00    +0.000 A 
ATOM     13  C   UNL     1      45.664   5.475  11.794  0.00  0.00    +0.000 A 
BRANCH  12  14
ATOM     14  C   UNL     1      44.097   3.832  10.721  0.00  0.00    +0.000 C 
ATOM     15  F   UNL     1      43.446   4.906  10.191  0.00  0.00    +0.000 F 
ATOM     16  F   UNL     1      44.633   3.162   9.659  0.00  0.00    +0.000 F 
ATOM     17  F   UNL     1      43.118   3.012  11.208  0.00  0.00    +0.000 F 
ENDBRANCH  12  14
ENDBRANCH   6   8
BRANCH   1  18
ATOM     18  C   UNL     1      50.606   8.427  13.787  0.00  0.00    +0.000 C 
BRANCH  18  19
ATOM     19  O   UNL     1      50.696   8.697  15.180  0.00  0.00    +0.000 OA
BRANCH  19  26
ATOM     20  C   UNL     1      48.107   9.415  16.889  0.00  0.00    +0.000 C 
ATOM     21  C   UNL     1      48.899   8.137  16.852  0.00  0.00    +0.000 A 
ATOM     22  C   UNL     1      48.416   7.105  17.692  0.00  0.00    +0.000 A 
ATOM     23  C   UNL     1      49.028   5.846  17.774  0.00  0.00    +0.000 A 
ATOM     24  C   UNL     1      50.160   5.611  16.999  0.00  0.00    +0.000 A 
ATOM     25  C   UNL     1      50.655   6.623  16.165  0.00  0.00    +0.000 A 
ATOM     26  C   UNL     1      50.042   7.887  16.073  0.00  0.00    +0.000 A 
BRANCH  23  27
ATOM     27  C   UNL     1      48.414   4.840  18.689  0.00  0.00    +0.000 C 
ATOM     28  N   UNL     1      47.152   4.388  18.422  0.00  0.00    +0.000 N 
ATOM     29  O   UNL     1      49.015   4.417  19.669  0.00  0.00    +0.000 OA
ATOM     30  H   UNL     1      46.588   4.666  17.638  0.00  0.00    +0.000 HD
ATOM     31  H   UNL     1      46.773   3.702  19.062  0.00  0.00    +0.000 HD
ENDBRANCH  23  27
ENDBRANCH  19  26
ENDBRANCH  18  19
ENDBRANCH   1  18
TORSDOF 6
ENDMDL
