MODEL 1
REMARK VINA RESULT:    -8.835      0.000      0.000
REMARK INTER + INTRA:         -11.798
REMARK INTER:                 -11.934
REMARK INTRA:                   0.136
REMARK UNBOUND:                 0.136
REMARK  Name = 
REMARK  6 active torsions:
REMARK  status: ('A' for Active; 'I' for Inactive)
REMARK    1  A    between atoms: C_2  and  C_3
REMARK    2  A    between atoms: C_6  and  N_7
REMARK    3  A    between atoms: N_7  and  C_8
REMARK    4  A    between atoms: C_8  and  C_9
REMARK    5  A    between atoms: C_13  and  C_14
REMARK    6  A    between atoms: C_18  and  C_19
REMARK                            x       y       z     vdW  Elec       q    Type
REMARK                         _______ _______ _______ _____ _____    ______ ____
ROOT
ATOM      1  C   UNL     1      45.312   5.596  12.013  0.00  0.00    +0.000 A 
ATOM      2  C   UNL     1      45.945   6.390  11.046  0.00  0.00    +0.000 A 
ATOM      3  C   UNL     1      47.149   7.033  11.324  0.00  0.00    +0.000 A 
ATOM      4  C   UNL     1      47.756   6.864  12.569  0.00  0.00    +0.000 A 
ATOM      5  C   UNL     1      47.170   6.064  13.563  0.00  0.00    +0.000 A 
ATOM      6  C   UNL     1      45.920   5.496  13.279  0.00  0.00    +0.000 A 
ENDROOT
BRANCH   5   7
ATOM      7  C   UNL     1      47.895   5.700  14.794  0.00  0.00    +0.000 A 
ATOM      8  C   UNL     1      49.026   6.377  15.257  0.00  0.00    +0.000 A 
ATOM      9  N   UNL     1      49.659   6.119  16.431  0.00  0.00    +0.000 NA
ATOM     10  C   UNL     1      49.146   5.124  17.196  0.00  0.00    +0.000 A 
ATOM     11  C   UNL     1      48.022   4.395  16.846  0.00  0.00    +0.000 A 
ATOM     12  C   UNL     1      47.403   4.686  15.631  0.00  0.00    +0.000 A 
BRANCH  11  13
ATOM     13  C   UNL     1      47.527   3.336  17.745  0.00  0.00    +0.000 C 
ATOM     14  N   UNL     1      48.261   3.071  18.872  0.00  0.00    +0.000 N 
ATOM     15  O   UNL     1      46.513   2.704  17.489  0.00  0.00    +0.000 OA
ATOM     16  H   UNL     1      49.210   3.387  19.004  0.00  0.00    +0.000 HD
ATOM     17  H   UNL     1      47.943   2.300  19.446  0.00  0.00    +0.000 HD
ENDBRANCH  11  13
ENDBRANCH   5   7
BRANCH   1  18
ATOM     18  C   UNL     1      44.069   4.777  11.698  0.00  0.00    +0.000 C 
ATOM     19  C   UNL     1      43.788   3.540  12.546  0.00  0.00    +0.000 C 
ATOM     20  C   UNL     1      42.986   4.776  12.764  0.00  0.00    +0.000 C 
BRANCH  18  21
ATOM     21  N   UNL     1      43.832   4.556  10.269  0.00  0.00    +0.000 N 
ATOM     22  H   UNL     1      42.852   4.559   9.992  0.00  0.00    +0.000 HD
BRANCH  21  26
ATOM     23  C   UNL     1      46.426   2.624   7.714  0.00  0.00    +0.000 A 
ATOM     24  N   UNL     1      45.795   1.850   8.621  0.00  0.00    +0.000 NA
ATOM     25  C   UNL     1      44.924   2.484   9.442  0.00  0.00    +0.000 A 
ATOM     26  C   UNL     1      44.638   3.833   9.385  0.00  0.00    +0.000 A 
ATOM     27  C   UNL     1      45.370   4.511   8.417  0.00  0.00    +0.000 A 
ATOM     28  N   UNL     1      46.252   3.948   7.566  0.00  0.00    +0.000 NA
BRANCH  23  30
ATOM     29  N   UNL     1      48.180   1.473   6.170  0.00  0.00    +0.000 NA
ATOM     30  C   UNL     1      47.393   1.995   6.853  0.00  0.00    +0.000 C 
ENDBRANCH  23  30
ENDBRANCH  21  26
ENDBRANCH  18  21
ENDBRANCH   1  18
TORSDOF 6
ENDMDL
MODEL 2
REMARK VINA RESULT:    -8.799      3.349      4.650
REMARK INTER + INTRA:         -11.749
REMARK INTER:                 -10.922
REMARK INTRA:                  -0.827
REMARK UNBOUND:                 0.136
REMARK  Name = 
REMARK  6 active torsions:
REMARK  status: ('A' for Active; 'I' for Inactive)
REMARK    1  A    between atoms: C_2  and  C_3
REMARK    2  A    between atoms: C_6  and  N_7
REMARK    3  A    between atoms: N_7  and  C_8
REMARK    4  A    between atoms: C_8  and  C_9
REMARK    5  A    between atoms: C_13  and  C_14
REMARK    6  A    between atoms: C_18  and  C_19
REMARK                            x       y       z     vdW  Elec       q    Type
REMARK                         _______ _______ _______ _____ _____    ______ ____
ROOT
ATOM      1  C   UNL     1      45.219   5.169  11.895  0.00  0.00    +0.000 A 
ATOM      2  C   UNL     1      45.614   4.342  12.956  0.00  0.00    +0.000 A 
ATOM      3  C   UNL     1      46.806   4.575  13.640  0.00  0.00    +0.000 A 
ATOM      4  C   UNL     1      47.606   5.662  13.291  0.00  0.00    +0.000 A 
ATOM      5  C   UNL     1      47.244   6.529  12.247  0.00  0.00    +0.000 A 
ATOM      6  C   UNL     1      46.080   6.220  11.529  0.00  0.00    +0.000 A 
ENDROOT
BRANCH   5   7
ATOM      7  C   UNL     1      47.957   7.797  12.009  0.00  0.00    +0.000 A 
ATOM      8  C   UNL     1      47.359   9.056  12.118  0.00  0.00    +0.000 A 
ATOM      9  N   UNL     1      48.013  10.239  11.990  0.00  0.00    +0.000 NA
ATOM     10  C   UNL     1      49.343  10.178  11.733  0.00  0.00    +0.000 A 
ATOM     11  C   UNL     1      50.044   8.989  11.619  0.00  0.00    +0.000 A 
ATOM     12  C   UNL     1      49.336   7.795  11.751  0.00  0.00    +0.000 A 
BRANCH  11  13
ATOM     13  C   UNL     1      51.494   9.017  11.349  0.00  0.00    +0.000 C 
ATOM     14  N   UNL     1      51.908   9.625  10.193  0.00  0.00    +0.000 N 
ATOM     15  O   UNL     1      52.295   8.501  12.114  0.00  0.00    +0.000 OA
ATOM     16  H   UNL     1      51.287   9.846   9.428  0.00  0.00    +0.000 HD
ATOM     17  H   UNL     1      52.899   9.581   9.991  0.00  0.00    +0.000 HD
ENDBRANCH  11  13
ENDBRANCH   5   7
BRANCH   1  18
ATOM     18  C   UNL     1      43.865   5.021  11.217  0.00  0.00    +0.000 C 
ATOM     19  C   UNL     1      42.613   5.108  12.083  0.00  0.00    +0.000 C 
ATOM     20  C   UNL     1      42.985   6.258  11.214  0.00  0.00    +0.000 C 
BRANCH  18  21
ATOM     21  N   UNL     1      43.797   3.947  10.222  0.00  0.00    +0.000 N 
ATOM     22  H   UNL     1      43.167   3.184  10.458  0.00  0.00    +0.000 HD
BRANCH  21  26
ATOM     23  C   UNL     1      46.591   2.574   7.520  0.00  0.00    +0.000 A 
ATOM     24  N   UNL     1      46.321   3.896   7.480  0.00  0.00    +0.000 NA
ATOM     25  C   UNL     1      45.421   4.347   8.386  0.00  0.00    +0.000 A 
ATOM     26  C   UNL     1      44.804   3.557   9.335  0.00  0.00    +0.000 A 
ATOM     27  C   UNL     1      45.162   2.216   9.253  0.00  0.00    +0.000 A 
ATOM     28  N   UNL     1      46.048   1.695   8.380  0.00  0.00    +0.000 NA
BRANCH  23  30
ATOM     29  N   UNL     1      48.265   1.625   5.764  0.00  0.00    +0.000 NA
ATOM     30  C   UNL     1      47.508   2.048   6.544  0.00  0.00    +0.000 C 
ENDBRANCH  23  30
ENDBRANCH  21  26
ENDBRANCH  18  21
ENDBRANCH   1  18
TORSDOF 6
ENDMDL
MODEL 3
REMARK VINA RESULT:    -8.795      2.866      7.980
REMARK INTER + INTRA:         -11.745
REMARK INTER:                 -10.831
REMARK INTRA:                  -0.914
REMARK UNBOUND:                 0.136
REMARK  Name = 
REMARK  6 active torsions:
REMARK  status: ('A' for Active; 'I' for Inactive)
REMARK    1  A    between atoms: C_2  and  C_3
REMARK    2  A    between atoms: C_6  and  N_7
REMARK    3  A    between atoms: N_7  and  C_8
REMARK    4  A    between atoms: C_8  and  C_9
REMARK    5  A    between atoms: C_13  and  C_14
REMARK    6  A    between atoms: C_18  and  C_19
REMARK                            x       y       z     vdW  Elec       q    Type
REMARK                         _______ _______ _______ _____ _____    ______ ____
ROOT
ATOM      1  C   UNL     1      45.233   6.494  11.551  0.00  0.00    +0.000 A 
ATOM      2  C   UNL     1      43.859   6.568  11.818  0.00  0.00    +0.000 A 
ATOM      3  C   UNL     1      42.958   5.716  11.183  0.00  0.00    +0.000 A 
ATOM      4  C   UNL     1      43.426   4.749  10.293  0.00  0.00    +0.000 A 
ATOM      5  C   UNL     1      44.796   4.623  10.007  0.00  0.00    +0.000 A 
ATOM      6  C   UNL     1      45.665   5.549  10.601  0.00  0.00    +0.000 A 
ENDROOT
BRANCH   5   7
ATOM      7  C   UNL     1      45.327   3.479   9.245  0.00  0.00    +0.000 A 
ATOM      8  C   UNL     1      45.009   2.147   9.523  0.00  0.00    +0.000 A 
ATOM      9  N   UNL     1      45.414   1.081   8.784  0.00  0.00    +0.000 NA
ATOM     10  C   UNL     1      46.187   1.346   7.702  0.00  0.00    +0.000 A 
ATOM     11  C   UNL     1      46.553   2.626   7.321  0.00  0.00    +0.000 A 
ATOM     12  C   UNL     1      46.123   3.694   8.109  0.00  0.00    +0.000 A 
BRANCH  11  13
ATOM     13  C   UNL     1      47.389   2.823   6.122  0.00  0.00    +0.000 C 
ATOM     14  N   UNL     1      48.731   2.571   6.241  0.00  0.00    +0.000 N 
ATOM     15  O   UNL     1      46.910   3.214   5.068  0.00  0.00    +0.000 OA
ATOM     16  H   UNL     1      49.203   2.483   7.128  0.00  0.00    +0.000 HD
ATOM     17  H   UNL     1      49.300   2.770   5.428  0.00  0.00    +0.000 HD
ENDBRANCH  11  13
ENDBRANCH   5   7
BRANCH   1  18
ATOM     18  C   UNL     1      46.252   7.319  12.323  0.00  0.00    +0.000 C 
ATOM     19  C   UNL     1      46.619   8.698  11.783  0.00  0.00    +0.000 C 
ATOM     20  C   UNL     1      45.726   8.588  12.970  0.00  0.00    +0.000 C 
BRANCH  18  21
ATOM     21  N   UNL     1      47.415   6.563  12.796  0.00  0.00    +0.000 N 
ATOM     22  H   UNL     1      47.967   6.124  12.062  0.00  0.00    +0.000 HD
BRANCH  21  26
ATOM     23  C   UNL     1      47.885   4.426  16.290  0.00  0.00    +0.000 A 
ATOM     24  N   UNL     1      48.575   5.583  16.200  0.00  0.00    +0.000 NA
ATOM     25  C   UNL     1      48.398   6.295  15.061  0.00  0.00    +0.000 A 
ATOM     26  C   UNL     1      47.557   5.925  14.031  0.00  0.00    +0.000 A 
ATOM     27  C   UNL     1      46.923   4.707  14.248  0.00  0.00    +0.000 A 
ATOM     28  N   UNL     1      47.050   3.945  15.354  0.00  0.00    +0.000 NA
BRANCH  23  30
ATOM     29  N   UNL     1      48.259   2.970  18.417  0.00  0.00    +0.000 NA
ATOM     30  C   UNL     1      48.082   3.619  17.465  0.00  0.00    +0.000 C 
ENDBRANCH  23  30
ENDBRANCH  21  26
ENDBRANCH  18  21
ENDBRANCH   1  18
TORSDOF 6
ENDMDL
MODEL 4
REMARK VINA RESULT:    -7.874      3.139      8.250
REMARK INTER + INTRA:         -10.501
REMARK INTER:                  -9.945
REMARK INTRA:                  -0.555
REMARK UNBOUND:                 0.136
REMARK  Name = 
REMARK  6 active torsions:
REMARK  status: ('A' for Active; 'I' for Inactive)
REMARK    1  A    between atoms: C_2  and  C_3
REMARK    2  A    between atoms: C_6  and  N_7
REMARK    3  A    between atoms: N_7  and  C_8
REMARK    4  A    between atoms: C_8  and  C_9
REMARK    5  A    between atoms: C_13  and  C_14
REMARK    6  A    between atoms: C_18  and  C_19
REMARK                            x       y       z     vdW  Elec       q    Type
REMARK                         _______ _______ _______ _____ _____    ______ ____
ROOT
ATOM      1  C   UNL     1      47.931   5.133  15.573  0.00  0.00    +0.000 A 
ATOM      2  C   UNL     1      48.603   6.301  15.184  0.00  0.00    +0.000 A 
ATOM      3  C   UNL     1      48.288   6.944  13.989  0.00  0.00    +0.000 A 
ATOM      4  C   UNL     1      47.269   6.444  13.178  0.00  0.00    +0.000 A 
ATOM      5  C   UNL     1      46.555   5.287  13.534  0.00  0.00    +0.000 A 
ATOM      6  C   UNL     1      46.951   4.621  14.702  0.00  0.00    +0.000 A 
ENDROOT
BRANCH   5   7
ATOM      7  C   UNL     1      45.341   4.871  12.809  0.00  0.00    +0.000 A 
ATOM      8  C   UNL     1      44.043   5.142  13.249  0.00  0.00    +0.000 A 
ATOM      9  N   UNL     1      42.911   4.848  12.559  0.00  0.00    +0.000 NA
ATOM     10  C   UNL     1      43.069   4.242  11.356  0.00  0.00    +0.000 A 
ATOM     11  C   UNL     1      44.306   3.938  10.812  0.00  0.00    +0.000 A 
ATOM     12  C   UNL     1      45.444   4.251  11.555  0.00  0.00    +0.000 A 
BRANCH  11  13
ATOM     13  C   UNL     1      44.385   3.287   9.490  0.00  0.00    +0.000 C 
ATOM     14  N   UNL     1      44.204   4.079   8.386  0.00  0.00    +0.000 N 
ATOM     15  O   UNL     1      44.585   2.087   9.382  0.00  0.00    +0.000 OA
ATOM     16  H   UNL     1      43.805   5.005   8.426  0.00  0.00    +0.000 HD
ATOM     17  H   UNL     1      44.198   3.607   7.491  0.00  0.00    +0.000 HD
ENDBRANCH  11  13
ENDBRANCH   5   7
BRANCH   1  18
ATOM     18  C   UNL     1      48.160   4.484  16.930  0.00  0.00    +0.000 C 
ATOM     19  C   UNL     1      47.146   4.753  18.037  0.00  0.00    +0.000 C 
ATOM     20  C   UNL     1      47.143   3.434  17.344  0.00  0.00    +0.000 C 
BRANCH  18  21
ATOM     21  N   UNL     1      49.547   4.532  17.401  0.00  0.00    +0.000 N 
ATOM     22  H   UNL     1      49.992   5.444  17.328  0.00  0.00    +0.000 HD
BRANCH  21  26
ATOM     23  C   UNL     1      52.318   1.496  17.712  0.00  0.00    +0.000 A 
ATOM     24  N   UNL     1      51.141   1.174  17.135  0.00  0.00    +0.000 NA
ATOM     25  C   UNL     1      50.243   2.180  17.012  0.00  0.00    +0.000 A 
ATOM     26  C   UNL     1      50.469   3.482  17.409  0.00  0.00    +0.000 A 
ATOM     27  C   UNL     1      51.714   3.670  18.000  0.00  0.00    +0.000 A 
ATOM     28  N   UNL     1      52.657   2.718  18.157  0.00  0.00    +0.000 NA
BRANCH  23  30
ATOM     29  N   UNL     1      54.067  -0.406  18.038  0.00  0.00    +0.000 NA
ATOM     30  C   UNL     1      53.282   0.445  17.902  0.00  0.00    +0.000 C 
ENDBRANCH  23  30
ENDBRANCH  21  26
ENDBRANCH  18  21
ENDBRANCH   1  18
TORSDOF 6
ENDMDL
MODEL 5
REMARK VINA RESULT:    -7.744      2.688      3.489
REMARK INTER + INTRA:         -10.324
REMARK INTER:                  -9.747
REMARK INTRA:                  -0.577
REMARK UNBOUND:                 0.136
REMARK  Name = 
REMARK  6 active torsions:
REMARK  status: ('A' for Active; 'I' for Inactive)
REMARK    1  A    between atoms: C_2  and  C_3
REMARK    2  A    between atoms: C_6  and  N_7
REMARK    3  A    between atoms: N_7  and  C_8
REMARK    4  A    between atoms: C_8  and  C_9
REMARK    5  A    between atoms: C_13  and  C_14
REMARK    6  A    between atoms: C_18  and  C_19
REMARK                            x       y       z     vdW  Elec       q    Type
REMARK                         _______ _______ _______ _____ _____    ______ ____
ROOT
ATOM      1  C   UNL     1      45.153   4.936  12.060  0.00  0.00    +0.000 A 
ATOM      2  C   UNL     1      45.623   3.829  12.781  0.00  0.00    +0.000 A 
ATOM      3  C   UNL     1      46.806   3.899  13.512  0.00  0.00    +0.000 A 
ATOM      4  C   UNL     1      47.525   5.094  13.559  0.00  0.00    +0.000 A 
ATOM      5  C   UNL     1      47.085   6.236  12.869  0.00  0.00    +0.000 A 
ATOM      6  C   UNL     1      45.934   6.108  12.079  0.00  0.00    +0.000 A 
ENDROOT
BRANCH   5   7
ATOM      7  C   UNL     1      47.705   7.556  13.080  0.00  0.00    +0.000 A 
ATOM      8  C   UNL     1      47.862   8.510  12.071  0.00  0.00    +0.000 A 
ATOM      9  N   UNL     1      48.348   9.765  12.257  0.00  0.00    +0.000 NA
ATOM     10  C   UNL     1      48.707  10.100  13.521  0.00  0.00    +0.000 A 
ATOM     11  C   UNL     1      48.583   9.243  14.601  0.00  0.00    +0.000 A 
ATOM     12  C   UNL     1      48.085   7.961  14.368  0.00  0.00    +0.000 A 
BRANCH  11  13
ATOM     13  C   UNL     1      48.990   9.695  15.945  0.00  0.00    +0.000 C 
ATOM     14  N   UNL     1      50.333   9.800  16.195  0.00  0.00    +0.000 N 
ATOM     15  O   UNL     1      48.165   9.947  16.811  0.00  0.00    +0.000 OA
ATOM     16  H   UNL     1      51.042   9.382  15.610  0.00  0.00    +0.000 HD
ATOM     17  H   UNL     1      50.597  10.051  17.140  0.00  0.00    +0.000 HD
ENDBRANCH  11  13
ENDBRANCH   5   7
BRANCH   1  18
ATOM     18  C   UNL     1      43.801   4.932  11.362  0.00  0.00    +0.000 C 
ATOM     19  C   UNL     1      42.718   4.002  11.898  0.00  0.00    +0.000 C 
ATOM     20  C   UNL     1      42.632   5.463  12.175  0.00  0.00    +0.000 C 
BRANCH  18  21
ATOM     21  N   UNL     1      43.872   4.943   9.899  0.00  0.00    +0.000 N 
ATOM     22  H   UNL     1      43.011   5.220   9.431  0.00  0.00    +0.000 HD
BRANCH  21  26
ATOM     23  C   UNL     1      46.525   2.764   7.617  0.00  0.00    +0.000 A 
ATOM     24  N   UNL     1      45.640   2.052   8.347  0.00  0.00    +0.000 NA
ATOM     25  C   UNL     1      44.753   2.772   9.075  0.00  0.00    +0.000 A 
ATOM     26  C   UNL     1      44.692   4.151   9.091  0.00  0.00    +0.000 A 
ATOM     27  C   UNL     1      45.670   4.755   8.309  0.00  0.00    +0.000 A 
ATOM     28  N   UNL     1      46.584   4.105   7.559  0.00  0.00    +0.000 NA
BRANCH  23  30
ATOM     29  N   UNL     1      48.304   1.429   6.261  0.00  0.00    +0.000 NA
ATOM     30  C   UNL     1      47.512   2.036   6.865  0.00  0.00    +0.000 C 
ENDBRANCH  23  30
ENDBRANCH  21  26
ENDBRANCH  18  21
ENDBRANCH   1  18
TORSDOF 6
ENDMDL
MODEL 6
REMARK VINA RESULT:    -7.473      3.236      4.958
REMARK INTER + INTRA:          -9.958
REMARK INTER:                  -9.104
REMARK INTRA:                  -0.855
REMARK UNBOUND:                 0.136
REMARK  Name = 
REMARK  6 active torsions:
REMARK  status: ('A' for Active; 'I' for Inactive)
REMARK    1  A    between atoms: C_2  and  C_3
REMARK    2  A    between atoms: C_6  and  N_7
REMARK    3  A    between atoms: N_7  and  C_8
REMARK    4  A    between atoms: C_8  and  C_9
REMARK    5  A    between atoms: C_13  and  C_14
REMARK    6  A    between atoms: C_18  and  C_19
REMARK                            x       y       z     vdW  Elec       q    Type
REMARK                         _______ _______ _______ _____ _____    ______ ____
ROOT
ATOM      1  C   UNL     1      48.433   7.703  15.004  0.00  0.00    +0.000 A 
ATOM      2  C   UNL     1      48.339   8.897  15.732  0.00  0.00    +0.000 A 
ATOM      3  C   UNL     1      48.838   8.986  17.030  0.00  0.00    +0.000 A 
ATOM      4  C   UNL     1      49.469   7.884  17.609  0.00  0.00    +0.000 A 
ATOM      5  C   UNL     1      49.603   6.672  16.912  0.00  0.00    +0.000 A 
ATOM      6  C   UNL     1      49.020   6.593  15.639  0.00  0.00    +0.000 A 
ENDROOT
BRANCH   5   7
ATOM      7  C   UNL     1      50.451   5.576  17.417  0.00  0.00    +0.000 A 
ATOM      8  C   UNL     1      51.438   5.745  18.391  0.00  0.00    +0.000 A 
ATOM      9  N   UNL     1      52.171   4.740  18.936  0.00  0.00    +0.000 NA
ATOM     10  C   UNL     1      51.917   3.486  18.488  0.00  0.00    +0.000 A 
ATOM     11  C   UNL     1      50.953   3.197  17.537  0.00  0.00    +0.000 A 
ATOM     12  C   UNL     1      50.225   4.257  16.997  0.00  0.00    +0.000 A 
BRANCH  11  13
ATOM     13  C   UNL     1      50.736   1.800  17.115  0.00  0.00    +0.000 C 
ATOM     14  N   UNL     1      51.424   0.824  17.788  0.00  0.00    +0.000 N 
ATOM     15  O   UNL     1      49.989   1.522  16.188  0.00  0.00    +0.000 OA
ATOM     16  H   UNL     1      52.216   1.013  18.383  0.00  0.00    +0.000 HD
ATOM     17  H   UNL     1      51.312  -0.122  17.446  0.00  0.00    +0.000 HD
ENDBRANCH  11  13
ENDBRANCH   5   7
BRANCH   1  18
ATOM     18  C   UNL     1      48.018   7.613  13.543  0.00  0.00    +0.000 C 
ATOM     19  C   UNL     1      48.739   8.502  12.534  0.00  0.00    +0.000 C 
ATOM     20  C   UNL     1      49.057   7.048  12.590  0.00  0.00    +0.000 C 
BRANCH  18  21
ATOM     21  N   UNL     1      46.570   7.559  13.323  0.00  0.00    +0.000 N 
ATOM     22  H   UNL     1      46.040   8.297  13.782  0.00  0.00    +0.000 HD
BRANCH  21  26
ATOM     23  C   UNL     1      44.344   4.247  12.289  0.00  0.00    +0.000 A 
ATOM     24  N   UNL     1      45.275   4.065  13.251  0.00  0.00    +0.000 NA
ATOM     25  C   UNL     1      45.986   5.162  13.606  0.00  0.00    +0.000 A 
ATOM     26  C   UNL     1      45.799   6.421  13.071  0.00  0.00    +0.000 A 
ATOM     27  C   UNL     1      44.823   6.461  12.083  0.00  0.00    +0.000 A 
ATOM     28  N   UNL     1      44.076   5.413  11.678  0.00  0.00    +0.000 NA
BRANCH  23  30
ATOM     29  N   UNL     1      43.008   2.161  11.486  0.00  0.00    +0.000 NA
ATOM     30  C   UNL     1      43.599   3.096  11.853  0.00  0.00    +0.000 C 
ENDBRANCH  23  30
ENDBRANCH  21  26
ENDBRANCH  18  21
ENDBRANCH   1  18
TORSDOF 6
ENDMDL
MODEL 7
REMARK VINA RESULT:    -7.440      2.703      8.223
REMARK INTER + INTRA:          -9.914
REMARK INTER:                  -8.968
REMARK INTRA:                  -0.946
REMARK UNBOUND:                 0.136
REMARK  Name = 
REMARK  6 active torsions:
REMARK  status: ('A' for Active; 'I' for Inactive)
REMARK    1  A    between atoms: C_2  and  C_3
REMARK    2  A    between atoms: C_6  and  N_7
REMARK    3  A    between atoms: N_7  and  C_8
REMARK    4  A    between atoms: C_8  and  C_9
REMARK    5  A    between atoms: C_13  and  C_14
REMARK    6  A    between atoms: C_18  and  C_19
REMARK                            x       y       z     vdW  Elec       q    Type
REMARK                         _______ _______ _______ _____ _____    ______ ____
ROOT
ATOM      1  C   UNL     1      47.842   8.004  12.326  0.00  0.00    +0.000 A 
ATOM      2  C   UNL     1      47.038   9.139  12.504  0.00  0.00    +0.000 A 
ATOM      3  C   UNL     1      45.655   9.068  12.352  0.00  0.00    +0.000 A 
ATOM      4  C   UNL     1      45.051   7.848  12.048  0.00  0.00    +0.000 A 
ATOM      5  C   UNL     1      45.813   6.680  11.878  0.00  0.00    +0.000 A 
ATOM      6  C   UNL     1      47.206   6.803  11.960  0.00  0.00    +0.000 A 
ENDROOT
BRANCH   5   7
ATOM      7  C   UNL     1      45.183   5.351  11.775  0.00  0.00    +0.000 A 
ATOM      8  C   UNL     1      44.482   4.741  12.819  0.00  0.00    +0.000 A 
ATOM      9  N   UNL     1      43.818   3.560  12.723  0.00  0.00    +0.000 NA
ATOM     10  C   UNL     1      43.852   2.936  11.520  0.00  0.00    +0.000 A 
ATOM     11  C   UNL     1      44.502   3.452  10.411  0.00  0.00    +0.000 A 
ATOM     12  C   UNL     1      45.177   4.664  10.551  0.00  0.00    +0.000 A 
BRANCH  11  13
ATOM     13  C   UNL     1      44.478   2.709   9.137  0.00  0.00    +0.000 C 
ATOM     14  N   UNL     1      44.405   3.442   7.981  0.00  0.00    +0.000 N 
ATOM     15  O   UNL     1      44.504   1.487   9.109  0.00  0.00    +0.000 OA
ATOM     16  H   UNL     1      44.143   4.417   7.957  0.00  0.00    +0.000 HD
ATOM     17  H   UNL     1      44.326   2.917   7.119  0.00  0.00    +0.000 HD
ENDBRANCH  11  13
ENDBRANCH   5   7
BRANCH   1  18
ATOM     18  C   UNL     1      49.336   8.020  12.614  0.00  0.00    +0.000 C 
ATOM     19  C   UNL     1      50.297   7.881  11.437  0.00  0.00    +0.000 C 
ATOM     20  C   UNL     1      50.104   9.214  12.074  0.00  0.00    +0.000 C 
BRANCH  18  21
ATOM     21  N   UNL     1      49.740   7.226  13.777  0.00  0.00    +0.000 N 
ATOM     22  H   UNL     1      50.046   6.279  13.564  0.00  0.00    +0.000 HD
BRANCH  21  26
ATOM     23  C   UNL     1      48.573   7.419  17.726  0.00  0.00    +0.000 A 
ATOM     24  N   UNL     1      48.758   8.600  17.099  0.00  0.00    +0.000 NA
ATOM     25  C   UNL     1      49.116   8.533  15.795  0.00  0.00    +0.000 A 
ATOM     26  C   UNL     1      49.273   7.358  15.088  0.00  0.00    +0.000 A 
ATOM     27  C   UNL     1      49.068   6.219  15.859  0.00  0.00    +0.000 A 
ATOM     28  N   UNL     1      48.710   6.208  17.159  0.00  0.00    +0.000 NA
BRANCH  23  30
ATOM     29  N   UNL     1      47.949   7.484  20.254  0.00  0.00    +0.000 NA
ATOM     30  C   UNL     1      48.236   7.448  19.124  0.00  0.00    +0.000 C 
ENDBRANCH  23  30
ENDBRANCH  21  26
ENDBRANCH  18  21
ENDBRANCH   1  18
TORSDOF 6
ENDMDL
MODEL 8
REMARK VINA RESULT:    -7.114      2.664      7.607
REMARK INTER + INTRA:          -9.474
REMARK INTER:                  -9.269
REMARK INTRA:                  -0.204
REMARK UNBOUND:                 0.136
REMARK  Name = 
REMARK  6 active torsions:
REMARK  status: ('A' for Active; 'I' for Inactive)
REMARK    1  A    between atoms: C_2  and  C_3
REMARK    2  A    between atoms: C_6  and  N_7
REMARK    3  A    between atoms: N_7  and  C_8
REMARK    4  A    between atoms: C_8  and  C_9
REMARK    5  A    between atoms: C_13  and  C_14
REMARK    6  A    between atoms: C_18  and  C_19
REMARK                            x       y       z     vdW  Elec       q    Type
REMARK                         _______ _______ _______ _____ _____    ______ ____
ROOT
ATOM      1  C   UNL     1      48.562   7.601  14.293  0.00  0.00    +0.000 A 
ATOM      2  C   UNL     1      49.537   7.916  13.336  0.00  0.00    +0.000 A 
ATOM      3  C   UNL     1      49.346   7.608  11.991  0.00  0.00    +0.000 A 
ATOM      4  C   UNL     1      48.157   7.007  11.577  0.00  0.00    +0.000 A 
ATOM      5  C   UNL     1      47.143   6.690  12.496  0.00  0.00    +0.000 A 
ATOM      6  C   UNL     1      47.400   6.940  13.851  0.00  0.00    +0.000 A 
ENDROOT
BRANCH   5   7
ATOM      7  C   UNL     1      45.803   6.260  12.055  0.00  0.00    +0.000 A 
ATOM      8  C   UNL     1      44.759   7.144  11.773  0.00  0.00    +0.000 A 
ATOM      9  N   UNL     1      43.545   6.781  11.282  0.00  0.00    +0.000 NA
ATOM     10  C   UNL     1      43.348   5.458  11.059  0.00  0.00    +0.000 A 
ATOM     11  C   UNL     1      44.314   4.493  11.288  0.00  0.00    +0.000 A 
ATOM     12  C   UNL     1      45.545   4.905  11.798  0.00  0.00    +0.000 A 
BRANCH  11  13
ATOM     13  C   UNL     1      44.015   3.076  11.007  0.00  0.00    +0.000 C 
ATOM     14  N   UNL     1      44.887   2.396  10.197  0.00  0.00    +0.000 N 
ATOM     15  O   UNL     1      43.020   2.531  11.461  0.00  0.00    +0.000 OA
ATOM     16  H   UNL     1      45.574   2.852   9.614  0.00  0.00    +0.000 HD
ATOM     17  H   UNL     1      44.636   1.444   9.963  0.00  0.00    +0.000 HD
ENDBRANCH  11  13
ENDBRANCH   5   7
BRANCH   1  18
ATOM     18  C   UNL     1      48.683   8.041  15.745  0.00  0.00    +0.000 C 
ATOM     19  C   UNL     1      49.926   8.822  16.159  0.00  0.00    +0.000 C 
ATOM     20  C   UNL     1      48.631   9.539  15.992  0.00  0.00    +0.000 C 
BRANCH  18  21
ATOM     21  N   UNL     1      48.298   7.021  16.724  0.00  0.00    +0.000 N 
ATOM     22  H   UNL     1      47.813   7.377  17.545  0.00  0.00    +0.000 HD
BRANCH  21  26
ATOM     23  C   UNL     1      50.093   3.336  17.164  0.00  0.00    +0.000 A 
ATOM     24  N   UNL     1      50.858   4.411  17.449  0.00  0.00    +0.000 NA
ATOM     25  C   UNL     1      50.257   5.619  17.328  0.00  0.00    +0.000 A 
ATOM     26  C   UNL     1      48.938   5.802  16.964  0.00  0.00    +0.000 A 
ATOM     27  C   UNL     1      48.273   4.613  16.685  0.00  0.00    +0.000 A 
ATOM     28  N   UNL     1      48.805   3.378  16.783  0.00  0.00    +0.000 NA
BRANCH  23  30
ATOM     29  N   UNL     1      51.224   0.994  17.297  0.00  0.00    +0.000 NA
ATOM     30  C   UNL     1      50.708   2.037  17.238  0.00  0.00    +0.000 C 
ENDBRANCH  23  30
ENDBRANCH  21  26
ENDBRANCH  18  21
ENDBRANCH   1  18
TORSDOF 6
ENDMDL
MODEL 9
REMARK VINA RESULT:    -7.029      3.061      4.720
REMARK INTER + INTRA:          -9.359
REMARK INTER:                  -8.775
REMARK INTRA:                  -0.583
REMARK UNBOUND:                 0.136
REMARK  Name = 
REMARK  6 active torsions:
REMARK  status: ('A' for Active; 'I' for Inactive)
REMARK    1  A    between atoms: C_2  and  C_3
REMARK    2  A    between atoms: C_6  and  N_7
REMARK    3  A    between atoms: N_7  and  C_8
REMARK    4  A    between atoms: C_8  and  C_9
REMARK    5  A    between atoms: C_13  and  C_14
REMARK    6  A    between atoms: C_18  and  C_19
REMARK                            x       y       z     vdW  Elec       q    Type
REMARK                         _______ _______ _______ _____ _____    ______ ____
ROOT
ATOM      1  C   UNL     1      48.436   8.204  14.357  0.00  0.00    +0.000 A 
ATOM      2  C   UNL     1      49.422   9.186  14.530  0.00  0.00    +0.000 A 
ATOM      3  C   UNL     1      50.256   9.176  15.645  0.00  0.00    +0.000 A 
ATOM      4  C   UNL     1      50.136   8.160  16.593  0.00  0.00    +0.000 A 
ATOM      5  C   UNL     1      49.176   7.144  16.455  0.00  0.00    +0.000 A 
ATOM      6  C   UNL     1      48.301   7.229  15.363  0.00  0.00    +0.000 A 
ENDROOT
BRANCH   5   7
ATOM      7  C   UNL     1      49.178   5.951  17.322  0.00  0.00    +0.000 A 
ATOM      8  C   UNL     1      48.643   5.929  18.612  0.00  0.00    +0.000 A 
ATOM      9  N   UNL     1      48.553   4.824  19.397  0.00  0.00    +0.000 NA
ATOM     10  C   UNL     1      49.025   3.665  18.876  0.00  0.00    +0.000 A 
ATOM     11  C   UNL     1      49.562   3.563  17.604  0.00  0.00    +0.000 A 
ATOM     12  C   UNL     1      49.643   4.722  16.831  0.00  0.00    +0.000 A 
BRANCH  11  13
ATOM     13  C   UNL     1      50.043   2.258  17.114  0.00  0.00    +0.000 C 
ATOM     14  N   UNL     1      50.981   1.606  17.872  0.00  0.00    +0.000 N 
ATOM     15  O   UNL     1      49.638   1.782  16.063  0.00  0.00    +0.000 OA
ATOM     16  H   UNL     1      51.514   2.054  18.602  0.00  0.00    +0.000 HD
ATOM     17  H   UNL     1      51.346   0.742  17.491  0.00  0.00    +0.000 HD
ENDBRANCH  11  13
ENDBRANCH   5   7
BRANCH   1  18
ATOM     18  C   UNL     1      47.600   8.112  13.089  0.00  0.00    +0.000 C 
ATOM     19  C   UNL     1      47.740   9.223  12.053  0.00  0.00    +0.000 C 
ATOM     20  C   UNL     1      48.373   7.899  11.798  0.00  0.00    +0.000 C 
BRANCH  18  21
ATOM     21  N   UNL     1      46.209   7.705  13.304  0.00  0.00    +0.000 N 
ATOM     22  H   UNL     1      45.795   8.040  14.171  0.00  0.00    +0.000 HD
BRANCH  21  26
ATOM     23  C   UNL     1      44.286   4.243  12.161  0.00  0.00    +0.000 A 
ATOM     24  N   UNL     1      44.022   5.344  11.425  0.00  0.00    +0.000 NA
ATOM     25  C   UNL     1      44.676   6.473  11.788  0.00  0.00    +0.000 A 
ATOM     26  C   UNL     1      45.587   6.550  12.822  0.00  0.00    +0.000 A 
ATOM     27  C   UNL     1      45.750   5.350  13.504  0.00  0.00    +0.000 A 
ATOM     28  N   UNL     1      45.135   4.188  13.201  0.00  0.00    +0.000 NA
BRANCH  23  30
ATOM     29  N   UNL     1      42.995   2.055  11.588  0.00  0.00    +0.000 NA
ATOM     30  C   UNL     1      43.577   3.034  11.835  0.00  0.00    +0.000 C 
ENDBRANCH  23  30
ENDBRANCH  21  26
ENDBRANCH  18  21
ENDBRANCH   1  18
TORSDOF 6
ENDMDL
