MODEL 1
REMARK VINA RESULT:    -7.025      0.000      0.000
REMARK INTER + INTRA:         -11.887
REMARK INTER:                 -10.516
REMARK INTRA:                  -1.370
REMARK UNBOUND:                -1.370
REMARK  Name = 
REMARK  10 active torsions:
REMARK  status: ('A' for Active; 'I' for Inactive)
REMARK    1  A    between atoms: C_1  and  O_2
REMARK    2  A    between atoms: O_2  and  C_3
REMARK    3  A    between atoms: C_10  and  C_11
REMARK    4  A    between atoms: N_13  and  C_14
REMARK    5  A    between atoms: C_14  and  C_15
REMARK    6  A    between atoms: C_18  and  O_19
REMARK    7  A    between atoms: O_19  and  C_20
REMARK    8  A    between atoms: C_20  and  C_21
REMARK    9  A    between atoms: C_21  and  C_22
REMARK   10  A    between atoms: C_22  and  O_24
REMARK                            x       y       z     vdW  Elec       q    Type
REMARK                         _______ _______ _______ _____ _____    ______ ____
ROOT
ATOM      1  C   UNL     1      48.659   7.012  14.925  0.00  0.00    +0.000 A 
ATOM      2  C   UNL     1      48.566   7.846  13.803  0.00  0.00    +0.000 A 
ATOM      3  C   UNL     1      47.781   7.484  12.698  0.00  0.00    +0.000 A 
ATOM      4  C   UNL     1      47.069   6.285  12.708  0.00  0.00    +0.000 A 
ATOM      5  C   UNL     1      47.132   5.468  13.838  0.00  0.00    +0.000 A 
ATOM      6  C   UNL     1      47.913   5.827  14.940  0.00  0.00    +0.000 A 
ENDROOT
BRANCH   1   7
ATOM      7  C   UNL     1      49.530   7.385  16.097  0.00  0.00    +0.000 C 
BRANCH   7  10
ATOM      8  C   UNL     1      50.905   6.176  17.731  0.00  0.00    +0.000 C 
ATOM      9  O   UNL     1      50.603   6.976  18.615  0.00  0.00    +0.000 OA
ATOM     10  N   UNL     1      50.426   6.314  16.456  0.00  0.00    +0.000 N 
ATOM     11  H   UNL     1      50.733   5.689  15.724  0.00  0.00    +0.000 HD
BRANCH   8  19
ATOM     12  C   UNL     1      50.613   2.779  17.198  0.00  0.00    +0.000 A 
ATOM     13  N   UNL     1      50.731   1.437  17.191  0.00  0.00    +0.000 NA
ATOM     14  C   UNL     1      51.824   0.893  17.731  0.00  0.00    +0.000 A 
ATOM     15  N   UNL     1      52.846   1.540  18.284  0.00  0.00    +0.000 NA
ATOM     16  C   UNL     1      52.687   2.873  18.284  0.00  0.00    +0.000 A 
ATOM     17  S   UNL     1      53.904   3.858  18.941  0.00  0.00    +0.000 S 
ATOM     18  C   UNL     1      53.012   5.265  18.609  0.00  0.00    +0.000 A 
ATOM     19  C   UNL     1      51.782   5.024  18.007  0.00  0.00    +0.000 A 
ATOM     20  C   UNL     1      51.604   3.591  17.783  0.00  0.00    +0.000 A 
BRANCH  12  22
ATOM     21  C   UNL     1      48.275   2.732  16.974  0.00  0.00    +0.000 C 
ATOM     22  O   UNL     1      49.507   3.345  16.597  0.00  0.00    +0.000 OA
ENDBRANCH  12  22
ENDBRANCH   8  19
ENDBRANCH   7  10
ENDBRANCH   1   7
BRANCH   4  23
ATOM     23  O   UNL     1      46.284   5.801  11.697  0.00  0.00    +0.000 OA
BRANCH  23  24
ATOM     24  C   UNL     1      45.583   4.575  11.934  0.00  0.00    +0.000 C 
BRANCH  24  25
ATOM     25  C   UNL     1      44.790   4.145  10.670  0.00  0.00    +0.000 C 
ATOM     26  C   UNL     1      45.015   2.661  10.350  0.00  0.00    +0.000 C 
ATOM     27  C   UNL     1      44.926   2.520   8.830  0.00  0.00    +0.000 C 
ATOM     28  C   UNL     1      45.041   3.923   8.244  0.00  0.00    +0.000 C 
ATOM     29  C   UNL     1      45.310   4.862   9.415  0.00  0.00    +0.000 C 
BRANCH  25  30
ATOM     30  C   UNL     1      43.319   4.463  10.970  0.00  0.00    +0.000 C 
ATOM     31  O   UNL     1      42.826   5.578  10.838  0.00  0.00    +0.000 OA
BRANCH  30  32
ATOM     32  O   UNL     1      42.555   3.441  11.406  0.00  0.00    +0.000 OA
ATOM     33  H   UNL     1      41.915   3.643  12.108  0.00  0.00    +0.000 HD
ENDBRANCH  30  32
ENDBRANCH  25  30
ENDBRANCH  24  25
ENDBRANCH  23  24
ENDBRANCH   4  23
TORSDOF 9
ENDMDL
MODEL 2
REMARK VINA RESULT:    -6.687      1.232      2.109
REMARK INTER + INTRA:         -11.379
REMARK INTER:                  -9.928
REMARK INTRA:                  -1.451
REMARK UNBOUND:                -1.370
REMARK  Name = 
REMARK  10 active torsions:
REMARK  status: ('A' for Active; 'I' for Inactive)
REMARK    1  A    between atoms: C_1  and  O_2
REMARK    2  A    between atoms: O_2  and  C_3
REMARK    3  A    between atoms: C_10  and  C_11
REMARK    4  A    between atoms: N_13  and  C_14
REMARK    5  A    between atoms: C_14  and  C_15
REMARK    6  A    between atoms: C_18  and  O_19
REMARK    7  A    between atoms: O_19  and  C_20
REMARK    8  A    between atoms: C_20  and  C_21
REMARK    9  A    between atoms: C_21  and  C_22
REMARK   10  A    between atoms: C_22  and  O_24
REMARK                            x       y       z     vdW  Elec       q    Type
REMARK                         _______ _______ _______ _____ _____    ______ ____
ROOT
ATOM      1  C   UNL     1      48.443   7.835  14.960  0.00  0.00    +0.000 A 
ATOM      2  C   UNL     1      48.330   6.515  14.505  0.00  0.00    +0.000 A 
ATOM      3  C   UNL     1      47.531   6.201  13.395  0.00  0.00    +0.000 A 
ATOM      4  C   UNL     1      46.843   7.208  12.720  0.00  0.00    +0.000 A 
ATOM      5  C   UNL     1      46.981   8.529  13.150  0.00  0.00    +0.000 A 
ATOM      6  C   UNL     1      47.777   8.845  14.254  0.00  0.00    +0.000 A 
ENDROOT
BRANCH   1   7
ATOM      7  C   UNL     1      49.274   8.167  16.173  0.00  0.00    +0.000 C 
BRANCH   7  10
ATOM      8  C   UNL     1      50.127   6.337  17.568  0.00  0.00    +0.000 C 
ATOM      9  O   UNL     1      49.213   6.493  18.376  0.00  0.00    +0.000 OA
ATOM     10  N   UNL     1      50.236   7.132  16.458  0.00  0.00    +0.000 N 
ATOM     11  H   UNL     1      51.027   7.037  15.837  0.00  0.00    +0.000 HD
BRANCH   8  19
ATOM     12  C   UNL     1      50.115   2.924  17.064  0.00  0.00    +0.000 A 
ATOM     13  N   UNL     1      50.362   1.599  17.043  0.00  0.00    +0.000 NA
ATOM     14  C   UNL     1      51.554   1.170  17.465  0.00  0.00    +0.000 A 
ATOM     15  N   UNL     1      52.560   1.918  17.908  0.00  0.00    +0.000 NA
ATOM     16  C   UNL     1      52.272   3.229  17.927  0.00  0.00    +0.000 A 
ATOM     17  S   UNL     1      53.449   4.334  18.453  0.00  0.00    +0.000 S 
ATOM     18  C   UNL     1      52.394   5.644  18.219  0.00  0.00    +0.000 A 
ATOM     19  C   UNL     1      51.137   5.279  17.749  0.00  0.00    +0.000 A 
ATOM     20  C   UNL     1      51.077   3.834  17.543  0.00  0.00    +0.000 A 
BRANCH  12  22
ATOM     21  C   UNL     1      47.833   3.246  17.519  0.00  0.00    +0.000 C 
ATOM     22  O   UNL     1      48.902   3.373  16.584  0.00  0.00    +0.000 OA
ENDBRANCH  12  22
ENDBRANCH   8  19
ENDBRANCH   7  10
ENDBRANCH   1   7
BRANCH   4  23
ATOM     23  O   UNL     1      46.018   7.042  11.641  0.00  0.00    +0.000 OA
BRANCH  23  24
ATOM     24  C   UNL     1      46.073   5.787  10.953  0.00  0.00    +0.000 C 
BRANCH  24  25
ATOM     25  C   UNL     1      44.752   4.996  11.153  0.00  0.00    +0.000 C 
ATOM     26  C   UNL     1      43.570   5.941  11.409  0.00  0.00    +0.000 C 
ATOM     27  C   UNL     1      42.602   5.196  12.328  0.00  0.00    +0.000 C 
ATOM     28  C   UNL     1      43.364   4.013  12.916  0.00  0.00    +0.000 C 
ATOM     29  C   UNL     1      44.804   4.138  12.427  0.00  0.00    +0.000 C 
BRANCH  25  30
ATOM     30  C   UNL     1      44.569   4.159   9.880  0.00  0.00    +0.000 C 
ATOM     31  O   UNL     1      45.139   3.092   9.682  0.00  0.00    +0.000 OA
BRANCH  30  32
ATOM     32  O   UNL     1      43.732   4.654   8.945  0.00  0.00    +0.000 OA
ATOM     33  H   UNL     1      42.893   4.183   8.818  0.00  0.00    +0.000 HD
ENDBRANCH  30  32
ENDBRANCH  25  30
ENDBRANCH  24  25
ENDBRANCH  23  24
ENDBRANCH   4  23
TORSDOF 9
ENDMDL
MODEL 3
REMARK VINA RESULT:    -6.375      2.181      2.385
REMARK INTER + INTRA:         -10.913
REMARK INTER:                  -9.453
REMARK INTRA:                  -1.460
REMARK UNBOUND:                -1.370
REMARK  Name = 
REMARK  10 active torsions:
REMARK  status: ('A' for Active; 'I' for Inactive)
REMARK    1  A    between atoms: C_1  and  O_2
REMARK    2  A    between atoms: O_2  and  C_3
REMARK    3  A    between atoms: C_10  and  C_11
REMARK    4  A    between atoms: N_13  and  C_14
REMARK    5  A    between atoms: C_14  and  C_15
REMARK    6  A    between atoms: C_18  and  O_19
REMARK    7  A    between atoms: O_19  and  C_20
REMARK    8  A    between atoms: C_20  and  C_21
REMARK    9  A    between atoms: C_21  and  C_22
REMARK   10  A    between atoms: C_22  and  O_24
REMARK                            x       y       z     vdW  Elec       q    Type
REMARK                         _______ _______ _______ _____ _____    ______ ____
ROOT
ATOM      1  C   UNL     1      49.371   7.697  13.604  0.00  0.00    +0.000 A 
ATOM      2  C   UNL     1      49.350   7.963  12.228  0.00  0.00    +0.000 A 
ATOM      3  C   UNL     1      48.291   7.514  11.424  0.00  0.00    +0.000 A 
ATOM      4  C   UNL     1      47.235   6.801  11.989  0.00  0.00    +0.000 A 
ATOM      5  C   UNL     1      47.237   6.564  13.366  0.00  0.00    +0.000 A 
ATOM      6  C   UNL     1      48.289   7.011  14.169  0.00  0.00    +0.000 A 
ENDROOT
BRANCH   1   7
ATOM      7  C   UNL     1      50.525   8.150  14.462  0.00  0.00    +0.000 C 
BRANCH   7  10
ATOM      8  C   UNL     1      51.340   6.981  16.459  0.00  0.00    +0.000 C 
ATOM      9  O   UNL     1      52.368   6.644  15.873  0.00  0.00    +0.000 OA
ATOM     10  N   UNL     1      50.374   7.717  15.828  0.00  0.00    +0.000 N 
ATOM     11  H   UNL     1      49.506   7.932  16.299  0.00  0.00    +0.000 HD
BRANCH   8  19
ATOM     12  C   UNL     1      49.191   4.793  18.039  0.00  0.00    +0.000 A 
ATOM     13  N   UNL     1      48.426   4.100  18.906  0.00  0.00    +0.000 NA
ATOM     14  C   UNL     1      48.631   4.277  20.214  0.00  0.00    +0.000 A 
ATOM     15  N   UNL     1      49.535   5.072  20.779  0.00  0.00    +0.000 NA
ATOM     16  C   UNL     1      50.268   5.754  19.884  0.00  0.00    +0.000 A 
ATOM     17  S   UNL     1      51.480   6.809  20.432  0.00  0.00    +0.000 S 
ATOM     18  C   UNL     1      51.882   7.251  18.842  0.00  0.00    +0.000 A 
ATOM     19  C   UNL     1      51.110   6.623  17.870  0.00  0.00    +0.000 A 
ATOM     20  C   UNL     1      50.166   5.700  18.496  0.00  0.00    +0.000 A 
BRANCH  12  22
ATOM     21  C   UNL     1      47.754   3.989  16.364  0.00  0.00    +0.000 C 
ATOM     22  O   UNL     1      49.013   4.575  16.688  0.00  0.00    +0.000 OA
ENDBRANCH  12  22
ENDBRANCH   8  19
ENDBRANCH   7  10
ENDBRANCH   1   7
BRANCH   4  23
ATOM     23  O   UNL     1      46.155   6.289  11.324  0.00  0.00    +0.000 OA
BRANCH  23  24
ATOM     24  C   UNL     1      45.736   4.963  11.666  0.00  0.00    +0.000 C 
BRANCH  24  25
ATOM     25  C   UNL     1      44.832   4.370  10.551  0.00  0.00    +0.000 C 
ATOM     26  C   UNL     1      44.916   2.837  10.522  0.00  0.00    +0.000 C 
ATOM     27  C   UNL     1      44.720   2.413   9.067  0.00  0.00    +0.000 C 
ATOM     28  C   UNL     1      44.910   3.659   8.208  0.00  0.00    +0.000 C 
ATOM     29  C   UNL     1      45.328   4.779   9.155  0.00  0.00    +0.000 C 
BRANCH  25  30
ATOM     30  C   UNL     1      43.413   4.874  10.849  0.00  0.00    +0.000 C 
ATOM     31  O   UNL     1      42.535   4.174  11.340  0.00  0.00    +0.000 OA
BRANCH  30  32
ATOM     32  O   UNL     1      43.150   6.160  10.539  0.00  0.00    +0.000 OA
ATOM     33  H   UNL     1      43.321   6.819  11.231  0.00  0.00    +0.000 HD
ENDBRANCH  30  32
ENDBRANCH  25  30
ENDBRANCH  24  25
ENDBRANCH  23  24
ENDBRANCH   4  23
TORSDOF 9
ENDMDL
MODEL 4
REMARK VINA RESULT:    -6.311      3.816      9.838
REMARK INTER + INTRA:         -10.818
REMARK INTER:                  -9.634
REMARK INTRA:                  -1.183
REMARK UNBOUND:                -1.370
REMARK  Name = 
REMARK  10 active torsions:
REMARK  status: ('A' for Active; 'I' for Inactive)
REMARK    1  A    between atoms: C_1  and  O_2
REMARK    2  A    between atoms: O_2  and  C_3
REMARK    3  A    between atoms: C_10  and  C_11
REMARK    4  A    between atoms: N_13  and  C_14
REMARK    5  A    between atoms: C_14  and  C_15
REMARK    6  A    between atoms: C_18  and  O_19
REMARK    7  A    between atoms: O_19  and  C_20
REMARK    8  A    between atoms: C_20  and  C_21
REMARK    9  A    between atoms: C_21  and  C_22
REMARK   10  A    between atoms: C_22  and  O_24
REMARK                            x       y       z     vdW  Elec       q    Type
REMARK                         _______ _______ _______ _____ _____    ______ ____
ROOT
ATOM      1  C   UNL     1      48.599   3.245  17.184  0.00  0.00    +0.000 A 
ATOM      2  C   UNL     1      49.387   2.130  16.868  0.00  0.00    +0.000 A 
ATOM      3  C   UNL     1      50.752   2.098  17.187  0.00  0.00    +0.000 A 
ATOM      4  C   UNL     1      51.345   3.180  17.837  0.00  0.00    +0.000 A 
ATOM      5  C   UNL     1      50.556   4.279  18.183  0.00  0.00    +0.000 A 
ATOM      6  C   UNL     1      49.194   4.312  17.868  0.00  0.00    +0.000 A 
ENDROOT
BRANCH   1   7
ATOM      7  C   UNL     1      47.139   3.292  16.811  0.00  0.00    +0.000 C 
BRANCH   7  10
ATOM      8  C   UNL     1      46.959   4.246  14.557  0.00  0.00    +0.000 C 
ATOM      9  O   UNL     1      47.320   3.184  14.052  0.00  0.00    +0.000 OA
ATOM     10  N   UNL     1      46.855   4.385  15.915  0.00  0.00    +0.000 N 
ATOM     11  H   UNL     1      46.621   5.280  16.321  0.00  0.00    +0.000 HD
BRANCH   8  19
ATOM     12  C   UNL     1      44.194   5.068  12.663  0.00  0.00    +0.000 A 
ATOM     13  N   UNL     1      43.305   5.597  11.800  0.00  0.00    +0.000 NA
ATOM     14  C   UNL     1      43.607   6.754  11.207  0.00  0.00    +0.000 A 
ATOM     15  N   UNL     1      44.712   7.474  11.379  0.00  0.00    +0.000 NA
ATOM     16  C   UNL     1      45.578   6.910  12.236  0.00  0.00    +0.000 A 
ATOM     17  S   UNL     1      47.040   7.701  12.585  0.00  0.00    +0.000 S 
ATOM     18  C   UNL     1      47.526   6.449  13.625  0.00  0.00    +0.000 A 
ATOM     19  C   UNL     1      46.606   5.410  13.724  0.00  0.00    +0.000 A 
ATOM     20  C   UNL     1      45.424   5.704  12.917  0.00  0.00    +0.000 A 
BRANCH  12  22
ATOM     21  C   UNL     1      43.514   2.832  12.431  0.00  0.00    +0.000 C 
ATOM     22  O   UNL     1      43.863   3.897  13.313  0.00  0.00    +0.000 OA
ENDBRANCH  12  22
ENDBRANCH   8  19
ENDBRANCH   7  10
ENDBRANCH   1   7
BRANCH   4  23
ATOM     23  O   UNL     1      52.663   3.292  18.188  0.00  0.00    +0.000 OA
BRANCH  23  24
ATOM     24  C   UNL     1      53.636   2.770  17.276  0.00  0.00    +0.000 C 
BRANCH  24  25
ATOM     25  C   UNL     1      54.404   1.581  17.916  0.00  0.00    +0.000 C 
ATOM     26  C   UNL     1      55.596   1.156  17.047  0.00  0.00    +0.000 C 
ATOM     27  C   UNL     1      55.772  -0.349  17.247  0.00  0.00    +0.000 C 
ATOM     28  C   UNL     1      54.492  -0.866  17.896  0.00  0.00    +0.000 C 
ATOM     29  C   UNL     1      53.532   0.317  17.967  0.00  0.00    +0.000 C 
BRANCH  25  30
ATOM     30  C   UNL     1      54.836   2.063  19.308  0.00  0.00    +0.000 C 
ATOM     31  O   UNL     1      54.658   1.416  20.334  0.00  0.00    +0.000 OA
BRANCH  30  32
ATOM     32  O   UNL     1      55.436   3.269  19.372  0.00  0.00    +0.000 OA
ATOM     33  H   UNL     1      55.622   3.709  18.527  0.00  0.00    +0.000 HD
ENDBRANCH  30  32
ENDBRANCH  25  30
ENDBRANCH  24  25
ENDBRANCH  23  24
ENDBRANCH   4  23
TORSDOF 9
ENDMDL
MODEL 5
REMARK VINA RESULT:    -6.270      3.756      9.631
REMARK INTER + INTRA:         -10.756
REMARK INTER:                  -9.320
REMARK INTRA:                  -1.436
REMARK UNBOUND:                -1.370
REMARK  Name = 
REMARK  10 active torsions:
REMARK  status: ('A' for Active; 'I' for Inactive)
REMARK    1  A    between atoms: C_1  and  O_2
REMARK    2  A    between atoms: O_2  and  C_3
REMARK    3  A    between atoms: C_10  and  C_11
REMARK    4  A    between atoms: N_13  and  C_14
REMARK    5  A    between atoms: C_14  and  C_15
REMARK    6  A    between atoms: C_18  and  O_19
REMARK    7  A    between atoms: O_19  and  C_20
REMARK    8  A    between atoms: C_20  and  C_21
REMARK    9  A    between atoms: C_21  and  C_22
REMARK   10  A    between atoms: C_22  and  O_24
REMARK                            x       y       z     vdW  Elec       q    Type
REMARK                         _______ _______ _______ _____ _____    ______ ____
ROOT
ATOM      1  C   UNL     1      48.746   3.244  17.193  0.00  0.00    +0.000 A 
ATOM      2  C   UNL     1      49.509   2.103  16.910  0.00  0.00    +0.000 A 
ATOM      3  C   UNL     1      50.883   2.067  17.192  0.00  0.00    +0.000 A 
ATOM      4  C   UNL     1      51.509   3.170  17.771  0.00  0.00    +0.000 A 
ATOM      5  C   UNL     1      50.745   4.296  18.085  0.00  0.00    +0.000 A 
ATOM      6  C   UNL     1      49.376   4.334  17.807  0.00  0.00    +0.000 A 
ENDROOT
BRANCH   1   7
ATOM      7  C   UNL     1      47.277   3.296  16.858  0.00  0.00    +0.000 C 
BRANCH   7  10
ATOM      8  C   UNL     1      46.990   4.222  14.604  0.00  0.00    +0.000 C 
ATOM      9  O   UNL     1      47.286   3.142  14.095  0.00  0.00    +0.000 OA
ATOM     10  N   UNL     1      46.974   4.385  15.963  0.00  0.00    +0.000 N 
ATOM     11  H   UNL     1      46.794   5.293  16.368  0.00  0.00    +0.000 HD
BRANCH   8  19
ATOM     12  C   UNL     1      44.246   4.991  12.659  0.00  0.00    +0.000 A 
ATOM     13  N   UNL     1      43.361   5.504  11.781  0.00  0.00    +0.000 NA
ATOM     14  C   UNL     1      43.645   6.675  11.206  0.00  0.00    +0.000 A 
ATOM     15  N   UNL     1      44.727   7.422  11.409  0.00  0.00    +0.000 NA
ATOM     16  C   UNL     1      45.589   6.872  12.279  0.00  0.00    +0.000 A 
ATOM     17  S   UNL     1      47.021   7.698  12.667  0.00  0.00    +0.000 S 
ATOM     18  C   UNL     1      47.518   6.449  13.705  0.00  0.00    +0.000 A 
ATOM     19  C   UNL     1      46.625   5.385  13.775  0.00  0.00    +0.000 A 
ATOM     20  C   UNL     1      45.453   5.657  12.945  0.00  0.00    +0.000 A 
BRANCH  12  22
ATOM     21  C   UNL     1      43.594   2.750  12.391  0.00  0.00    +0.000 C 
ATOM     22  O   UNL     1      43.932   3.805  13.290  0.00  0.00    +0.000 OA
ENDBRANCH  12  22
ENDBRANCH   8  19
ENDBRANCH   7  10
ENDBRANCH   1   7
BRANCH   4  23
ATOM     23  O   UNL     1      52.837   3.278  18.080  0.00  0.00    +0.000 OA
BRANCH  23  24
ATOM     24  C   UNL     1      53.291   4.525  18.618  0.00  0.00    +0.000 C 
BRANCH  24  25
ATOM     25  C   UNL     1      54.422   5.122  17.737  0.00  0.00    +0.000 C 
ATOM     26  C   UNL     1      55.182   6.230  18.482  0.00  0.00    +0.000 C 
ATOM     27  C   UNL     1      55.643   7.233  17.425  0.00  0.00    +0.000 C 
ATOM     28  C   UNL     1      54.849   6.943  16.155  0.00  0.00    +0.000 C 
ATOM     29  C   UNL     1      53.849   5.847  16.510  0.00  0.00    +0.000 C 
BRANCH  25  30
ATOM     30  C   UNL     1      55.328   3.941  17.361  0.00  0.00    +0.000 C 
ATOM     31  O   UNL     1      55.701   3.712  16.217  0.00  0.00    +0.000 OA
BRANCH  30  32
ATOM     32  O   UNL     1      55.712   3.129  18.367  0.00  0.00    +0.000 OA
ATOM     33  H   UNL     1      56.655   2.898  18.405  0.00  0.00    +0.000 HD
ENDBRANCH  30  32
ENDBRANCH  25  30
ENDBRANCH  24  25
ENDBRANCH  23  24
ENDBRANCH   4  23
TORSDOF 9
ENDMDL
MODEL 6
REMARK VINA RESULT:    -6.240      1.910      2.418
REMARK INTER + INTRA:         -10.711
REMARK INTER:                  -9.105
REMARK INTRA:                  -1.606
REMARK UNBOUND:                -1.370
REMARK  Name = 
REMARK  10 active torsions:
REMARK  status: ('A' for Active; 'I' for Inactive)
REMARK    1  A    between atoms: C_1  and  O_2
REMARK    2  A    between atoms: O_2  and  C_3
REMARK    3  A    between atoms: C_10  and  C_11
REMARK    4  A    between atoms: N_13  and  C_14
REMARK    5  A    between atoms: C_14  and  C_15
REMARK    6  A    between atoms: C_18  and  O_19
REMARK    7  A    between atoms: O_19  and  C_20
REMARK    8  A    between atoms: C_20  and  C_21
REMARK    9  A    between atoms: C_21  and  C_22
REMARK   10  A    between atoms: C_22  and  O_24
REMARK                            x       y       z     vdW  Elec       q    Type
REMARK                         _______ _______ _______ _____ _____    ______ ____
ROOT
ATOM      1  C   UNL     1      49.208   8.258  13.105  0.00  0.00    +0.000 A 
ATOM      2  C   UNL     1      48.157   9.152  13.351  0.00  0.00    +0.000 A 
ATOM      3  C   UNL     1      46.821   8.731  13.275  0.00  0.00    +0.000 A 
ATOM      4  C   UNL     1      46.520   7.407  12.961  0.00  0.00    +0.000 A 
ATOM      5  C   UNL     1      47.566   6.506  12.748  0.00  0.00    +0.000 A 
ATOM      6  C   UNL     1      48.898   6.922  12.825  0.00  0.00    +0.000 A 
ENDROOT
BRANCH   1   7
ATOM      7  C   UNL     1      50.643   8.719  13.154  0.00  0.00    +0.000 C 
BRANCH   7  10
ATOM      8  C   UNL     1      51.574   8.016  15.313  0.00  0.00    +0.000 C 
ATOM      9  O   UNL     1      51.005   8.943  15.888  0.00  0.00    +0.000 OA
ATOM     10  N   UNL     1      51.455   7.842  13.960  0.00  0.00    +0.000 N 
ATOM     11  H   UNL     1      51.979   7.118  13.490  0.00  0.00    +0.000 HD
BRANCH   8  19
ATOM     12  C   UNL     1      50.840   5.159  17.102  0.00  0.00    +0.000 A 
ATOM     13  N   UNL     1      50.837   4.082  17.912  0.00  0.00    +0.000 NA
ATOM     14  C   UNL     1      51.999   3.671  18.426  0.00  0.00    +0.000 A 
ATOM     15  N   UNL     1      53.197   4.210  18.218  0.00  0.00    +0.000 NA
ATOM     16  C   UNL     1      53.158   5.287  17.417  0.00  0.00    +0.000 A 
ATOM     17  S   UNL     1      54.602   6.093  17.035  0.00  0.00    +0.000 S 
ATOM     18  C   UNL     1      53.771   7.238  16.094  0.00  0.00    +0.000 A 
ATOM     19  C   UNL     1      52.394   7.042  16.055  0.00  0.00    +0.000 A 
ATOM     20  C   UNL     1      52.033   5.852  16.822  0.00  0.00    +0.000 A 
BRANCH  12  22
ATOM     21  C   UNL     1      48.724   6.112  17.466  0.00  0.00    +0.000 C 
ATOM     22  O   UNL     1      49.647   5.555  16.532  0.00  0.00    +0.000 OA
ENDBRANCH  12  22
ENDBRANCH   8  19
ENDBRANCH   7  10
ENDBRANCH   1   7
BRANCH   4  23
ATOM     23  O   UNL     1      45.269   6.868  12.834  0.00  0.00    +0.000 OA
BRANCH  23  24
ATOM     24  C   UNL     1      45.168   5.442  12.757  0.00  0.00    +0.000 C 
BRANCH  24  25
ATOM     25  C   UNL     1      44.405   5.015  11.473  0.00  0.00    +0.000 C 
ATOM     26  C   UNL     1      44.129   3.505  11.465  0.00  0.00    +0.000 C 
ATOM     27  C   UNL     1      44.149   3.062  10.002  0.00  0.00    +0.000 C 
ATOM     28  C   UNL     1      44.804   4.184   9.204  0.00  0.00    +0.000 C 
ATOM     29  C   UNL     1      45.266   5.226  10.218  0.00  0.00    +0.000 C 
BRANCH  25  30
ATOM     30  C   UNL     1      43.115   5.847  11.457  0.00  0.00    +0.000 C 
ATOM     31  O   UNL     1      42.021   5.406  11.789  0.00  0.00    +0.000 OA
BRANCH  30  32
ATOM     32  O   UNL     1      43.225   7.127  11.046  0.00  0.00    +0.000 OA
ATOM     33  H   UNL     1      44.122   7.451  10.864  0.00  0.00    +0.000 HD
ENDBRANCH  30  32
ENDBRANCH  25  30
ENDBRANCH  24  25
ENDBRANCH  23  24
ENDBRANCH   4  23
TORSDOF 9
ENDMDL
MODEL 7
REMARK VINA RESULT:    -6.070      2.773      3.162
REMARK INTER + INTRA:         -10.457
REMARK INTER:                  -8.873
REMARK INTRA:                  -1.584
REMARK UNBOUND:                -1.370
REMARK  Name = 
REMARK  10 active torsions:
REMARK  status: ('A' for Active; 'I' for Inactive)
REMARK    1  A    between atoms: C_1  and  O_2
REMARK    2  A    between atoms: O_2  and  C_3
REMARK    3  A    between atoms: C_10  and  C_11
REMARK    4  A    between atoms: N_13  and  C_14
REMARK    5  A    between atoms: C_14  and  C_15
REMARK    6  A    between atoms: C_18  and  O_19
REMARK    7  A    between atoms: O_19  and  C_20
REMARK    8  A    between atoms: C_20  and  C_21
REMARK    9  A    between atoms: C_21  and  C_22
REMARK   10  A    between atoms: C_22  and  O_24
REMARK                            x       y       z     vdW  Elec       q    Type
REMARK                         _______ _______ _______ _____ _____    ______ ____
ROOT
ATOM      1  C   UNL     1      48.763   8.419  13.937  0.00  0.00    +0.000 A 
ATOM      2  C   UNL     1      47.634   9.121  13.494  0.00  0.00    +0.000 A 
ATOM      3  C   UNL     1      46.743   8.547  12.575  0.00  0.00    +0.000 A 
ATOM      4  C   UNL     1      46.967   7.257  12.095  0.00  0.00    +0.000 A 
ATOM      5  C   UNL     1      48.073   6.543  12.560  0.00  0.00    +0.000 A 
ATOM      6  C   UNL     1      48.961   7.112  13.477  0.00  0.00    +0.000 A 
ENDROOT
BRANCH   1   7
ATOM      7  C   UNL     1      49.739   9.049  14.899  0.00  0.00    +0.000 C 
BRANCH   7  10
ATOM      8  C   UNL     1      48.934   8.633  17.179  0.00  0.00    +0.000 C 
ATOM      9  O   UNL     1      48.106   9.537  17.079  0.00  0.00    +0.000 OA
ATOM     10  N   UNL     1      49.787   8.336  16.150  0.00  0.00    +0.000 N 
ATOM     11  H   UNL     1      50.506   7.636  16.268  0.00  0.00    +0.000 HD
BRANCH   8  19
ATOM     12  C   UNL     1      48.606   5.260  17.829  0.00  0.00    +0.000 A 
ATOM     13  N   UNL     1      48.453   4.037  18.374  0.00  0.00    +0.000 NA
ATOM     14  C   UNL     1      48.575   3.913  19.697  0.00  0.00    +0.000 A 
ATOM     15  N   UNL     1      48.849   4.880  20.567  0.00  0.00    +0.000 NA
ATOM     16  C   UNL     1      48.982   6.085  19.989  0.00  0.00    +0.000 A 
ATOM     17  S   UNL     1      49.345   7.436  20.952  0.00  0.00    +0.000 S 
ATOM     18  C   UNL     1      49.323   8.466  19.600  0.00  0.00    +0.000 A 
ATOM     19  C   UNL     1      49.035   7.818  18.404  0.00  0.00    +0.000 A 
ATOM     20  C   UNL     1      48.864   6.386  18.634  0.00  0.00    +0.000 A 
BRANCH  12  22
ATOM     21  C   UNL     1      47.555   4.526  15.861  0.00  0.00    +0.000 C 
ATOM     22  O   UNL     1      48.528   5.382  16.456  0.00  0.00    +0.000 OA
ENDBRANCH  12  22
ENDBRANCH   8  19
ENDBRANCH   7  10
ENDBRANCH   1   7
BRANCH   4  23
ATOM     23  O   UNL     1      46.195   6.586  11.186  0.00  0.00    +0.000 OA
BRANCH  23  24
ATOM     24  C   UNL     1      44.775   6.632  11.363  0.00  0.00    +0.000 C 
BRANCH  24  25
ATOM     25  C   UNL     1      44.191   5.198  11.482  0.00  0.00    +0.000 C 
ATOM     26  C   UNL     1      45.180   4.250  12.175  0.00  0.00    +0.000 C 
ATOM     27  C   UNL     1      44.952   2.862  11.575  0.00  0.00    +0.000 C 
ATOM     28  C   UNL     1      44.141   3.055  10.298  0.00  0.00    +0.000 C 
ATOM     29  C   UNL     1      43.997   4.560  10.098  0.00  0.00    +0.000 C 
BRANCH  25  30
ATOM     30  C   UNL     1      42.876   5.344  12.259  0.00  0.00    +0.000 C 
ATOM     31  O   UNL     1      42.648   4.772  13.319  0.00  0.00    +0.000 OA
BRANCH  30  32
ATOM     32  O   UNL     1      41.939   6.149  11.718  0.00  0.00    +0.000 OA
ATOM     33  H   UNL     1      41.892   6.174  10.749  0.00  0.00    +0.000 HD
ENDBRANCH  30  32
ENDBRANCH  25  30
ENDBRANCH  24  25
ENDBRANCH  23  24
ENDBRANCH   4  23
TORSDOF 9
ENDMDL
MODEL 8
REMARK VINA RESULT:    -5.953      5.740      7.217
REMARK INTER + INTRA:         -10.281
REMARK INTER:                  -9.037
REMARK INTRA:                  -1.244
REMARK UNBOUND:                -1.370
REMARK  Name = 
REMARK  10 active torsions:
REMARK  status: ('A' for Active; 'I' for Inactive)
REMARK    1  A    between atoms: C_1  and  O_2
REMARK    2  A    between atoms: O_2  and  C_3
REMARK    3  A    between atoms: C_10  and  C_11
REMARK    4  A    between atoms: N_13  and  C_14
REMARK    5  A    between atoms: C_14  and  C_15
REMARK    6  A    between atoms: C_18  and  O_19
REMARK    7  A    between atoms: O_19  and  C_20
REMARK    8  A    between atoms: C_20  and  C_21
REMARK    9  A    between atoms: C_21  and  C_22
REMARK   10  A    between atoms: C_22  and  O_24
REMARK                            x       y       z     vdW  Elec       q    Type
REMARK                         _______ _______ _______ _____ _____    ______ ____
ROOT
ATOM      1  C   UNL     1      49.664   7.880  12.709  0.00  0.00    +0.000 A 
ATOM      2  C   UNL     1      49.229   7.437  13.966  0.00  0.00    +0.000 A 
ATOM      3  C   UNL     1      47.933   6.931  14.142  0.00  0.00    +0.000 A 
ATOM      4  C   UNL     1      47.057   6.853  13.060  0.00  0.00    +0.000 A 
ATOM      5  C   UNL     1      47.499   7.262  11.800  0.00  0.00    +0.000 A 
ATOM      6  C   UNL     1      48.790   7.765  11.621  0.00  0.00    +0.000 A 
ENDROOT
BRANCH   1   7
ATOM      7  C   UNL     1      51.045   8.455  12.526  0.00  0.00    +0.000 C 
BRANCH   7  10
ATOM      8  C   UNL     1      52.703   8.383  10.718  0.00  0.00    +0.000 C 
ATOM      9  O   UNL     1      53.611   8.189  11.525  0.00  0.00    +0.000 OA
ATOM     10  N   UNL     1      51.407   8.537  11.133  0.00  0.00    +0.000 N 
ATOM     11  H   UNL     1      50.681   8.761  10.468  0.00  0.00    +0.000 HD
BRANCH   8  19
ATOM     12  C   UNL     1      53.771   6.065   8.396  0.00  0.00    +0.000 A 
ATOM     13  N   UNL     1      54.243   5.408   7.318  0.00  0.00    +0.000 NA
ATOM     14  C   UNL     1      54.369   6.081   6.172  0.00  0.00    +0.000 A 
ATOM     15  N   UNL     1      54.066   7.358   5.958  0.00  0.00    +0.000 NA
ATOM     16  C   UNL     1      53.611   7.981   7.058  0.00  0.00    +0.000 A 
ATOM     17  S   UNL     1      53.164   9.616   6.963  0.00  0.00    +0.000 S 
ATOM     18  C   UNL     1      52.763   9.652   8.614  0.00  0.00    +0.000 A 
ATOM     19  C   UNL     1      52.965   8.442   9.269  0.00  0.00    +0.000 A 
ATOM     20  C   UNL     1      53.442   7.432   8.326  0.00  0.00    +0.000 A 
BRANCH  12  22
ATOM     21  C   UNL     1      54.808   5.112  10.276  0.00  0.00    +0.000 C 
ATOM     22  O   UNL     1      53.594   5.360   9.569  0.00  0.00    +0.000 OA
ENDBRANCH  12  22
ENDBRANCH   8  19
ENDBRANCH   7  10
ENDBRANCH   1   7
BRANCH   4  23
ATOM     23  O   UNL     1      45.766   6.402  13.094  0.00  0.00    +0.000 OA
BRANCH  23  24
ATOM     24  C   UNL     1      45.556   4.990  12.986  0.00  0.00    +0.000 C 
BRANCH  24  25
ATOM     25  C   UNL     1      44.573   4.670  11.827  0.00  0.00    +0.000 C 
ATOM     26  C   UNL     1      44.317   3.160  11.715  0.00  0.00    +0.000 C 
ATOM     27  C   UNL     1      44.069   2.865  10.236  0.00  0.00    +0.000 C 
ATOM     28  C   UNL     1      44.552   4.080   9.450  0.00  0.00    +0.000 C 
ATOM     29  C   UNL     1      45.182   5.029  10.463  0.00  0.00    +0.000 C 
BRANCH  25  30
ATOM     30  C   UNL     1      43.293   5.459  12.134  0.00  0.00    +0.000 C 
ATOM     31  O   UNL     1      42.600   5.988  11.273  0.00  0.00    +0.000 OA
BRANCH  30  32
ATOM     32  O   UNL     1      42.942   5.562  13.432  0.00  0.00    +0.000 OA
ATOM     33  H   UNL     1      41.991   5.560  13.628  0.00  0.00    +0.000 HD
ENDBRANCH  30  32
ENDBRANCH  25  30
ENDBRANCH  24  25
ENDBRANCH  23  24
ENDBRANCH   4  23
TORSDOF 9
ENDMDL
MODEL 9
REMARK VINA RESULT:    -5.796      2.320      3.296
REMARK INTER + INTRA:         -10.046
REMARK INTER:                  -8.417
REMARK INTRA:                  -1.629
REMARK UNBOUND:                -1.370
REMARK  Name = 
REMARK  10 active torsions:
REMARK  status: ('A' for Active; 'I' for Inactive)
REMARK    1  A    between atoms: C_1  and  O_2
REMARK    2  A    between atoms: O_2  and  C_3
REMARK    3  A    between atoms: C_10  and  C_11
REMARK    4  A    between atoms: N_13  and  C_14
REMARK    5  A    between atoms: C_14  and  C_15
REMARK    6  A    between atoms: C_18  and  O_19
REMARK    7  A    between atoms: O_19  and  C_20
REMARK    8  A    between atoms: C_20  and  C_21
REMARK    9  A    between atoms: C_21  and  C_22
REMARK   10  A    between atoms: C_22  and  O_24
REMARK                            x       y       z     vdW  Elec       q    Type
REMARK                         _______ _______ _______ _____ _____    ______ ____
ROOT
ATOM      1  C   UNL     1      49.291   8.789  13.247  0.00  0.00    +0.000 A 
ATOM      2  C   UNL     1      49.311   7.969  12.111  0.00  0.00    +0.000 A 
ATOM      3  C   UNL     1      48.129   7.403  11.611  0.00  0.00    +0.000 A 
ATOM      4  C   UNL     1      46.910   7.658  12.237  0.00  0.00    +0.000 A 
ATOM      5  C   UNL     1      46.882   8.501  13.349  0.00  0.00    +0.000 A 
ATOM      6  C   UNL     1      48.058   9.068  13.849  0.00  0.00    +0.000 A 
ENDROOT
BRANCH   1   7
ATOM      7  C   UNL     1      50.566   9.370  13.805  0.00  0.00    +0.000 C 
BRANCH   7  10
ATOM      8  C   UNL     1      52.384   7.980  14.690  0.00  0.00    +0.000 C 
ATOM      9  O   UNL     1      53.060   8.179  13.682  0.00  0.00    +0.000 OA
ATOM     10  N   UNL     1      51.135   8.523  14.824  0.00  0.00    +0.000 N 
ATOM     11  H   UNL     1      50.563   8.300  15.626  0.00  0.00    +0.000 HD
BRANCH   8  19
ATOM     12  C   UNL     1      50.913   5.750  16.873  0.00  0.00    +0.000 A 
ATOM     13  N   UNL     1      50.596   4.921  17.888  0.00  0.00    +0.000 NA
ATOM     14  C   UNL     1      51.562   4.558  18.735  0.00  0.00    +0.000 A 
ATOM     15  N   UNL     1      52.841   4.920  18.689  0.00  0.00    +0.000 NA
ATOM     16  C   UNL     1      53.114   5.755  17.674  0.00  0.00    +0.000 A 
ATOM     17  S   UNL     1      54.705   6.310  17.457  0.00  0.00    +0.000 S 
ATOM     18  C   UNL     1      54.248   7.242  16.112  0.00  0.00    +0.000 A 
ATOM     19  C   UNL     1      52.894   7.162  15.805  0.00  0.00    +0.000 A 
ATOM     20  C   UNL     1      52.223   6.244  16.722  0.00  0.00    +0.000 A 
BRANCH  12  22
ATOM     21  C   UNL     1      48.753   6.626  16.577  0.00  0.00    +0.000 C 
ATOM     22  O   UNL     1      49.927   6.088  15.969  0.00  0.00    +0.000 OA
ENDBRANCH  12  22
ENDBRANCH   8  19
ENDBRANCH   7  10
ENDBRANCH   1   7
BRANCH   4  23
ATOM     23  O   UNL     1      45.691   7.158  11.869  0.00  0.00    +0.000 OA
BRANCH  23  24
ATOM     24  C   UNL     1      44.934   6.462  12.867  0.00  0.00    +0.000 C 
BRANCH  24  25
ATOM     25  C   UNL     1      44.906   4.938  12.569  0.00  0.00    +0.000 C 
ATOM     26  C   UNL     1      45.157   4.657  11.081  0.00  0.00    +0.000 C 
ATOM     27  C   UNL     1      44.371   3.393  10.734  0.00  0.00    +0.000 C 
ATOM     28  C   UNL     1      43.376   3.159  11.867  0.00  0.00    +0.000 C 
ATOM     29  C   UNL     1      43.508   4.349  12.812  0.00  0.00    +0.000 C 
BRANCH  25  30
ATOM     30  C   UNL     1      45.979   4.316  13.473  0.00  0.00    +0.000 C 
ATOM     31  O   UNL     1      46.420   3.183  13.319  0.00  0.00    +0.000 OA
BRANCH  30  32
ATOM     32  O   UNL     1      46.437   5.081  14.484  0.00  0.00    +0.000 OA
ATOM     33  H   UNL     1      46.003   5.940  14.613  0.00  0.00    +0.000 HD
ENDBRANCH  30  32
ENDBRANCH  25  30
ENDBRANCH  24  25
ENDBRANCH  23  24
ENDBRANCH   4  23
TORSDOF 9
ENDMDL
