MODEL 1
REMARK VINA RESULT:    -9.055      0.000      0.000
REMARK INTER + INTRA:         -13.629
REMARK INTER:                 -12.760
REMARK INTRA:                  -0.870
REMARK UNBOUND:                -0.870
REMARK  Name = 
REMARK  8 active torsions:
REMARK  status: ('A' for Active; 'I' for Inactive)
REMARK    1  A    between atoms: C_1  and  C_2
REMARK    2  A    between atoms: C_2  and  N_3
REMARK    3  A    between atoms: C_2  and  C_16
REMARK    4  A    between atoms: C_4  and  C_6
REMARK    5  A    between atoms: C_19  and  C_20
REMARK    6  A    between atoms: C_20  and  N_21
REMARK    7  A    between atoms: N_21  and  C_22
REMARK    8  A    between atoms: C_22  and  C_23
REMARK                            x       y       z     vdW  Elec       q    Type
REMARK                         _______ _______ _______ _____ _____    ______ ____
ROOT
ATOM      1  C   UNL     1      48.006   8.563  12.039  0.00  0.00    +0.000 C 
ATOM      2  C   UNL     1      46.866   8.102  12.957  0.00  0.00    +0.000 C 
ENDROOT
BRANCH   2   3
ATOM      3  C   UNL     1      46.031   6.978  12.365  0.00  0.00    +0.000 A 
ATOM      4  C   UNL     1      46.310   6.515  11.070  0.00  0.00    +0.000 A 
ATOM      5  C   UNL     1      45.585   5.453  10.520  0.00  0.00    +0.000 A 
ATOM      6  C   UNL     1      44.565   4.827  11.251  0.00  0.00    +0.000 A 
ATOM      7  C   UNL     1      44.245   5.328  12.517  0.00  0.00    +0.000 A 
ATOM      8  C   UNL     1      44.957   6.400  13.057  0.00  0.00    +0.000 A 
BRANCH   6   9
ATOM      9  C   UNL     1      43.833   3.626  10.698  0.00  0.00    +0.000 C 
BRANCH   9  10
ATOM     10  N   UNL     1      44.770   2.533  10.457  0.00  0.00    +0.000 NA
ATOM     11  H   UNL     1      44.657   1.839  11.197  0.00  0.00    +0.000 HD
BRANCH  10  12
ATOM     12  C   UNL     1      44.516   1.873   9.172  0.00  0.00    +0.000 C 
BRANCH  12  13
ATOM     13  C   UNL     1      45.670   2.067   8.208  0.00  0.00    +0.000 A 
ATOM     14  C   UNL     1      45.870   3.303   7.591  0.00  0.00    +0.000 A 
ATOM     15  C   UNL     1      46.960   3.467   6.742  0.00  0.00    +0.000 A 
ATOM     16  C   UNL     1      47.816   2.396   6.523  0.00  0.00    +0.000 A 
ATOM     17  C   UNL     1      47.545   1.200   7.166  0.00  0.00    +0.000 A 
ATOM     18  N   UNL     1      46.499   1.012   8.001  0.00  0.00    +0.000 NA
ENDBRANCH  12  13
ENDBRANCH  10  12
ENDBRANCH   9  10
ENDBRANCH   6   9
ENDBRANCH   2   3
BRANCH   2  19
ATOM     19  N   UNL     1      47.382   7.679  14.243  0.00  0.00    +0.000 N 
ATOM     20  C   UNL     1      48.354   6.722  14.373  0.00  0.00    +0.000 C 
ATOM     21  O   UNL     1      48.951   6.247  13.412  0.00  0.00    +0.000 OA
ATOM     22  H   UNL     1      46.824   7.934  15.050  0.00  0.00    +0.000 HD
BRANCH  20  23
ATOM     23  C   UNL     1      48.676   6.327  15.747  0.00  0.00    +0.000 A 
ATOM     24  C   UNL     1      49.547   7.092  16.508  0.00  0.00    +0.000 A 
ATOM     25  S   UNL     1      49.831   6.452  18.065  0.00  0.00    +0.000 S 
ATOM     26  C   UNL     1      48.834   5.107  17.753  0.00  0.00    +0.000 A 
ATOM     27  N   UNL     1      48.686   4.115  18.671  0.00  0.00    +0.000 NA
ATOM     28  C   UNL     1      47.933   3.138  18.284  0.00  0.00    +0.000 A 
ATOM     29  N   UNL     1      47.295   3.073  17.075  0.00  0.00    +0.000 N 
ATOM     30  C   UNL     1      47.358   4.083  16.141  0.00  0.00    +0.000 A 
ATOM     31  O   UNL     1      46.689   4.044  15.113  0.00  0.00    +0.000 OA
ATOM     32  C   UNL     1      48.249   5.170  16.505  0.00  0.00    +0.000 A 
ATOM     33  H   UNL     1      46.687   2.300  16.854  0.00  0.00    +0.000 HD
ENDBRANCH  20  23
ENDBRANCH   2  19
TORSDOF 7
ENDMDL
MODEL 2
REMARK VINA RESULT:    -8.241      1.876      2.230
REMARK INTER + INTRA:         -12.483
REMARK INTER:                 -11.078
REMARK INTRA:                  -1.405
REMARK UNBOUND:                -0.870
REMARK  Name = 
REMARK  8 active torsions:
REMARK  status: ('A' for Active; 'I' for Inactive)
REMARK    1  A    between atoms: C_1  and  C_2
REMARK    2  A    between atoms: C_2  and  N_3
REMARK    3  A    between atoms: C_2  and  C_16
REMARK    4  A    between atoms: C_4  and  C_6
REMARK    5  A    between atoms: C_19  and  C_20
REMARK    6  A    between atoms: C_20  and  N_21
REMARK    7  A    between atoms: N_21  and  C_22
REMARK    8  A    between atoms: C_22  and  C_23
REMARK                            x       y       z     vdW  Elec       q    Type
REMARK                         _______ _______ _______ _____ _____    ______ ____
ROOT
ATOM      1  C   UNL     1      49.307   8.126  11.616  0.00  0.00    +0.000 C 
ATOM      2  C   UNL     1      48.528   7.610  12.834  0.00  0.00    +0.000 C 
ENDROOT
BRANCH   2   3
ATOM      3  C   UNL     1      47.479   6.567  12.483  0.00  0.00    +0.000 A 
ATOM      4  C   UNL     1      47.261   5.484  13.348  0.00  0.00    +0.000 A 
ATOM      5  C   UNL     1      46.271   4.536  13.069  0.00  0.00    +0.000 A 
ATOM      6  C   UNL     1      45.474   4.650  11.921  0.00  0.00    +0.000 A 
ATOM      7  C   UNL     1      45.732   5.694  11.027  0.00  0.00    +0.000 A 
ATOM      8  C   UNL     1      46.732   6.629  11.298  0.00  0.00    +0.000 A 
BRANCH   6   9
ATOM      9  C   UNL     1      44.348   3.678  11.654  0.00  0.00    +0.000 C 
BRANCH   9  10
ATOM     10  N   UNL     1      44.850   2.509  10.939  0.00  0.00    +0.000 NA
ATOM     11  H   UNL     1      44.553   1.669  11.438  0.00  0.00    +0.000 HD
BRANCH  10  12
ATOM     12  C   UNL     1      44.320   2.437   9.574  0.00  0.00    +0.000 C 
BRANCH  12  13
ATOM     13  C   UNL     1      45.433   2.422   8.544  0.00  0.00    +0.000 A 
ATOM     14  C   UNL     1      45.787   3.595   7.874  0.00  0.00    +0.000 A 
ATOM     15  C   UNL     1      46.838   3.563   6.963  0.00  0.00    +0.000 A 
ATOM     16  C   UNL     1      47.504   2.365   6.738  0.00  0.00    +0.000 A 
ATOM     17  C   UNL     1      47.087   1.244   7.436  0.00  0.00    +0.000 A 
ATOM     18  N   UNL     1      46.074   1.244   8.331  0.00  0.00    +0.000 NA
ENDBRANCH  12  13
ENDBRANCH  10  12
ENDBRANCH   9  10
ENDBRANCH   6   9
ENDBRANCH   2   3
BRANCH   2  19
ATOM     19  N   UNL     1      49.431   7.056  13.822  0.00  0.00    +0.000 N 
ATOM     20  C   UNL     1      49.951   7.798  14.850  0.00  0.00    +0.000 C 
ATOM     21  O   UNL     1      49.591   8.947  15.089  0.00  0.00    +0.000 OA
ATOM     22  H   UNL     1      49.862   6.170  13.582  0.00  0.00    +0.000 HD
BRANCH  20  23
ATOM     23  C   UNL     1      50.941   7.116  15.688  0.00  0.00    +0.000 A 
ATOM     24  C   UNL     1      52.279   7.474  15.619  0.00  0.00    +0.000 A 
ATOM     25  S   UNL     1      53.285   6.542  16.635  0.00  0.00    +0.000 S 
ATOM     26  C   UNL     1      51.969   5.601  17.165  0.00  0.00    +0.000 A 
ATOM     27  N   UNL     1      52.151   4.558  18.020  0.00  0.00    +0.000 NA
ATOM     28  C   UNL     1      51.071   3.907  18.304  0.00  0.00    +0.000 A 
ATOM     29  N   UNL     1      49.823   4.217  17.833  0.00  0.00    +0.000 N 
ATOM     30  C   UNL     1      49.578   5.303  17.022  0.00  0.00    +0.000 A 
ATOM     31  O   UNL     1      48.435   5.617  16.704  0.00  0.00    +0.000 OA
ATOM     32  C   UNL     1      50.774   6.022  16.620  0.00  0.00    +0.000 A 
ATOM     33  H   UNL     1      49.015   3.692  18.130  0.00  0.00    +0.000 HD
ENDBRANCH  20  23
ENDBRANCH   2  19
TORSDOF 7
ENDMDL
MODEL 3
REMARK VINA RESULT:    -8.033      1.727      2.168
REMARK INTER + INTRA:         -12.190
REMARK INTER:                 -11.163
REMARK INTRA:                  -1.027
REMARK UNBOUND:                -0.870
REMARK  Name = 
REMARK  8 active torsions:
REMARK  status: ('A' for Active; 'I' for Inactive)
REMARK    1  A    between atoms: C_1  and  C_2
REMARK    2  A    between atoms: C_2  and  N_3
REMARK    3  A    between atoms: C_2  and  C_16
REMARK    4  A    between atoms: C_4  and  C_6
REMARK    5  A    between atoms: C_19  and  C_20
REMARK    6  A    between atoms: C_20  and  N_21
REMARK    7  A    between atoms: N_21  and  C_22
REMARK    8  A    between atoms: C_22  and  C_23
REMARK                            x       y       z     vdW  Elec       q    Type
REMARK                         _______ _______ _______ _____ _____    ______ ____
ROOT
ATOM      1  C   UNL     1      48.988   7.804  12.350  0.00  0.00    +0.000 C 
ATOM      2  C   UNL     1      47.581   7.838  12.965  0.00  0.00    +0.000 C 
ENDROOT
BRANCH   2   3
ATOM      3  C   UNL     1      46.702   6.678  12.526  0.00  0.00    +0.000 A 
ATOM      4  C   UNL     1      46.731   5.474  13.247  0.00  0.00    +0.000 A 
ATOM      5  C   UNL     1      45.900   4.408  12.890  0.00  0.00    +0.000 A 
ATOM      6  C   UNL     1      45.019   4.519  11.805  0.00  0.00    +0.000 A 
ATOM      7  C   UNL     1      45.034   5.695  11.048  0.00  0.00    +0.000 A 
ATOM      8  C   UNL     1      45.877   6.752  11.395  0.00  0.00    +0.000 A 
BRANCH   6   9
ATOM      9  C   UNL     1      44.058   3.404  11.463  0.00  0.00    +0.000 C 
BRANCH   9  10
ATOM     10  N   UNL     1      44.727   2.396  10.647  0.00  0.00    +0.000 NA
ATOM     11  H   UNL     1      44.449   1.471  10.978  0.00  0.00    +0.000 HD
BRANCH  10  12
ATOM     12  C   UNL     1      44.351   2.504   9.233  0.00  0.00    +0.000 C 
BRANCH  12  13
ATOM     13  C   UNL     1      45.546   2.303   8.321  0.00  0.00    +0.000 A 
ATOM     14  C   UNL     1      46.056   3.374   7.585  0.00  0.00    +0.000 A 
ATOM     15  C   UNL     1      47.178   3.172   6.787  0.00  0.00    +0.000 A 
ATOM     16  C   UNL     1      47.757   1.911   6.737  0.00  0.00    +0.000 A 
ATOM     17  C   UNL     1      47.186   0.899   7.490  0.00  0.00    +0.000 A 
ATOM     18  N   UNL     1      46.101   1.064   8.279  0.00  0.00    +0.000 NA
ENDBRANCH  12  13
ENDBRANCH  10  12
ENDBRANCH   9  10
ENDBRANCH   6   9
ENDBRANCH   2   3
BRANCH   2  19
ATOM     19  N   UNL     1      47.654   7.855  14.411  0.00  0.00    +0.000 N 
ATOM     20  C   UNL     1      48.255   8.866  15.112  0.00  0.00    +0.000 C 
ATOM     21  O   UNL     1      48.660   9.895  14.578  0.00  0.00    +0.000 OA
ATOM     22  H   UNL     1      47.468   6.972  14.874  0.00  0.00    +0.000 HD
BRANCH  20  23
ATOM     23  C   UNL     1      48.348   8.668  16.561  0.00  0.00    +0.000 A 
ATOM     24  C   UNL     1      47.968   9.680  17.430  0.00  0.00    +0.000 A 
ATOM     25  S   UNL     1      48.186   9.279  19.075  0.00  0.00    +0.000 S 
ATOM     26  C   UNL     1      48.837   7.758  18.675  0.00  0.00    +0.000 A 
ATOM     27  N   UNL     1      49.295   6.915  19.639  0.00  0.00    +0.000 NA
ATOM     28  C   UNL     1      49.800   5.813  19.188  0.00  0.00    +0.000 A 
ATOM     29  N   UNL     1      49.866   5.466  17.865  0.00  0.00    +0.000 N 
ATOM     30  C   UNL     1      49.353   6.254  16.859  0.00  0.00    +0.000 A 
ATOM     31  O   UNL     1      49.331   5.867  15.694  0.00  0.00    +0.000 OA
ATOM     32  C   UNL     1      48.840   7.533  17.313  0.00  0.00    +0.000 A 
ATOM     33  H   UNL     1      50.234   4.570  17.585  0.00  0.00    +0.000 HD
ENDBRANCH  20  23
ENDBRANCH   2  19
TORSDOF 7
ENDMDL
MODEL 4
REMARK VINA RESULT:    -7.587      2.307      3.141
REMARK INTER + INTRA:         -11.561
REMARK INTER:                 -10.353
REMARK INTRA:                  -1.208
REMARK UNBOUND:                -0.870
REMARK  Name = 
REMARK  8 active torsions:
REMARK  status: ('A' for Active; 'I' for Inactive)
REMARK    1  A    between atoms: C_1  and  C_2
REMARK    2  A    between atoms: C_2  and  N_3
REMARK    3  A    between atoms: C_2  and  C_16
REMARK    4  A    between atoms: C_4  and  C_6
REMARK    5  A    between atoms: C_19  and  C_20
REMARK    6  A    between atoms: C_20  and  N_21
REMARK    7  A    between atoms: N_21  and  C_22
REMARK    8  A    between atoms: C_22  and  C_23
REMARK                            x       y       z     vdW  Elec       q    Type
REMARK                         _______ _______ _______ _____ _____    ______ ____
ROOT
ATOM      1  C   UNL     1      48.479   8.768  12.523  0.00  0.00    +0.000 C 
ATOM      2  C   UNL     1      47.730   7.873  13.520  0.00  0.00    +0.000 C 
ENDROOT
BRANCH   2   3
ATOM      3  C   UNL     1      46.757   6.911  12.856  0.00  0.00    +0.000 A 
ATOM      4  C   UNL     1      46.740   5.563  13.245  0.00  0.00    +0.000 A 
ATOM      5  C   UNL     1      45.825   4.669  12.681  0.00  0.00    +0.000 A 
ATOM      6  C   UNL     1      44.903   5.101  11.717  0.00  0.00    +0.000 A 
ATOM      7  C   UNL     1      44.960   6.429  11.284  0.00  0.00    +0.000 A 
ATOM      8  C   UNL     1      45.886   7.316  11.835  0.00  0.00    +0.000 A 
BRANCH   6   9
ATOM      9  C   UNL     1      43.856   4.162  11.163  0.00  0.00    +0.000 C 
BRANCH   9  10
ATOM     10  N   UNL     1      44.118   3.893   9.752  0.00  0.00    +0.000 NA
ATOM     11  H   UNL     1      44.893   4.483   9.446  0.00  0.00    +0.000 HD
BRANCH  10  12
ATOM     12  C   UNL     1      44.494   2.494   9.526  0.00  0.00    +0.000 C 
BRANCH  12  13
ATOM     13  C   UNL     1      45.517   2.364   8.414  0.00  0.00    +0.000 A 
ATOM     14  C   UNL     1      45.760   3.437   7.554  0.00  0.00    +0.000 A 
ATOM     15  C   UNL     1      46.732   3.306   6.567  0.00  0.00    +0.000 A 
ATOM     16  C   UNL     1      47.432   2.111   6.459  0.00  0.00    +0.000 A 
ATOM     17  C   UNL     1      47.127   1.092   7.345  0.00  0.00    +0.000 A 
ATOM     18  N   UNL     1      46.192   1.190   8.317  0.00  0.00    +0.000 NA
ENDBRANCH  12  13
ENDBRANCH  10  12
ENDBRANCH   9  10
ENDBRANCH   6   9
ENDBRANCH   2   3
BRANCH   2  19
ATOM     19  N   UNL     1      48.663   7.116  14.330  0.00  0.00    +0.000 N 
ATOM     20  C   UNL     1      48.910   7.409  15.645  0.00  0.00    +0.000 C 
ATOM     21  O   UNL     1      48.268   8.246  16.272  0.00  0.00    +0.000 OA
ATOM     22  H   UNL     1      49.310   6.523  13.822  0.00  0.00    +0.000 HD
BRANCH  20  23
ATOM     23  C   UNL     1      49.969   6.622  16.282  0.00  0.00    +0.000 A 
ATOM     24  C   UNL     1      49.654   5.683  17.253  0.00  0.00    +0.000 A 
ATOM     25  S   UNL     1      51.021   4.898  17.908  0.00  0.00    +0.000 S 
ATOM     26  C   UNL     1      52.080   5.821  16.947  0.00  0.00    +0.000 A 
ATOM     27  N   UNL     1      53.429   5.688  17.061  0.00  0.00    +0.000 NA
ATOM     28  C   UNL     1      54.109   6.480  16.300  0.00  0.00    +0.000 A 
ATOM     29  N   UNL     1      53.567   7.375  15.418  0.00  0.00    +0.000 N 
ATOM     30  C   UNL     1      52.210   7.497  15.215  0.00  0.00    +0.000 A 
ATOM     31  O   UNL     1      51.759   8.231  14.340  0.00  0.00    +0.000 OA
ATOM     32  C   UNL     1      51.404   6.676  16.100  0.00  0.00    +0.000 A 
ATOM     33  H   UNL     1      54.158   7.934  14.821  0.00  0.00    +0.000 HD
ENDBRANCH  20  23
ENDBRANCH   2  19
TORSDOF 7
ENDMDL
MODEL 5
REMARK VINA RESULT:    -7.461      2.157      2.616
REMARK INTER + INTRA:         -11.384
REMARK INTER:                 -10.156
REMARK INTRA:                  -1.228
REMARK UNBOUND:                -0.870
REMARK  Name = 
REMARK  8 active torsions:
REMARK  status: ('A' for Active; 'I' for Inactive)
REMARK    1  A    between atoms: C_1  and  C_2
REMARK    2  A    between atoms: C_2  and  N_3
REMARK    3  A    between atoms: C_2  and  C_16
REMARK    4  A    between atoms: C_4  and  C_6
REMARK    5  A    between atoms: C_19  and  C_20
REMARK    6  A    between atoms: C_20  and  N_21
REMARK    7  A    between atoms: N_21  and  C_22
REMARK    8  A    between atoms: C_22  and  C_23
REMARK                            x       y       z     vdW  Elec       q    Type
REMARK                         _______ _______ _______ _____ _____    ______ ____
ROOT
ATOM      1  C   UNL     1      49.912   7.639  13.528  0.00  0.00    +0.000 C 
ATOM      2  C   UNL     1      48.517   7.509  14.154  0.00  0.00    +0.000 C 
ENDROOT
BRANCH   2   3
ATOM      3  C   UNL     1      47.550   6.694  13.310  0.00  0.00    +0.000 A 
ATOM      4  C   UNL     1      47.236   7.119  12.010  0.00  0.00    +0.000 A 
ATOM      5  C   UNL     1      46.384   6.364  11.198  0.00  0.00    +0.000 A 
ATOM      6  C   UNL     1      45.827   5.164  11.665  0.00  0.00    +0.000 A 
ATOM      7  C   UNL     1      46.090   4.772  12.981  0.00  0.00    +0.000 A 
ATOM      8  C   UNL     1      46.926   5.536  13.796  0.00  0.00    +0.000 A 
BRANCH   6   9
ATOM      9  C   UNL     1      44.973   4.300  10.767  0.00  0.00    +0.000 C 
BRANCH   9  10
ATOM     10  N   UNL     1      44.885   4.891   9.435  0.00  0.00    +0.000 NA
ATOM     11  H   UNL     1      45.814   5.214   9.160  0.00  0.00    +0.000 HD
BRANCH  10  12
ATOM     12  C   UNL     1      44.429   3.917   8.437  0.00  0.00    +0.000 C 
BRANCH  12  13
ATOM     13  C   UNL     1      45.576   3.066   7.925  0.00  0.00    +0.000 A 
ATOM     14  C   UNL     1      46.578   3.637   7.139  0.00  0.00    +0.000 A 
ATOM     15  C   UNL     1      47.640   2.844   6.715  0.00  0.00    +0.000 A 
ATOM     16  C   UNL     1      47.672   1.504   7.078  0.00  0.00    +0.000 A 
ATOM     17  C   UNL     1      46.636   1.011   7.853  0.00  0.00    +0.000 A 
ATOM     18  N   UNL     1      45.595   1.757   8.285  0.00  0.00    +0.000 NA
ENDBRANCH  12  13
ENDBRANCH  10  12
ENDBRANCH   9  10
ENDBRANCH   6   9
ENDBRANCH   2   3
BRANCH   2  19
ATOM     19  N   UNL     1      48.601   6.921  15.475  0.00  0.00    +0.000 N 
ATOM     20  C   UNL     1      48.587   7.670  16.622  0.00  0.00    +0.000 C 
ATOM     21  O   UNL     1      48.371   8.878  16.625  0.00  0.00    +0.000 OA
ATOM     22  H   UNL     1      48.923   5.960  15.513  0.00  0.00    +0.000 HD
BRANCH  20  23
ATOM     23  C   UNL     1      48.802   6.928  17.868  0.00  0.00    +0.000 A 
ATOM     24  C   UNL     1      47.888   7.026  18.906  0.00  0.00    +0.000 A 
ATOM     25  S   UNL     1      48.329   6.126  20.287  0.00  0.00    +0.000 S 
ATOM     26  C   UNL     1      49.778   5.613  19.557  0.00  0.00    +0.000 A 
ATOM     27  N   UNL     1      50.674   4.847  20.236  0.00  0.00    +0.000 NA
ATOM     28  C   UNL     1      51.748   4.567  19.572  0.00  0.00    +0.000 A 
ATOM     29  N   UNL     1      51.998   4.960  18.285  0.00  0.00    +0.000 N 
ATOM     30  C   UNL     1      51.093   5.677  17.533  0.00  0.00    +0.000 A 
ATOM     31  O   UNL     1      51.300   5.922  16.348  0.00  0.00    +0.000 OA
ATOM     32  C   UNL     1      49.902   6.074  18.262  0.00  0.00    +0.000 A 
ATOM     33  H   UNL     1      52.838   4.670  17.811  0.00  0.00    +0.000 HD
ENDBRANCH  20  23
ENDBRANCH   2  19
TORSDOF 7
ENDMDL
MODEL 6
REMARK VINA RESULT:    -7.168      2.221      2.933
REMARK INTER + INTRA:         -10.971
REMARK INTER:                  -9.890
REMARK INTRA:                  -1.080
REMARK UNBOUND:                -0.870
REMARK  Name = 
REMARK  8 active torsions:
REMARK  status: ('A' for Active; 'I' for Inactive)
REMARK    1  A    between atoms: C_1  and  C_2
REMARK    2  A    between atoms: C_2  and  N_3
REMARK    3  A    between atoms: C_2  and  C_16
REMARK    4  A    between atoms: C_4  and  C_6
REMARK    5  A    between atoms: C_19  and  C_20
REMARK    6  A    between atoms: C_20  and  N_21
REMARK    7  A    between atoms: N_21  and  C_22
REMARK    8  A    between atoms: C_22  and  C_23
REMARK                            x       y       z     vdW  Elec       q    Type
REMARK                         _______ _______ _______ _____ _____    ______ ____
ROOT
ATOM      1  C   UNL     1      50.453   8.914  13.512  0.00  0.00    +0.000 C 
ATOM      2  C   UNL     1      49.483   8.253  14.500  0.00  0.00    +0.000 C 
ENDROOT
BRANCH   2   3
ATOM      3  C   UNL     1      48.202   7.755  13.848  0.00  0.00    +0.000 A 
ATOM      4  C   UNL     1      47.145   8.650  13.624  0.00  0.00    +0.000 A 
ATOM      5  C   UNL     1      45.975   8.227  12.986  0.00  0.00    +0.000 A 
ATOM      6  C   UNL     1      45.834   6.900  12.555  0.00  0.00    +0.000 A 
ATOM      7  C   UNL     1      46.862   5.993  12.834  0.00  0.00    +0.000 A 
ATOM      8  C   UNL     1      48.022   6.413  13.486  0.00  0.00    +0.000 A 
BRANCH   6   9
ATOM      9  C   UNL     1      44.608   6.454  11.792  0.00  0.00    +0.000 C 
BRANCH   9  10
ATOM     10  N   UNL     1      44.991   5.948  10.477  0.00  0.00    +0.000 NA
ATOM     11  H   UNL     1      45.996   5.762  10.479  0.00  0.00    +0.000 HD
BRANCH  10  12
ATOM     12  C   UNL     1      44.298   4.697  10.154  0.00  0.00    +0.000 C 
BRANCH  12  13
ATOM     13  C   UNL     1      45.108   3.843   9.196  0.00  0.00    +0.000 A 
ATOM     14  C   UNL     1      45.130   2.454   9.340  0.00  0.00    +0.000 A 
ATOM     15  C   UNL     1      45.847   1.691   8.424  0.00  0.00    +0.000 A 
ATOM     16  C   UNL     1      46.529   2.328   7.396  0.00  0.00    +0.000 A 
ATOM     17  C   UNL     1      46.464   3.710   7.327  0.00  0.00    +0.000 A 
ATOM     18  N   UNL     1      45.771   4.478   8.197  0.00  0.00    +0.000 NA
ENDBRANCH  12  13
ENDBRANCH  10  12
ENDBRANCH   9  10
ENDBRANCH   6   9
ENDBRANCH   2   3
BRANCH   2  19
ATOM     19  N   UNL     1      50.123   7.150  15.186  0.00  0.00    +0.000 N 
ATOM     20  C   UNL     1      50.047   6.975  16.543  0.00  0.00    +0.000 C 
ATOM     21  O   UNL     1      49.326   7.662  17.262  0.00  0.00    +0.000 OA
ATOM     22  H   UNL     1      50.835   6.654  14.661  0.00  0.00    +0.000 HD
BRANCH  20  23
ATOM     23  C   UNL     1      50.851   5.878  17.088  0.00  0.00    +0.000 A 
ATOM     24  C   UNL     1      52.126   6.123  17.577  0.00  0.00    +0.000 A 
ATOM     25  S   UNL     1      52.922   4.718  18.131  0.00  0.00    +0.000 S 
ATOM     26  C   UNL     1      51.605   3.733  17.692  0.00  0.00    +0.000 A 
ATOM     27  N   UNL     1      51.657   2.382  17.843  0.00  0.00    +0.000 NA
ATOM     28  C   UNL     1      50.604   1.758  17.431  0.00  0.00    +0.000 A 
ATOM     29  N   UNL     1      49.493   2.360  16.904  0.00  0.00    +0.000 N 
ATOM     30  C   UNL     1      49.364   3.727  16.796  0.00  0.00    +0.000 A 
ATOM     31  O   UNL     1      48.314   4.241  16.420  0.00  0.00    +0.000 OA
ATOM     32  C   UNL     1      50.553   4.465  17.182  0.00  0.00    +0.000 A 
ATOM     33  H   UNL     1      48.686   1.815  16.641  0.00  0.00    +0.000 HD
ENDBRANCH  20  23
ENDBRANCH   2  19
TORSDOF 7
ENDMDL
MODEL 7
REMARK VINA RESULT:    -7.043      2.619      7.903
REMARK INTER + INTRA:         -10.794
REMARK INTER:                  -9.656
REMARK INTRA:                  -1.138
REMARK UNBOUND:                -0.870
REMARK  Name = 
REMARK  8 active torsions:
REMARK  status: ('A' for Active; 'I' for Inactive)
REMARK    1  A    between atoms: C_1  and  C_2
REMARK    2  A    between atoms: C_2  and  N_3
REMARK    3  A    between atoms: C_2  and  C_16
REMARK    4  A    between atoms: C_4  and  C_6
REMARK    5  A    between atoms: C_19  and  C_20
REMARK    6  A    between atoms: C_20  and  N_21
REMARK    7  A    between atoms: N_21  and  C_22
REMARK    8  A    between atoms: C_22  and  C_23
REMARK                            x       y       z     vdW  Elec       q    Type
REMARK                         _______ _______ _______ _____ _____    ______ ____
ROOT
ATOM      1  C   UNL     1      47.478   9.073  11.685  0.00  0.00    +0.000 C 
ATOM      2  C   UNL     1      48.042   7.747  12.212  0.00  0.00    +0.000 C 
ENDROOT
BRANCH   2   3
ATOM      3  C   UNL     1      48.313   7.758  13.709  0.00  0.00    +0.000 A 
ATOM      4  C   UNL     1      48.007   8.904  14.460  0.00  0.00    +0.000 A 
ATOM      5  C   UNL     1      48.206   8.923  15.844  0.00  0.00    +0.000 A 
ATOM      6  C   UNL     1      48.714   7.799  16.510  0.00  0.00    +0.000 A 
ATOM      7  C   UNL     1      49.077   6.680  15.754  0.00  0.00    +0.000 A 
ATOM      8  C   UNL     1      48.895   6.668  14.371  0.00  0.00    +0.000 A 
BRANCH   6   9
ATOM      9  C   UNL     1      48.854   7.782  18.015  0.00  0.00    +0.000 C 
BRANCH   9  10
ATOM     10  N   UNL     1      47.613   7.320  18.631  0.00  0.00    +0.000 NA
ATOM     11  H   UNL     1      46.946   7.095  17.891  0.00  0.00    +0.000 HD
BRANCH  10  12
ATOM     12  C   UNL     1      47.823   6.113  19.436  0.00  0.00    +0.000 C 
BRANCH  12  13
ATOM     13  C   UNL     1      48.107   4.904  18.566  0.00  0.00    +0.000 A 
ATOM     14  C   UNL     1      47.122   4.407  17.710  0.00  0.00    +0.000 A 
ATOM     15  C   UNL     1      47.422   3.322  16.893  0.00  0.00    +0.000 A 
ATOM     16  C   UNL     1      48.689   2.756  16.953  0.00  0.00    +0.000 A 
ATOM     17  C   UNL     1      49.607   3.302  17.834  0.00  0.00    +0.000 A 
ATOM     18  N   UNL     1      49.349   4.359  18.636  0.00  0.00    +0.000 NA
ENDBRANCH  12  13
ENDBRANCH  10  12
ENDBRANCH   9  10
ENDBRANCH   6   9
ENDBRANCH   2   3
BRANCH   2  19
ATOM     19  N   UNL     1      47.147   6.651  11.903  0.00  0.00    +0.000 N 
ATOM     20  C   UNL     1      45.819   6.662  12.237  0.00  0.00    +0.000 C 
ATOM     21  O   UNL     1      45.259   7.649  12.703  0.00  0.00    +0.000 OA
ATOM     22  H   UNL     1      47.591   5.773  11.657  0.00  0.00    +0.000 HD
BRANCH  20  23
ATOM     23  C   UNL     1      45.084   5.425  11.959  0.00  0.00    +0.000 A 
ATOM     24  C   UNL     1      44.365   4.798  12.966  0.00  0.00    +0.000 A 
ATOM     25  S   UNL     1      43.612   3.351  12.464  0.00  0.00    +0.000 S 
ATOM     26  C   UNL     1      44.261   3.493  10.897  0.00  0.00    +0.000 A 
ATOM     27  N   UNL     1      44.050   2.531   9.959  0.00  0.00    +0.000 NA
ATOM     28  C   UNL     1      44.636   2.750   8.828  0.00  0.00    +0.000 A 
ATOM     29  N   UNL     1      45.392   3.854   8.539  0.00  0.00    +0.000 N 
ATOM     30  C   UNL     1      45.577   4.887   9.430  0.00  0.00    +0.000 A 
ATOM     31  O   UNL     1      46.171   5.912   9.105  0.00  0.00    +0.000 OA
ATOM     32  C   UNL     1      44.995   4.651  10.739  0.00  0.00    +0.000 A 
ATOM     33  H   UNL     1      45.786   3.983   7.620  0.00  0.00    +0.000 HD
ENDBRANCH  20  23
ENDBRANCH   2  19
TORSDOF 7
ENDMDL
MODEL 8
REMARK VINA RESULT:    -6.524      4.507      7.371
REMARK INTER + INTRA:         -10.064
REMARK INTER:                  -8.650
REMARK INTRA:                  -1.414
REMARK UNBOUND:                -0.870
REMARK  Name = 
REMARK  8 active torsions:
REMARK  status: ('A' for Active; 'I' for Inactive)
REMARK    1  A    between atoms: C_1  and  C_2
REMARK    2  A    between atoms: C_2  and  N_3
REMARK    3  A    between atoms: C_2  and  C_16
REMARK    4  A    between atoms: C_4  and  C_6
REMARK    5  A    between atoms: C_19  and  C_20
REMARK    6  A    between atoms: C_20  and  N_21
REMARK    7  A    between atoms: N_21  and  C_22
REMARK    8  A    between atoms: C_22  and  C_23
REMARK                            x       y       z     vdW  Elec       q    Type
REMARK                         _______ _______ _______ _____ _____    ______ ____
ROOT
ATOM      1  C   UNL     1      48.355   6.891  14.496  0.00  0.00    +0.000 C 
ATOM      2  C   UNL     1      47.802   7.526  13.213  0.00  0.00    +0.000 C 
ENDROOT
BRANCH   2   3
ATOM      3  C   UNL     1      48.845   8.306  12.427  0.00  0.00    +0.000 A 
ATOM      4  C   UNL     1      48.574   9.626  12.035  0.00  0.00    +0.000 A 
ATOM      5  C   UNL     1      49.534  10.378  11.351  0.00  0.00    +0.000 A 
ATOM      6  C   UNL     1      50.787   9.830  11.043  0.00  0.00    +0.000 A 
ATOM      7  C   UNL     1      51.035   8.495  11.379  0.00  0.00    +0.000 A 
ATOM      8  C   UNL     1      50.070   7.740  12.046  0.00  0.00    +0.000 A 
BRANCH   6   9
ATOM      9  C   UNL     1      51.860  10.662  10.378  0.00  0.00    +0.000 C 
BRANCH   9  10
ATOM     10  N   UNL     1      53.146   9.974  10.449  0.00  0.00    +0.000 NA
ATOM     11  H   UNL     1      52.998   9.047  10.850  0.00  0.00    +0.000 HD
BRANCH  10  12
ATOM     12  C   UNL     1      53.744   9.804   9.121  0.00  0.00    +0.000 C 
BRANCH  12  13
ATOM     13  C   UNL     1      53.526   8.401   8.587  0.00  0.00    +0.000 A 
ATOM     14  C   UNL     1      53.789   7.293   9.395  0.00  0.00    +0.000 A 
ATOM     15  C   UNL     1      53.543   6.018   8.895  0.00  0.00    +0.000 A 
ATOM     16  C   UNL     1      53.049   5.879   7.605  0.00  0.00    +0.000 A 
ATOM     17  C   UNL     1      52.822   7.027   6.865  0.00  0.00    +0.000 A 
ATOM     18  N   UNL     1      53.046   8.278   7.323  0.00  0.00    +0.000 NA
ENDBRANCH  12  13
ENDBRANCH  10  12
ENDBRANCH   9  10
ENDBRANCH   6   9
ENDBRANCH   2   3
BRANCH   2  19
ATOM     19  N   UNL     1      47.219   6.518  12.352  0.00  0.00    +0.000 N 
ATOM     20  C   UNL     1      46.094   6.742  11.604  0.00  0.00    +0.000 C 
ATOM     21  O   UNL     1      45.571   7.848  11.504  0.00  0.00    +0.000 OA
ATOM     22  H   UNL     1      47.526   5.565  12.515  0.00  0.00    +0.000 HD
BRANCH  20  23
ATOM     23  C   UNL     1      45.569   5.579  10.883  0.00  0.00    +0.000 A 
ATOM     24  C   UNL     1      45.670   5.510   9.501  0.00  0.00    +0.000 A 
ATOM     25  S   UNL     1      44.966   4.104   8.838  0.00  0.00    +0.000 S 
ATOM     26  C   UNL     1      44.463   3.565  10.373  0.00  0.00    +0.000 A 
ATOM     27  N   UNL     1      43.734   2.426  10.514  0.00  0.00    +0.000 NA
ATOM     28  C   UNL     1      43.387   2.162  11.730  0.00  0.00    +0.000 A 
ATOM     29  N   UNL     1      43.722   2.917  12.822  0.00  0.00    +0.000 N 
ATOM     30  C   UNL     1      44.516   4.039  12.739  0.00  0.00    +0.000 A 
ATOM     31  O   UNL     1      44.888   4.634  13.747  0.00  0.00    +0.000 OA
ATOM     32  C   UNL     1      44.871   4.414  11.382  0.00  0.00    +0.000 A 
ATOM     33  H   UNL     1      43.454   2.629  13.750  0.00  0.00    +0.000 HD
ENDBRANCH  20  23
ENDBRANCH   2  19
TORSDOF 7
ENDMDL
MODEL 9
REMARK VINA RESULT:    -6.428      3.134      3.879
REMARK INTER + INTRA:          -9.928
REMARK INTER:                  -8.999
REMARK INTRA:                  -0.929
REMARK UNBOUND:                -0.870
REMARK  Name = 
REMARK  8 active torsions:
REMARK  status: ('A' for Active; 'I' for Inactive)
REMARK    1  A    between atoms: C_1  and  C_2
REMARK    2  A    between atoms: C_2  and  N_3
REMARK    3  A    between atoms: C_2  and  C_16
REMARK    4  A    between atoms: C_4  and  C_6
REMARK    5  A    between atoms: C_19  and  C_20
REMARK    6  A    between atoms: C_20  and  N_21
REMARK    7  A    between atoms: N_21  and  C_22
REMARK    8  A    between atoms: C_22  and  C_23
REMARK                            x       y       z     vdW  Elec       q    Type
REMARK                         _______ _______ _______ _____ _____    ______ ____
ROOT
ATOM      1  C   UNL     1      48.352  10.784  12.181  0.00  0.00    +0.000 C 
ATOM      2  C   UNL     1      48.266   9.584  13.134  0.00  0.00    +0.000 C 
ENDROOT
BRANCH   2   3
ATOM      3  C   UNL     1      47.303   8.506  12.661  0.00  0.00    +0.000 A 
ATOM      4  C   UNL     1      45.919   8.721  12.760  0.00  0.00    +0.000 A 
ATOM      5  C   UNL     1      45.013   7.764  12.291  0.00  0.00    +0.000 A 
ATOM      6  C   UNL     1      45.469   6.571  11.712  0.00  0.00    +0.000 A 
ATOM      7  C   UNL     1      46.845   6.329  11.669  0.00  0.00    +0.000 A 
ATOM      8  C   UNL     1      47.748   7.278  12.153  0.00  0.00    +0.000 A 
BRANCH   6   9
ATOM      9  C   UNL     1      44.500   5.569  11.128  0.00  0.00    +0.000 C 
BRANCH   9  10
ATOM     10  N   UNL     1      44.913   5.197   9.778  0.00  0.00    +0.000 NA
ATOM     11  H   UNL     1      45.933   5.163   9.747  0.00  0.00    +0.000 HD
BRANCH  10  12
ATOM     12  C   UNL     1      44.402   3.876   9.397  0.00  0.00    +0.000 C 
BRANCH  12  13
ATOM     13  C   UNL     1      45.395   3.122   8.533  0.00  0.00    +0.000 A 
ATOM     14  C   UNL     1      46.181   3.808   7.605  0.00  0.00    +0.000 A 
ATOM     15  C   UNL     1      47.112   3.098   6.853  0.00  0.00    +0.000 A 
ATOM     16  C   UNL     1      47.233   1.728   7.040  0.00  0.00    +0.000 A 
ATOM     17  C   UNL     1      46.411   1.121   7.974  0.00  0.00    +0.000 A 
ATOM     18  N   UNL     1      45.502   1.782   8.724  0.00  0.00    +0.000 NA
ENDBRANCH  12  13
ENDBRANCH  10  12
ENDBRANCH   9  10
ENDBRANCH   6   9
ENDBRANCH   2   3
BRANCH   2  19
ATOM     19  N   UNL     1      49.573   8.994  13.335  0.00  0.00    +0.000 N 
ATOM     20  C   UNL     1      50.420   9.390  14.336  0.00  0.00    +0.000 C 
ATOM     21  O   UNL     1      50.086  10.180  15.215  0.00  0.00    +0.000 OA
ATOM     22  H   UNL     1      49.940   8.454  12.558  0.00  0.00    +0.000 HD
BRANCH  20  23
ATOM     23  C   UNL     1      51.750   8.775  14.323  0.00  0.00    +0.000 A 
ATOM     24  C   UNL     1      52.651   9.081  13.314  0.00  0.00    +0.000 A 
ATOM     25  S   UNL     1      54.129   8.237  13.445  0.00  0.00    +0.000 S 
ATOM     26  C   UNL     1      53.593   7.403  14.829  0.00  0.00    +0.000 A 
ATOM     27  N   UNL     1      54.369   6.457  15.423  0.00  0.00    +0.000 NA
ATOM     28  C   UNL     1      53.819   5.877  16.439  0.00  0.00    +0.000 A 
ATOM     29  N   UNL     1      52.575   6.171  16.929  0.00  0.00    +0.000 N 
ATOM     30  C   UNL     1      51.781   7.167  16.406  0.00  0.00    +0.000 A 
ATOM     31  O   UNL     1      50.718   7.480  16.934  0.00  0.00    +0.000 OA
ATOM     32  C   UNL     1      52.330   7.798  15.219  0.00  0.00    +0.000 A 
ATOM     33  H   UNL     1      52.223   5.709  17.753  0.00  0.00    +0.000 HD
ENDBRANCH  20  23
ENDBRANCH   2  19
TORSDOF 7
ENDMDL
