MODEL 1
REMARK VINA RESULT:    -9.122      0.000      0.000
REMARK INTER + INTRA:         -12.653
REMARK INTER:                 -12.322
REMARK INTRA:                  -0.331
REMARK UNBOUND:                -0.331
REMARK  Name = 
REMARK  6 active torsions:
REMARK  status: ('A' for Active; 'I' for Inactive)
REMARK    1  A    between atoms: C_2  and  C_4
REMARK    2  A    between atoms: C_7  and  N_8
REMARK    3  A    between atoms: N_8  and  C_9
REMARK    4  A    between atoms: C_9  and  C_10
REMARK    5  A    between atoms: C_14  and  C_15
REMARK    6  A    between atoms: C_20  and  C_21
REMARK                            x       y       z     vdW  Elec       q    Type
REMARK                         _______ _______ _______ _____ _____    ______ ____
ROOT
ATOM      1  C   UNL     1      43.962   4.994  11.240  0.00  0.00    +0.000 C 
ATOM      2  C   UNL     1      42.991   3.906  11.695  0.00  0.00    +0.000 C 
ATOM      3  C   UNL     1      42.550   5.328  11.722  0.00  0.00    +0.000 C 
ENDROOT
BRANCH   1   4
ATOM      4  C   UNL     1      45.139   5.224  12.210  0.00  0.00    +0.000 A 
ATOM      5  C   UNL     1      45.461   4.286  13.192  0.00  0.00    +0.000 A 
ATOM      6  C   UNL     1      46.670   4.374  13.867  0.00  0.00    +0.000 A 
ATOM      7  C   UNL     1      47.527   5.424  13.574  0.00  0.00    +0.000 A 
ATOM      8  C   UNL     1      47.125   6.389  12.653  0.00  0.00    +0.000 A 
ATOM      9  N   UNL     1      45.954   6.290  11.975  0.00  0.00    +0.000 NA
BRANCH   8  10
ATOM     10  C   UNL     1      48.002   7.512  12.271  0.00  0.00    +0.000 A 
ATOM     11  N   UNL     1      49.305   7.138  12.065  0.00  0.00    +0.000 NA
ATOM     12  C   UNL     1      50.180   8.055  11.610  0.00  0.00    +0.000 A 
ATOM     13  C   UNL     1      49.840   9.362  11.344  0.00  0.00    +0.000 A 
ATOM     14  C   UNL     1      48.529   9.749  11.586  0.00  0.00    +0.000 A 
ATOM     15  C   UNL     1      47.581   8.826  12.077  0.00  0.00    +0.000 A 
BRANCH  15  16
ATOM     16  C   UNL     1      46.200   9.341  12.374  0.00  0.00    +0.000 C 
ATOM     17  F   UNL     1      45.637   8.993  13.558  0.00  0.00    +0.000 F 
ATOM     18  F   UNL     1      46.199  10.713  12.401  0.00  0.00    +0.000 F 
ATOM     19  F   UNL     1      45.301   9.018  11.400  0.00  0.00    +0.000 F 
ENDBRANCH  15  16
ENDBRANCH   8  10
ENDBRANCH   1   4
BRANCH   1  20
ATOM     20  N   UNL     1      44.254   5.203   9.786  0.00  0.00    +0.000 N 
ATOM     21  H   UNL     1      44.690   6.091   9.565  0.00  0.00    +0.000 HD
BRANCH  20  25
ATOM     22  C   UNL     1      46.281   2.116   7.953  0.00  0.00    +0.000 A 
ATOM     23  C   UNL     1      46.456   3.422   7.552  0.00  0.00    +0.000 A 
ATOM     24  N   UNL     1      45.776   4.436   8.119  0.00  0.00    +0.000 NA
ATOM     25  C   UNL     1      44.896   4.142   9.107  0.00  0.00    +0.000 A 
ATOM     26  C   UNL     1      44.723   2.810   9.487  0.00  0.00    +0.000 A 
ATOM     27  N   UNL     1      45.389   1.761   8.920  0.00  0.00    +0.000 NA
BRANCH  22  29
ATOM     28  N   UNL     1      46.835  -0.221   7.662  0.00  0.00    +0.000 N 
ATOM     29  C   UNL     1      47.133   1.070   7.331  0.00  0.00    +0.000 C 
ATOM     30  O   UNL     1      48.056   1.345   6.573  0.00  0.00    +0.000 OA
ATOM     31  H   UNL     1      47.422  -0.964   7.307  0.00  0.00    +0.000 HD
ATOM     32  H   UNL     1      46.091  -0.421   8.315  0.00  0.00    +0.000 HD
ENDBRANCH  22  29
ENDBRANCH  20  25
ENDBRANCH   1  20
TORSDOF 6
ENDMDL
MODEL 2
REMARK VINA RESULT:    -8.777      2.149      2.848
REMARK INTER + INTRA:         -12.186
REMARK INTER:                 -11.149
REMARK INTRA:                  -1.037
REMARK UNBOUND:                -0.331
REMARK  Name = 
REMARK  6 active torsions:
REMARK  status: ('A' for Active; 'I' for Inactive)
REMARK    1  A    between atoms: C_2  and  C_4
REMARK    2  A    between atoms: C_7  and  N_8
REMARK    3  A    between atoms: N_8  and  C_9
REMARK    4  A    between atoms: C_9  and  C_10
REMARK    5  A    between atoms: C_14  and  C_15
REMARK    6  A    between atoms: C_20  and  C_21
REMARK                            x       y       z     vdW  Elec       q    Type
REMARK                         _______ _______ _______ _____ _____    ______ ____
ROOT
ATOM      1  C   UNL     1      44.589   5.115  11.486  0.00  0.00    +0.000 C 
ATOM      2  C   UNL     1      45.255   4.001  12.292  0.00  0.00    +0.000 C 
ATOM      3  C   UNL     1      43.893   4.461  12.680  0.00  0.00    +0.000 C 
ENDROOT
BRANCH   1   4
ATOM      4  C   UNL     1      45.236   6.500  11.686  0.00  0.00    +0.000 A 
ATOM      5  C   UNL     1      44.545   7.673  11.377  0.00  0.00    +0.000 A 
ATOM      6  C   UNL     1      45.027   8.900  11.813  0.00  0.00    +0.000 A 
ATOM      7  C   UNL     1      46.216   8.937  12.524  0.00  0.00    +0.000 A 
ATOM      8  C   UNL     1      46.920   7.753  12.731  0.00  0.00    +0.000 A 
ATOM      9  N   UNL     1      46.438   6.552  12.326  0.00  0.00    +0.000 NA
BRANCH   8  10
ATOM     10  C   UNL     1      48.174   7.719  13.508  0.00  0.00    +0.000 A 
ATOM     11  N   UNL     1      47.987   7.398  14.827  0.00  0.00    +0.000 NA
ATOM     12  C   UNL     1      49.067   7.232  15.616  0.00  0.00    +0.000 A 
ATOM     13  C   UNL     1      50.361   7.376  15.169  0.00  0.00    +0.000 A 
ATOM     14  C   UNL     1      50.549   7.737  13.842  0.00  0.00    +0.000 A 
ATOM     15  C   UNL     1      49.447   7.936  12.983  0.00  0.00    +0.000 A 
BRANCH  15  16
ATOM     16  C   UNL     1      49.734   8.387  11.578  0.00  0.00    +0.000 C 
ATOM     17  F   UNL     1      49.241   9.590  11.187  0.00  0.00    +0.000 F 
ATOM     18  F   UNL     1      51.087   8.510  11.384  0.00  0.00    +0.000 F 
ATOM     19  F   UNL     1      49.336   7.476  10.645  0.00  0.00    +0.000 F 
ENDBRANCH  15  16
ENDBRANCH   8  10
ENDBRANCH   1   4
BRANCH   1  20
ATOM     20  N   UNL     1      44.015   4.844  10.129  0.00  0.00    +0.000 N 
ATOM     21  H   UNL     1      43.641   5.659   9.656  0.00  0.00    +0.000 HD
BRANCH  20  25
ATOM     22  C   UNL     1      46.461   2.569   7.714  0.00  0.00    +0.000 A 
ATOM     23  C   UNL     1      46.449   3.943   7.625  0.00  0.00    +0.000 A 
ATOM     24  N   UNL     1      45.631   4.696   8.384  0.00  0.00    +0.000 NA
ATOM     25  C   UNL     1      44.802   4.065   9.250  0.00  0.00    +0.000 A 
ATOM     26  C   UNL     1      44.820   2.671   9.313  0.00  0.00    +0.000 A 
ATOM     27  N   UNL     1      45.629   1.882   8.546  0.00  0.00    +0.000 NA
BRANCH  22  29
ATOM     28  N   UNL     1      48.541   2.532   6.478  0.00  0.00    +0.000 N 
ATOM     29  C   UNL     1      47.454   1.821   6.901  0.00  0.00    +0.000 C 
ATOM     30  O   UNL     1      47.307   0.639   6.614  0.00  0.00    +0.000 OA
ATOM     31  H   UNL     1      49.217   2.081   5.876  0.00  0.00    +0.000 HD
ATOM     32  H   UNL     1      48.624   3.514   6.699  0.00  0.00    +0.000 HD
ENDBRANCH  22  29
ENDBRANCH  20  25
ENDBRANCH   1  20
TORSDOF 6
ENDMDL
MODEL 3
REMARK VINA RESULT:    -8.568      1.829      2.712
REMARK INTER + INTRA:         -11.904
REMARK INTER:                 -10.725
REMARK INTRA:                  -1.179
REMARK UNBOUND:                -0.331
REMARK  Name = 
REMARK  6 active torsions:
REMARK  status: ('A' for Active; 'I' for Inactive)
REMARK    1  A    between atoms: C_2  and  C_4
REMARK    2  A    between atoms: C_7  and  N_8
REMARK    3  A    between atoms: N_8  and  C_9
REMARK    4  A    between atoms: C_9  and  C_10
REMARK    5  A    between atoms: C_14  and  C_15
REMARK    6  A    between atoms: C_20  and  C_21
REMARK                            x       y       z     vdW  Elec       q    Type
REMARK                         _______ _______ _______ _____ _____    ______ ____
ROOT
ATOM      1  C   UNL     1      44.903   5.362  11.482  0.00  0.00    +0.000 C 
ATOM      2  C   UNL     1      45.662   4.308  12.287  0.00  0.00    +0.000 C 
ATOM      3  C   UNL     1      44.324   4.757  12.762  0.00  0.00    +0.000 C 
ENDROOT
BRANCH   1   4
ATOM      4  C   UNL     1      45.525   6.770  11.557  0.00  0.00    +0.000 A 
ATOM      5  C   UNL     1      44.725   7.913  11.595  0.00  0.00    +0.000 A 
ATOM      6  C   UNL     1      45.281   9.140  11.934  0.00  0.00    +0.000 A 
ATOM      7  C   UNL     1      46.640   9.210  12.197  0.00  0.00    +0.000 A 
ATOM      8  C   UNL     1      47.417   8.062  12.058  0.00  0.00    +0.000 A 
ATOM      9  N   UNL     1      46.871   6.859  11.750  0.00  0.00    +0.000 NA
BRANCH   8  10
ATOM     10  C   UNL     1      48.862   8.060  12.355  0.00  0.00    +0.000 A 
ATOM     11  N   UNL     1      49.642   8.324  11.259  0.00  0.00    +0.000 NA
ATOM     12  C   UNL     1      50.973   8.454  11.424  0.00  0.00    +0.000 A 
ATOM     13  C   UNL     1      51.602   8.328  12.642  0.00  0.00    +0.000 A 
ATOM     14  C   UNL     1      50.816   8.027  13.746  0.00  0.00    +0.000 A 
ATOM     15  C   UNL     1      49.420   7.866  13.617  0.00  0.00    +0.000 A 
BRANCH  15  16
ATOM     16  C   UNL     1      48.649   7.477  14.848  0.00  0.00    +0.000 C 
ATOM     17  F   UNL     1      47.859   6.376  14.778  0.00  0.00    +0.000 F 
ATOM     18  F   UNL     1      49.510   7.196  15.879  0.00  0.00    +0.000 F 
ATOM     19  F   UNL     1      47.870   8.492  15.320  0.00  0.00    +0.000 F 
ENDBRANCH  15  16
ENDBRANCH   8  10
ENDBRANCH   1   4
BRANCH   1  20
ATOM     20  N   UNL     1      44.229   5.005  10.194  0.00  0.00    +0.000 N 
ATOM     21  H   UNL     1      43.808   5.786   9.705  0.00  0.00    +0.000 HD
BRANCH  20  25
ATOM     22  C   UNL     1      46.501   2.592   7.742  0.00  0.00    +0.000 A 
ATOM     23  C   UNL     1      46.573   3.965   7.658  0.00  0.00    +0.000 A 
ATOM     24  N   UNL     1      45.812   4.765   8.429  0.00  0.00    +0.000 NA
ATOM     25  C   UNL     1      44.956   4.182   9.302  0.00  0.00    +0.000 A 
ATOM     26  C   UNL     1      44.888   2.789   9.360  0.00  0.00    +0.000 A 
ATOM     27  N   UNL     1      45.637   1.955   8.581  0.00  0.00    +0.000 NA
BRANCH  22  29
ATOM     28  N   UNL     1      48.472   2.471   6.343  0.00  0.00    +0.000 N 
ATOM     29  C   UNL     1      47.436   1.788   6.914  0.00  0.00    +0.000 C 
ATOM     30  O   UNL     1      47.286   0.584   6.743  0.00  0.00    +0.000 OA
ATOM     31  H   UNL     1      49.103   1.977   5.727  0.00  0.00    +0.000 HD
ATOM     32  H   UNL     1      48.556   3.469   6.472  0.00  0.00    +0.000 HD
ENDBRANCH  22  29
ENDBRANCH  20  25
ENDBRANCH   1  20
TORSDOF 6
ENDMDL
MODEL 4
REMARK VINA RESULT:    -8.261      3.653      7.153
REMARK INTER + INTRA:         -11.490
REMARK INTER:                 -10.837
REMARK INTRA:                  -0.652
REMARK UNBOUND:                -0.331
REMARK  Name = 
REMARK  6 active torsions:
REMARK  status: ('A' for Active; 'I' for Inactive)
REMARK    1  A    between atoms: C_2  and  C_4
REMARK    2  A    between atoms: C_7  and  N_8
REMARK    3  A    between atoms: N_8  and  C_9
REMARK    4  A    between atoms: C_9  and  C_10
REMARK    5  A    between atoms: C_14  and  C_15
REMARK    6  A    between atoms: C_20  and  C_21
REMARK                            x       y       z     vdW  Elec       q    Type
REMARK                         _______ _______ _______ _____ _____    ______ ____
ROOT
ATOM      1  C   UNL     1      48.550   7.731  12.748  0.00  0.00    +0.000 C 
ATOM      2  C   UNL     1      49.511   7.020  11.796  0.00  0.00    +0.000 C 
ATOM      3  C   UNL     1      49.435   8.507  11.771  0.00  0.00    +0.000 C 
ENDROOT
BRANCH   1   4
ATOM      4  C   UNL     1      47.063   7.538  12.390  0.00  0.00    +0.000 A 
ATOM      5  C   UNL     1      46.130   8.554  12.605  0.00  0.00    +0.000 A 
ATOM      6  C   UNL     1      44.867   8.469  12.034  0.00  0.00    +0.000 A 
ATOM      7  C   UNL     1      44.545   7.349  11.283  0.00  0.00    +0.000 A 
ATOM      8  C   UNL     1      45.474   6.318  11.171  0.00  0.00    +0.000 A 
ATOM      9  N   UNL     1      46.716   6.410  11.709  0.00  0.00    +0.000 NA
BRANCH   8  10
ATOM     10  C   UNL     1      45.207   5.115  10.360  0.00  0.00    +0.000 A 
ATOM     11  N   UNL     1      45.694   5.202   9.082  0.00  0.00    +0.000 NA
ATOM     12  C   UNL     1      45.604   4.126   8.277  0.00  0.00    +0.000 A 
ATOM     13  C   UNL     1      45.040   2.932   8.666  0.00  0.00    +0.000 A 
ATOM     14  C   UNL     1      44.515   2.855   9.950  0.00  0.00    +0.000 A 
ATOM     15  C   UNL     1      44.572   3.963  10.822  0.00  0.00    +0.000 A 
BRANCH  15  16
ATOM     16  C   UNL     1      43.925   3.819  12.171  0.00  0.00    +0.000 C 
ATOM     17  F   UNL     1      42.834   4.582  12.434  0.00  0.00    +0.000 F 
ATOM     18  F   UNL     1      43.476   2.534  12.349  0.00  0.00    +0.000 F 
ATOM     19  F   UNL     1      44.802   4.019  13.196  0.00  0.00    +0.000 F 
ENDBRANCH  15  16
ENDBRANCH   8  10
ENDBRANCH   1   4
BRANCH   1  20
ATOM     20  N   UNL     1      48.868   7.859  14.206  0.00  0.00    +0.000 N 
ATOM     21  H   UNL     1      48.535   8.712  14.639  0.00  0.00    +0.000 HD
BRANCH  20  25
ATOM     22  C   UNL     1      47.864   4.673  16.622  0.00  0.00    +0.000 A 
ATOM     23  C   UNL     1      48.592   5.736  17.109  0.00  0.00    +0.000 A 
ATOM     24  N   UNL     1      48.956   6.767  16.322  0.00  0.00    +0.000 NA
ATOM     25  C   UNL     1      48.588   6.736  15.018  0.00  0.00    +0.000 A 
ATOM     26  C   UNL     1      47.864   5.642  14.543  0.00  0.00    +0.000 A 
ATOM     27  N   UNL     1      47.494   4.577  15.314  0.00  0.00    +0.000 NA
BRANCH  22  29
ATOM     28  N   UNL     1      48.195   3.485  18.703  0.00  0.00    +0.000 N 
ATOM     29  C   UNL     1      47.434   3.620  17.577  0.00  0.00    +0.000 C 
ATOM     30  O   UNL     1      46.461   2.906  17.368  0.00  0.00    +0.000 OA
ATOM     31  H   UNL     1      47.974   2.745  19.356  0.00  0.00    +0.000 HD
ATOM     32  H   UNL     1      49.012   4.063  18.838  0.00  0.00    +0.000 HD
ENDBRANCH  22  29
ENDBRANCH  20  25
ENDBRANCH   1  20
TORSDOF 6
ENDMDL
MODEL 5
REMARK VINA RESULT:    -7.907      3.975      6.480
REMARK INTER + INTRA:         -11.012
REMARK INTER:                  -9.684
REMARK INTRA:                  -1.328
REMARK UNBOUND:                -0.331
REMARK  Name = 
REMARK  6 active torsions:
REMARK  status: ('A' for Active; 'I' for Inactive)
REMARK    1  A    between atoms: C_2  and  C_4
REMARK    2  A    between atoms: C_7  and  N_8
REMARK    3  A    between atoms: N_8  and  C_9
REMARK    4  A    between atoms: C_9  and  C_10
REMARK    5  A    between atoms: C_14  and  C_15
REMARK    6  A    between atoms: C_20  and  C_21
REMARK                            x       y       z     vdW  Elec       q    Type
REMARK                         _______ _______ _______ _____ _____    ______ ____
ROOT
ATOM      1  C   UNL     1      48.537   7.912  13.124  0.00  0.00    +0.000 C 
ATOM      2  C   UNL     1      47.878   9.216  12.677  0.00  0.00    +0.000 C 
ATOM      3  C   UNL     1      49.307   8.973  12.339  0.00  0.00    +0.000 C 
ENDROOT
BRANCH   1   4
ATOM      4  C   UNL     1      48.766   7.820  14.646  0.00  0.00    +0.000 A 
ATOM      5  C   UNL     1      48.327   8.827  15.506  0.00  0.00    +0.000 A 
ATOM      6  C   UNL     1      48.296   8.606  16.877  0.00  0.00    +0.000 A 
ATOM      7  C   UNL     1      48.739   7.389  17.369  0.00  0.00    +0.000 A 
ATOM      8  C   UNL     1      49.255   6.446  16.483  0.00  0.00    +0.000 A 
ATOM      9  N   UNL     1      49.264   6.652  15.142  0.00  0.00    +0.000 NA
BRANCH   8  10
ATOM     10  C   UNL     1      49.711   5.120  16.937  0.00  0.00    +0.000 A 
ATOM     11  N   UNL     1      51.075   5.013  17.021  0.00  0.00    +0.000 NA
ATOM     12  C   UNL     1      51.611   3.884  17.525  0.00  0.00    +0.000 A 
ATOM     13  C   UNL     1      50.858   2.816  17.959  0.00  0.00    +0.000 A 
ATOM     14  C   UNL     1      49.477   2.910  17.841  0.00  0.00    +0.000 A 
ATOM     15  C   UNL     1      48.874   4.067  17.305  0.00  0.00    +0.000 A 
BRANCH  15  16
ATOM     16  C   UNL     1      47.378   4.063  17.152  0.00  0.00    +0.000 C 
ATOM     17  F   UNL     1      46.867   4.364  15.931  0.00  0.00    +0.000 F 
ATOM     18  F   UNL     1      46.876   2.814  17.418  0.00  0.00    +0.000 F 
ATOM     19  F   UNL     1      46.759   4.880  18.051  0.00  0.00    +0.000 F 
ENDBRANCH  15  16
ENDBRANCH   8  10
ENDBRANCH   1   4
BRANCH   1  20
ATOM     20  N   UNL     1      48.242   6.623  12.421  0.00  0.00    +0.000 N 
ATOM     21  H   UNL     1      48.775   5.827  12.754  0.00  0.00    +0.000 HD
BRANCH  20  25
ATOM     22  C   UNL     1      44.326   5.435  11.922  0.00  0.00    +0.000 A 
ATOM     23  C   UNL     1      45.084   5.861  10.854  0.00  0.00    +0.000 A 
ATOM     24  N   UNL     1      46.353   6.284  11.008  0.00  0.00    +0.000 NA
ATOM     25  C   UNL     1      46.879   6.285  12.257  0.00  0.00    +0.000 A 
ATOM     26  C   UNL     1      46.088   5.863  13.327  0.00  0.00    +0.000 A 
ATOM     27  N   UNL     1      44.794   5.443  13.202  0.00  0.00    +0.000 NA
BRANCH  22  29
ATOM     28  N   UNL     1      41.939   5.803  11.763  0.00  0.00    +0.000 N 
ATOM     29  C   UNL     1      42.965   4.907  11.650  0.00  0.00    +0.000 C 
ATOM     30  O   UNL     1      42.766   3.735  11.352  0.00  0.00    +0.000 OA
ATOM     31  H   UNL     1      40.990   5.477  11.642  0.00  0.00    +0.000 HD
ATOM     32  H   UNL     1      42.125   6.755  12.043  0.00  0.00    +0.000 HD
ENDBRANCH  22  29
ENDBRANCH  20  25
ENDBRANCH   1  20
TORSDOF 6
ENDMDL
MODEL 6
REMARK VINA RESULT:    -7.159      3.930      6.135
REMARK INTER + INTRA:         -10.000
REMARK INTER:                  -9.541
REMARK INTRA:                  -0.460
REMARK UNBOUND:                -0.331
REMARK  Name = 
REMARK  6 active torsions:
REMARK  status: ('A' for Active; 'I' for Inactive)
REMARK    1  A    between atoms: C_2  and  C_4
REMARK    2  A    between atoms: C_7  and  N_8
REMARK    3  A    between atoms: N_8  and  C_9
REMARK    4  A    between atoms: C_9  and  C_10
REMARK    5  A    between atoms: C_14  and  C_15
REMARK    6  A    between atoms: C_20  and  C_21
REMARK                            x       y       z     vdW  Elec       q    Type
REMARK                         _______ _______ _______ _____ _____    ______ ____
ROOT
ATOM      1  C   UNL     1      47.832   7.612  13.001  0.00  0.00    +0.000 C 
ATOM      2  C   UNL     1      48.186   8.751  12.047  0.00  0.00    +0.000 C 
ATOM      3  C   UNL     1      48.114   7.360  11.520  0.00  0.00    +0.000 C 
ENDROOT
BRANCH   1   4
ATOM      4  C   UNL     1      48.941   7.286  14.021  0.00  0.00    +0.000 A 
ATOM      5  C   UNL     1      50.126   8.022  14.061  0.00  0.00    +0.000 A 
ATOM      6  C   UNL     1      50.985   7.899  15.145  0.00  0.00    +0.000 A 
ATOM      7  C   UNL     1      50.660   7.012  16.159  0.00  0.00    +0.000 A 
ATOM      8  C   UNL     1      49.514   6.230  16.035  0.00  0.00    +0.000 A 
ATOM      9  N   UNL     1      48.662   6.367  14.989  0.00  0.00    +0.000 NA
BRANCH   8  10
ATOM     10  C   UNL     1      49.094   5.293  17.093  0.00  0.00    +0.000 A 
ATOM     11  N   UNL     1      49.187   3.977  16.722  0.00  0.00    +0.000 NA
ATOM     12  C   UNL     1      48.932   3.022  17.638  0.00  0.00    +0.000 A 
ATOM     13  C   UNL     1      48.572   3.296  18.938  0.00  0.00    +0.000 A 
ATOM     14  C   UNL     1      48.442   4.629  19.305  0.00  0.00    +0.000 A 
ATOM     15  C   UNL     1      48.685   5.661  18.374  0.00  0.00    +0.000 A 
BRANCH  15  16
ATOM     16  C   UNL     1      48.461   7.076  18.832  0.00  0.00    +0.000 C 
ATOM     17  F   UNL     1      47.824   7.922  17.984  0.00  0.00    +0.000 F 
ATOM     18  F   UNL     1      47.678   7.093  19.959  0.00  0.00    +0.000 F 
ATOM     19  F   UNL     1      49.617   7.693  19.210  0.00  0.00    +0.000 F 
ENDBRANCH  15  16
ENDBRANCH   8  10
ENDBRANCH   1   4
BRANCH   1  20
ATOM     20  N   UNL     1      46.423   7.414  13.471  0.00  0.00    +0.000 N 
ATOM     21  H   UNL     1      45.839   8.241  13.419  0.00  0.00    +0.000 HD
BRANCH  20  25
ATOM     22  C   UNL     1      44.597   4.073  11.891  0.00  0.00    +0.000 A 
ATOM     23  C   UNL     1      44.327   5.332  11.403  0.00  0.00    +0.000 A 
ATOM     24  N   UNL     1      44.890   6.435  11.931  0.00  0.00    +0.000 NA
ATOM     25  C   UNL     1      45.741   6.280  12.975  0.00  0.00    +0.000 A 
ATOM     26  C   UNL     1      45.988   4.996  13.464  0.00  0.00    +0.000 A 
ATOM     27  N   UNL     1      45.420   3.862  12.957  0.00  0.00    +0.000 NA
BRANCH  22  29
ATOM     28  N   UNL     1      44.703   2.410  10.136  0.00  0.00    +0.000 N 
ATOM     29  C   UNL     1      43.997   2.906  11.196  0.00  0.00    +0.000 C 
ATOM     30  O   UNL     1      42.927   2.419  11.540  0.00  0.00    +0.000 OA
ATOM     31  H   UNL     1      44.308   1.652   9.598  0.00  0.00    +0.000 HD
ATOM     32  H   UNL     1      45.566   2.850   9.850  0.00  0.00    +0.000 HD
ENDBRANCH  22  29
ENDBRANCH  20  25
ENDBRANCH   1  20
TORSDOF 6
ENDMDL
MODEL 7
REMARK VINA RESULT:    -7.116      4.825      7.069
REMARK INTER + INTRA:          -9.943
REMARK INTER:                  -8.861
REMARK INTRA:                  -1.082
REMARK UNBOUND:                -0.331
REMARK  Name = 
REMARK  6 active torsions:
REMARK  status: ('A' for Active; 'I' for Inactive)
REMARK    1  A    between atoms: C_2  and  C_4
REMARK    2  A    between atoms: C_7  and  N_8
REMARK    3  A    between atoms: N_8  and  C_9
REMARK    4  A    between atoms: C_9  and  C_10
REMARK    5  A    between atoms: C_14  and  C_15
REMARK    6  A    between atoms: C_20  and  C_21
REMARK                            x       y       z     vdW  Elec       q    Type
REMARK                         _______ _______ _______ _____ _____    ______ ____
ROOT
ATOM      1  C   UNL     1      48.867   7.889  13.530  0.00  0.00    +0.000 C 
ATOM      2  C   UNL     1      48.156   9.202  13.208  0.00  0.00    +0.000 C 
ATOM      3  C   UNL     1      49.593   9.050  12.850  0.00  0.00    +0.000 C 
ENDROOT
BRANCH   1   4
ATOM      4  C   UNL     1      49.103   7.661  15.036  0.00  0.00    +0.000 A 
ATOM      5  C   UNL     1      48.697   8.603  15.982  0.00  0.00    +0.000 A 
ATOM      6  C   UNL     1      48.667   8.267  17.329  0.00  0.00    +0.000 A 
ATOM      7  C   UNL     1      49.081   7.001  17.713  0.00  0.00    +0.000 A 
ATOM      8  C   UNL     1      49.566   6.124  16.745  0.00  0.00    +0.000 A 
ATOM      9  N   UNL     1      49.572   6.443  15.427  0.00  0.00    +0.000 NA
BRANCH   8  10
ATOM     10  C   UNL     1      49.989   4.752  17.082  0.00  0.00    +0.000 A 
ATOM     11  N   UNL     1      48.976   3.833  16.990  0.00  0.00    +0.000 NA
ATOM     12  C   UNL     1      49.263   2.529  17.171  0.00  0.00    +0.000 A 
ATOM     13  C   UNL     1      50.527   2.062  17.454  0.00  0.00    +0.000 A 
ATOM     14  C   UNL     1      51.546   2.997  17.583  0.00  0.00    +0.000 A 
ATOM     15  C   UNL     1      51.288   4.374  17.417  0.00  0.00    +0.000 A 
BRANCH  15  16
ATOM     16  C   UNL     1      52.432   5.326  17.636  0.00  0.00    +0.000 C 
ATOM     17  F   UNL     1      52.730   6.196  16.638  0.00  0.00    +0.000 F 
ATOM     18  F   UNL     1      52.176   6.138  18.712  0.00  0.00    +0.000 F 
ATOM     19  F   UNL     1      53.591   4.685  17.959  0.00  0.00    +0.000 F 
ENDBRANCH  15  16
ENDBRANCH   8  10
ENDBRANCH   1   4
BRANCH   1  20
ATOM     20  N   UNL     1      48.623   6.661  12.707  0.00  0.00    +0.000 N 
ATOM     21  H   UNL     1      49.360   5.967  12.752  0.00  0.00    +0.000 HD
BRANCH  20  25
ATOM     22  C   UNL     1      44.985   4.736  12.946  0.00  0.00    +0.000 A 
ATOM     23  C   UNL     1      45.238   5.664  11.961  0.00  0.00    +0.000 A 
ATOM     24  N   UNL     1      46.409   6.325  11.891  0.00  0.00    +0.000 NA
ATOM     25  C   UNL     1      47.350   6.057  12.828  0.00  0.00    +0.000 A 
ATOM     26  C   UNL     1      47.067   5.124  13.827  0.00  0.00    +0.000 A 
ATOM     27  N   UNL     1      45.884   4.450  13.930  0.00  0.00    +0.000 NA
BRANCH  22  29
ATOM     28  N   UNL     1      43.777   2.684  12.517  0.00  0.00    +0.000 N 
ATOM     29  C   UNL     1      43.700   3.994  12.899  0.00  0.00    +0.000 C 
ATOM     30  O   UNL     1      42.630   4.522  13.175  0.00  0.00    +0.000 OA
ATOM     31  H   UNL     1      42.922   2.153  12.417  0.00  0.00    +0.000 HD
ATOM     32  H   UNL     1      44.666   2.280  12.262  0.00  0.00    +0.000 HD
ENDBRANCH  22  29
ENDBRANCH  20  25
ENDBRANCH   1  20
TORSDOF 6
ENDMDL
MODEL 8
REMARK VINA RESULT:    -7.020      4.305      7.374
REMARK INTER + INTRA:          -9.813
REMARK INTER:                  -8.813
REMARK INTRA:                  -1.000
REMARK UNBOUND:                -0.331
REMARK  Name = 
REMARK  6 active torsions:
REMARK  status: ('A' for Active; 'I' for Inactive)
REMARK    1  A    between atoms: C_2  and  C_4
REMARK    2  A    between atoms: C_7  and  N_8
REMARK    3  A    between atoms: N_8  and  C_9
REMARK    4  A    between atoms: C_9  and  C_10
REMARK    5  A    between atoms: C_14  and  C_15
REMARK    6  A    between atoms: C_20  and  C_21
REMARK                            x       y       z     vdW  Elec       q    Type
REMARK                         _______ _______ _______ _____ _____    ______ ____
ROOT
ATOM      1  C   UNL     1      48.634   8.368  17.179  0.00  0.00    +0.000 C 
ATOM      2  C   UNL     1      49.717   9.276  17.758  0.00  0.00    +0.000 C 
ATOM      3  C   UNL     1      48.338   9.811  17.589  0.00  0.00    +0.000 C 
ENDROOT
BRANCH   1   4
ATOM      4  C   UNL     1      48.817   8.057  15.680  0.00  0.00    +0.000 A 
ATOM      5  C   UNL     1      49.961   8.464  14.992  0.00  0.00    +0.000 A 
ATOM      6  C   UNL     1      50.235   7.948  13.732  0.00  0.00    +0.000 A 
ATOM      7  C   UNL     1      49.337   7.057  13.164  0.00  0.00    +0.000 A 
ATOM      8  C   UNL     1      48.163   6.750  13.847  0.00  0.00    +0.000 A 
ATOM      9  N   UNL     1      47.907   7.234  15.088  0.00  0.00    +0.000 NA
BRANCH   8  10
ATOM     10  C   UNL     1      47.184   5.784  13.314  0.00  0.00    +0.000 A 
ATOM     11  N   UNL     1      47.477   4.483  13.628  0.00  0.00    +0.000 NA
ATOM     12  C   UNL     1      46.601   3.517  13.287  0.00  0.00    +0.000 A 
ATOM     13  C   UNL     1      45.419   3.765  12.628  0.00  0.00    +0.000 A 
ATOM     14  C   UNL     1      45.138   5.079  12.278  0.00  0.00    +0.000 A 
ATOM     15  C   UNL     1      46.034   6.120  12.601  0.00  0.00    +0.000 A 
BRANCH  15  16
ATOM     16  C   UNL     1      45.687   7.506  12.131  0.00  0.00    +0.000 C 
ATOM     17  F   UNL     1      44.666   7.636  11.247  0.00  0.00    +0.000 F 
ATOM     18  F   UNL     1      45.303   8.286  13.192  0.00  0.00    +0.000 F 
ATOM     19  F   UNL     1      46.758   8.160  11.596  0.00  0.00    +0.000 F 
ENDBRANCH  15  16
ENDBRANCH   8  10
ENDBRANCH   1   4
BRANCH   1  20
ATOM     20  N   UNL     1      48.018   7.283  18.008  0.00  0.00    +0.000 N 
ATOM     21  H   UNL     1      47.005   7.256  17.986  0.00  0.00    +0.000 HD
BRANCH  20  25
ATOM     22  C   UNL     1      49.626   3.539  17.379  0.00  0.00    +0.000 A 
ATOM     23  C   UNL     1      48.264   3.741  17.373  0.00  0.00    +0.000 A 
ATOM     24  N   UNL     1      47.724   4.951  17.610  0.00  0.00    +0.000 NA
ATOM     25  C   UNL     1      48.562   5.986  17.863  0.00  0.00    +0.000 A 
ATOM     26  C   UNL     1      49.938   5.756  17.880  0.00  0.00    +0.000 A 
ATOM     27  N   UNL     1      50.512   4.537  17.656  0.00  0.00    +0.000 NA
BRANCH  22  29
ATOM     28  N   UNL     1      51.042   1.645  17.890  0.00  0.00    +0.000 N 
ATOM     29  C   UNL     1      50.138   2.191  17.024  0.00  0.00    +0.000 C 
ATOM     30  O   UNL     1      49.781   1.602  16.011  0.00  0.00    +0.000 OA
ATOM     31  H   UNL     1      51.460   0.753  17.663  0.00  0.00    +0.000 HD
ATOM     32  H   UNL     1      51.346   2.164  18.702  0.00  0.00    +0.000 HD
ENDBRANCH  22  29
ENDBRANCH  20  25
ENDBRANCH   1  20
TORSDOF 6
ENDMDL
MODEL 9
REMARK VINA RESULT:    -6.986      4.302      6.355
REMARK INTER + INTRA:          -9.767
REMARK INTER:                  -9.227
REMARK INTRA:                  -0.540
REMARK UNBOUND:                -0.331
REMARK  Name = 
REMARK  6 active torsions:
REMARK  status: ('A' for Active; 'I' for Inactive)
REMARK    1  A    between atoms: C_2  and  C_4
REMARK    2  A    between atoms: C_7  and  N_8
REMARK    3  A    between atoms: N_8  and  C_9
REMARK    4  A    between atoms: C_9  and  C_10
REMARK    5  A    between atoms: C_14  and  C_15
REMARK    6  A    between atoms: C_20  and  C_21
REMARK                            x       y       z     vdW  Elec       q    Type
REMARK                         _______ _______ _______ _____ _____    ______ ____
ROOT
ATOM      1  C   UNL     1      47.850   7.671  13.083  0.00  0.00    +0.000 C 
ATOM      2  C   UNL     1      48.265   8.762  12.098  0.00  0.00    +0.000 C 
ATOM      3  C   UNL     1      48.204   7.350  11.631  0.00  0.00    +0.000 C 
ENDROOT
BRANCH   1   4
ATOM      4  C   UNL     1      48.901   7.383  14.173  0.00  0.00    +0.000 A 
ATOM      5  C   UNL     1      50.250   7.684  13.975  0.00  0.00    +0.000 A 
ATOM      6  C   UNL     1      51.129   7.674  15.049  0.00  0.00    +0.000 A 
ATOM      7  C   UNL     1      50.651   7.328  16.303  0.00  0.00    +0.000 A 
ATOM      8  C   UNL     1      49.319   6.945  16.439  0.00  0.00    +0.000 A 
ATOM      9  N   UNL     1      48.453   6.978  15.395  0.00  0.00    +0.000 NA
BRANCH   8  10
ATOM     10  C   UNL     1      48.739   6.598  17.750  0.00  0.00    +0.000 A 
ATOM     11  N   UNL     1      48.391   7.693  18.497  0.00  0.00    +0.000 NA
ATOM     12  C   UNL     1      47.754   7.504  19.670  0.00  0.00    +0.000 A 
ATOM     13  C   UNL     1      47.438   6.261  20.170  0.00  0.00    +0.000 A 
ATOM     14  C   UNL     1      47.823   5.151  19.429  0.00  0.00    +0.000 A 
ATOM     15  C   UNL     1      48.504   5.301  18.203  0.00  0.00    +0.000 A 
BRANCH  15  16
ATOM     16  C   UNL     1      48.942   4.049  17.495  0.00  0.00    +0.000 C 
ATOM     17  F   UNL     1      50.257   3.927  17.180  0.00  0.00    +0.000 F 
ATOM     18  F   UNL     1      48.690   2.948  18.275  0.00  0.00    +0.000 F 
ATOM     19  F   UNL     1      48.240   3.824  16.348  0.00  0.00    +0.000 F 
ENDBRANCH  15  16
ENDBRANCH   8  10
ENDBRANCH   1   4
BRANCH   1  20
ATOM     20  N   UNL     1      46.417   7.507  13.488  0.00  0.00    +0.000 N 
ATOM     21  H   UNL     1      45.846   8.336  13.372  0.00  0.00    +0.000 HD
BRANCH  20  25
ATOM     22  C   UNL     1      44.623   4.134  11.939  0.00  0.00    +0.000 A 
ATOM     23  C   UNL     1      44.306   5.389  11.470  0.00  0.00    +0.000 A 
ATOM     24  N   UNL     1      44.860   6.502  11.990  0.00  0.00    +0.000 NA
ATOM     25  C   UNL     1      45.747   6.360  13.004  0.00  0.00    +0.000 A 
ATOM     26  C   UNL     1      46.042   5.079  13.474  0.00  0.00    +0.000 A 
ATOM     27  N   UNL     1      45.486   3.935  12.975  0.00  0.00    +0.000 NA
BRANCH  22  29
ATOM     28  N   UNL     1      44.765   2.424  10.233  0.00  0.00    +0.000 N 
ATOM     29  C   UNL     1      44.030   2.958  11.253  0.00  0.00    +0.000 C 
ATOM     30  O   UNL     1      42.941   2.496  11.572  0.00  0.00    +0.000 OA
ATOM     31  H   UNL     1      44.378   1.657   9.700  0.00  0.00    +0.000 HD
ATOM     32  H   UNL     1      45.645   2.843   9.966  0.00  0.00    +0.000 HD
ENDBRANCH  22  29
ENDBRANCH  20  25
ENDBRANCH   1  20
TORSDOF 6
ENDMDL
