MODEL 1
REMARK VINA RESULT:    -8.464      0.000      0.000
REMARK INTER + INTRA:         -12.046
REMARK INTER:                 -11.433
REMARK INTRA:                  -0.612
REMARK UNBOUND:                -0.612
REMARK  Name = 
REMARK  7 active torsions:
REMARK  status: ('A' for Active; 'I' for Inactive)
REMARK    1  A    between atoms: C_1  and  O_2
REMARK    2  A    between atoms: O_2  and  C_3
REMARK    3  A    between atoms: C_5  and  C_6
REMARK    4  A    between atoms: C_11  and  N_12
REMARK    5  A    between atoms: N_12  and  C_13
REMARK    6  A    between atoms: C_13  and  C_14
REMARK    7  A    between atoms: C_18  and  C_19
REMARK                            x       y       z     vdW  Elec       q    Type
REMARK                         _______ _______ _______ _____ _____    ______ ____
ROOT
ATOM      1  N   UNL     1      43.732   5.096   9.787  0.00  0.00    +0.000 N 
ATOM      2  H   UNL     1      42.973   5.384   9.175  0.00  0.00    +0.000 HD
ENDROOT
BRANCH   1   8
ATOM      3  C   UNL     1      44.449   2.756   9.607  0.00  0.00    +0.000 A 
ATOM      4  C   UNL     1      45.279   1.788   9.028  0.00  0.00    +0.000 A 
ATOM      5  C   UNL     1      46.232   2.133   8.060  0.00  0.00    +0.000 A 
ATOM      6  C   UNL     1      46.354   3.466   7.676  0.00  0.00    +0.000 A 
ATOM      7  C   UNL     1      45.525   4.437   8.246  0.00  0.00    +0.000 A 
ATOM      8  C   UNL     1      44.562   4.112   9.207  0.00  0.00    +0.000 A 
BRANCH   5   9
ATOM      9  C   UNL     1      47.061   1.035   7.481  0.00  0.00    +0.000 C 
ATOM     10  N   UNL     1      46.713  -0.262   7.745  0.00  0.00    +0.000 N 
ATOM     11  O   UNL     1      48.043   1.272   6.790  0.00  0.00    +0.000 OA
ATOM     12  H   UNL     1      45.938  -0.552   8.321  0.00  0.00    +0.000 HD
ATOM     13  H   UNL     1      47.311  -0.981   7.353  0.00  0.00    +0.000 HD
ENDBRANCH   5   9
BRANCH   3  15
ATOM     14  C   UNL     1      43.948   2.197  11.869  0.00  0.00    +0.000 C 
ATOM     15  O   UNL     1      43.481   2.472  10.549  0.00  0.00    +0.000 OA
ENDBRANCH   3  15
ENDBRANCH   1   8
BRANCH   1  16
ATOM     16  C   UNL     1      43.898   5.708  11.114  0.00  0.00    +0.000 C 
ATOM     17  C   UNL     1      42.853   5.313  12.158  0.00  0.00    +0.000 C 
ATOM     18  C   UNL     1      42.897   6.717  11.661  0.00  0.00    +0.000 C 
BRANCH  16  19
ATOM     19  C   UNL     1      45.344   5.881  11.593  0.00  0.00    +0.000 A 
ATOM     20  C   UNL     1      46.255   6.696  10.906  0.00  0.00    +0.000 A 
ATOM     21  C   UNL     1      47.525   6.970  11.417  0.00  0.00    +0.000 A 
ATOM     22  C   UNL     1      47.910   6.433  12.643  0.00  0.00    +0.000 A 
ATOM     23  C   UNL     1      47.046   5.602  13.373  0.00  0.00    +0.000 A 
ATOM     24  C   UNL     1      45.786   5.318  12.805  0.00  0.00    +0.000 A 
BRANCH  23  25
ATOM     25  C   UNL     1      47.401   5.100  14.715  0.00  0.00    +0.000 A 
ATOM     26  C   UNL     1      48.205   5.834  15.602  0.00  0.00    +0.000 A 
ATOM     27  C   UNL     1      48.574   5.298  16.836  0.00  0.00    +0.000 A 
ATOM     28  C   UNL     1      48.115   4.037  17.169  0.00  0.00    +0.000 A 
ATOM     29  N   UNL     1      47.332   3.293  16.364  0.00  0.00    +0.000 NA
ATOM     30  C   UNL     1      47.005   3.839  15.165  0.00  0.00    +0.000 A 
ENDBRANCH  23  25
ENDBRANCH  16  19
ENDBRANCH   1  16
TORSDOF 6
ENDMDL
MODEL 2
REMARK VINA RESULT:    -7.662      2.122      3.401
REMARK INTER + INTRA:         -10.962
REMARK INTER:                 -10.260
REMARK INTRA:                  -0.701
REMARK UNBOUND:                -0.612
REMARK  Name = 
REMARK  7 active torsions:
REMARK  status: ('A' for Active; 'I' for Inactive)
REMARK    1  A    between atoms: C_1  and  O_2
REMARK    2  A    between atoms: O_2  and  C_3
REMARK    3  A    between atoms: C_5  and  C_6
REMARK    4  A    between atoms: C_11  and  N_12
REMARK    5  A    between atoms: N_12  and  C_13
REMARK    6  A    between atoms: C_13  and  C_14
REMARK    7  A    between atoms: C_18  and  C_19
REMARK                            x       y       z     vdW  Elec       q    Type
REMARK                         _______ _______ _______ _____ _____    ______ ____
ROOT
ATOM      1  N   UNL     1      43.607   4.793  10.279  0.00  0.00    +0.000 N 
ATOM      2  H   UNL     1      42.669   4.404  10.213  0.00  0.00    +0.000 HD
ENDROOT
BRANCH   1   8
ATOM      3  C   UNL     1      44.562   2.679   9.481  0.00  0.00    +0.000 A 
ATOM      4  C   UNL     1      45.500   1.997   8.696  0.00  0.00    +0.000 A 
ATOM      5  C   UNL     1      46.438   2.690   7.919  0.00  0.00    +0.000 A 
ATOM      6  C   UNL     1      46.434   4.083   7.938  0.00  0.00    +0.000 A 
ATOM      7  C   UNL     1      45.497   4.770   8.714  0.00  0.00    +0.000 A 
ATOM      8  C   UNL     1      44.547   4.096   9.489  0.00  0.00    +0.000 A 
BRANCH   5   9
ATOM      9  C   UNL     1      47.389   1.885   7.098  0.00  0.00    +0.000 C 
ATOM     10  N   UNL     1      48.471   2.511   6.539  0.00  0.00    +0.000 N 
ATOM     11  O   UNL     1      47.215   0.688   6.908  0.00  0.00    +0.000 OA
ATOM     12  H   UNL     1      48.681   3.493   6.620  0.00  0.00    +0.000 HD
ATOM     13  H   UNL     1      49.084   1.936   5.970  0.00  0.00    +0.000 HD
ENDBRANCH   5   9
BRANCH   3  15
ATOM     14  C   UNL     1      43.699   2.245  11.660  0.00  0.00    +0.000 C 
ATOM     15  O   UNL     1      43.603   2.050  10.249  0.00  0.00    +0.000 OA
ENDBRANCH   3  15
ENDBRANCH   1   8
BRANCH   1  16
ATOM     16  C   UNL     1      43.869   5.977  11.111  0.00  0.00    +0.000 C 
ATOM     17  C   UNL     1      42.645   6.592  11.789  0.00  0.00    +0.000 C 
ATOM     18  C   UNL     1      43.354   7.357  10.726  0.00  0.00    +0.000 C 
BRANCH  16  19
ATOM     19  C   UNL     1      45.180   5.956  11.907  0.00  0.00    +0.000 A 
ATOM     20  C   UNL     1      45.483   4.917  12.799  0.00  0.00    +0.000 A 
ATOM     21  C   UNL     1      46.732   4.819  13.414  0.00  0.00    +0.000 A 
ATOM     22  C   UNL     1      47.717   5.765  13.139  0.00  0.00    +0.000 A 
ATOM     23  C   UNL     1      47.470   6.832  12.263  0.00  0.00    +0.000 A 
ATOM     24  C   UNL     1      46.183   6.919  11.691  0.00  0.00    +0.000 A 
BRANCH  23  25
ATOM     25  C   UNL     1      48.529   7.791  11.889  0.00  0.00    +0.000 A 
ATOM     26  C   UNL     1      49.839   7.383  11.592  0.00  0.00    +0.000 A 
ATOM     27  C   UNL     1      50.829   8.323  11.307  0.00  0.00    +0.000 A 
ATOM     28  C   UNL     1      50.484   9.662  11.309  0.00  0.00    +0.000 A 
ATOM     29  N   UNL     1      49.243  10.111  11.574  0.00  0.00    +0.000 NA
ATOM     30  C   UNL     1      48.308   9.169  11.862  0.00  0.00    +0.000 A 
ENDBRANCH  23  25
ENDBRANCH  16  19
ENDBRANCH   1  16
TORSDOF 6
ENDMDL
MODEL 3
REMARK VINA RESULT:    -7.654      3.043      7.476
REMARK INTER + INTRA:         -10.951
REMARK INTER:                  -9.753
REMARK INTRA:                  -1.198
REMARK UNBOUND:                -0.612
REMARK  Name = 
REMARK  7 active torsions:
REMARK  status: ('A' for Active; 'I' for Inactive)
REMARK    1  A    between atoms: C_1  and  O_2
REMARK    2  A    between atoms: O_2  and  C_3
REMARK    3  A    between atoms: C_5  and  C_6
REMARK    4  A    between atoms: C_11  and  N_12
REMARK    5  A    between atoms: N_12  and  C_13
REMARK    6  A    between atoms: C_13  and  C_14
REMARK    7  A    between atoms: C_18  and  C_19
REMARK                            x       y       z     vdW  Elec       q    Type
REMARK                         _______ _______ _______ _____ _____    ______ ____
ROOT
ATOM      1  N   UNL     1      47.541   6.699  12.908  0.00  0.00    +0.000 N 
ATOM      2  H   UNL     1      48.414   6.788  12.394  0.00  0.00    +0.000 HD
ENDROOT
BRANCH   1   8
ATOM      3  C   UNL     1      48.502   6.594  15.163  0.00  0.00    +0.000 A 
ATOM      4  C   UNL     1      48.653   5.922  16.383  0.00  0.00    +0.000 A 
ATOM      5  C   UNL     1      48.026   4.690  16.615  0.00  0.00    +0.000 A 
ATOM      6  C   UNL     1      47.246   4.127  15.607  0.00  0.00    +0.000 A 
ATOM      7  C   UNL     1      47.087   4.796  14.390  0.00  0.00    +0.000 A 
ATOM      8  C   UNL     1      47.697   6.030  14.142  0.00  0.00    +0.000 A 
BRANCH   5   9
ATOM      9  C   UNL     1      48.224   4.052  17.949  0.00  0.00    +0.000 C 
ATOM     10  N   UNL     1      47.439   2.984  18.292  0.00  0.00    +0.000 N 
ATOM     11  O   UNL     1      49.061   4.469  18.740  0.00  0.00    +0.000 OA
ATOM     12  H   UNL     1      46.711   2.589  17.719  0.00  0.00    +0.000 HD
ATOM     13  H   UNL     1      47.588   2.590  19.215  0.00  0.00    +0.000 HD
ENDBRANCH   5   9
BRANCH   3  15
ATOM     14  C   UNL     1      48.529   8.942  15.573  0.00  0.00    +0.000 C 
ATOM     15  O   UNL     1      49.078   7.818  14.886  0.00  0.00    +0.000 OA
ENDBRANCH   3  15
ENDBRANCH   1   8
BRANCH   1  16
ATOM     16  C   UNL     1      46.294   7.260  12.369  0.00  0.00    +0.000 C 
ATOM     17  C   UNL     1      46.407   8.660  11.764  0.00  0.00    +0.000 C 
ATOM     18  C   UNL     1      45.613   8.463  13.009  0.00  0.00    +0.000 C 
BRANCH  16  19
ATOM     19  C   UNL     1      45.361   6.263  11.671  0.00  0.00    +0.000 A 
ATOM     20  C   UNL     1      43.966   6.362  11.777  0.00  0.00    +0.000 A 
ATOM     21  C   UNL     1      43.114   5.548  11.029  0.00  0.00    +0.000 A 
ATOM     22  C   UNL     1      43.646   4.613  10.144  0.00  0.00    +0.000 A 
ATOM     23  C   UNL     1      45.034   4.462  10.002  0.00  0.00    +0.000 A 
ATOM     24  C   UNL     1      45.862   5.276  10.803  0.00  0.00    +0.000 A 
BRANCH  23  25
ATOM     25  C   UNL     1      45.616   3.542   9.004  0.00  0.00    +0.000 A 
ATOM     26  C   UNL     1      46.220   4.002   7.822  0.00  0.00    +0.000 A 
ATOM     27  C   UNL     1      46.700   3.101   6.872  0.00  0.00    +0.000 A 
ATOM     28  C   UNL     1      46.581   1.748   7.130  0.00  0.00    +0.000 A 
ATOM     29  N   UNL     1      46.023   1.250   8.249  0.00  0.00    +0.000 NA
ATOM     30  C   UNL     1      45.554   2.154   9.146  0.00  0.00    +0.000 A 
ENDBRANCH  23  25
ENDBRANCH  16  19
ENDBRANCH   1  16
TORSDOF 6
ENDMDL
MODEL 4
REMARK VINA RESULT:    -6.842      3.121      7.573
REMARK INTER + INTRA:          -9.854
REMARK INTER:                  -9.653
REMARK INTRA:                  -0.201
REMARK UNBOUND:                -0.612
REMARK  Name = 
REMARK  7 active torsions:
REMARK  status: ('A' for Active; 'I' for Inactive)
REMARK    1  A    between atoms: C_1  and  O_2
REMARK    2  A    between atoms: O_2  and  C_3
REMARK    3  A    between atoms: C_5  and  C_6
REMARK    4  A    between atoms: C_11  and  N_12
REMARK    5  A    between atoms: N_12  and  C_13
REMARK    6  A    between atoms: C_13  and  C_14
REMARK    7  A    between atoms: C_18  and  C_19
REMARK                            x       y       z     vdW  Elec       q    Type
REMARK                         _______ _______ _______ _____ _____    ______ ____
ROOT
ATOM      1  N   UNL     1      49.049   7.887  14.144  0.00  0.00    +0.000 N 
ATOM      2  H   UNL     1      49.606   8.583  14.635  0.00  0.00    +0.000 HD
ENDROOT
BRANCH   1   8
ATOM      3  C   UNL     1      48.993   6.816  16.351  0.00  0.00    +0.000 A 
ATOM      4  C   UNL     1      48.579   5.759  17.171  0.00  0.00    +0.000 A 
ATOM      5  C   UNL     1      47.818   4.698  16.660  0.00  0.00    +0.000 A 
ATOM      6  C   UNL     1      47.477   4.700  15.309  0.00  0.00    +0.000 A 
ATOM      7  C   UNL     1      47.882   5.755  14.487  0.00  0.00    +0.000 A 
ATOM      8  C   UNL     1      48.634   6.827  14.980  0.00  0.00    +0.000 A 
BRANCH   5   9
ATOM      9  C   UNL     1      47.403   3.623  17.608  0.00  0.00    +0.000 C 
ATOM     10  N   UNL     1      48.168   3.393  18.719  0.00  0.00    +0.000 N 
ATOM     11  O   UNL     1      46.405   2.942  17.406  0.00  0.00    +0.000 OA
ATOM     12  H   UNL     1      49.016   3.885  18.954  0.00  0.00    +0.000 HD
ATOM     13  H   UNL     1      47.867   2.641  19.330  0.00  0.00    +0.000 HD
ENDBRANCH   5   9
BRANCH   3  15
ATOM     14  C   UNL     1      50.411   7.717  18.042  0.00  0.00    +0.000 C 
ATOM     15  O   UNL     1      49.725   7.896  16.803  0.00  0.00    +0.000 OA
ENDBRANCH   3  15
ENDBRANCH   1   8
BRANCH   1  16
ATOM     16  C   UNL     1      48.729   8.054  12.719  0.00  0.00    +0.000 C 
ATOM     17  C   UNL     1      49.812   7.597  11.741  0.00  0.00    +0.000 C 
ATOM     18  C   UNL     1      49.479   9.046  11.840  0.00  0.00    +0.000 C 
BRANCH  16  19
ATOM     19  C   UNL     1      47.270   7.791  12.328  0.00  0.00    +0.000 A 
ATOM     20  C   UNL     1      46.284   8.782  12.452  0.00  0.00    +0.000 A 
ATOM     21  C   UNL     1      44.990   8.594  11.964  0.00  0.00    +0.000 A 
ATOM     22  C   UNL     1      44.654   7.402  11.328  0.00  0.00    +0.000 A 
ATOM     23  C   UNL     1      45.595   6.370  11.182  0.00  0.00    +0.000 A 
ATOM     24  C   UNL     1      46.881   6.582  11.723  0.00  0.00    +0.000 A 
BRANCH  23  25
ATOM     25  C   UNL     1      45.284   5.138  10.430  0.00  0.00    +0.000 A 
ATOM     26  C   UNL     1      45.677   4.954   9.095  0.00  0.00    +0.000 A 
ATOM     27  C   UNL     1      45.309   3.805   8.397  0.00  0.00    +0.000 A 
ATOM     28  C   UNL     1      44.563   2.845   9.057  0.00  0.00    +0.000 A 
ATOM     29  N   UNL     1      44.169   2.961  10.339  0.00  0.00    +0.000 NA
ATOM     30  C   UNL     1      44.532   4.099  10.983  0.00  0.00    +0.000 A 
ENDBRANCH  23  25
ENDBRANCH  16  19
ENDBRANCH   1  16
TORSDOF 6
ENDMDL
MODEL 5
REMARK VINA RESULT:    -6.832      2.644      4.706
REMARK INTER + INTRA:          -9.841
REMARK INTER:                  -8.779
REMARK INTRA:                  -1.062
REMARK UNBOUND:                -0.612
REMARK  Name = 
REMARK  7 active torsions:
REMARK  status: ('A' for Active; 'I' for Inactive)
REMARK    1  A    between atoms: C_1  and  O_2
REMARK    2  A    between atoms: O_2  and  C_3
REMARK    3  A    between atoms: C_5  and  C_6
REMARK    4  A    between atoms: C_11  and  N_12
REMARK    5  A    between atoms: N_12  and  C_13
REMARK    6  A    between atoms: C_13  and  C_14
REMARK    7  A    between atoms: C_18  and  C_19
REMARK                            x       y       z     vdW  Elec       q    Type
REMARK                         _______ _______ _______ _____ _____    ______ ____
ROOT
ATOM      1  N   UNL     1      46.299   7.395  13.267  0.00  0.00    +0.000 N 
ATOM      2  H   UNL     1      45.626   7.972  13.767  0.00  0.00    +0.000 HD
ENDROOT
BRANCH   1   8
ATOM      3  C   UNL     1      45.780   4.998  13.309  0.00  0.00    +0.000 A 
ATOM      4  C   UNL     1      45.195   3.877  12.706  0.00  0.00    +0.000 A 
ATOM      5  C   UNL     1      44.544   3.975  11.468  0.00  0.00    +0.000 A 
ATOM      6  C   UNL     1      44.487   5.212  10.831  0.00  0.00    +0.000 A 
ATOM      7  C   UNL     1      45.063   6.335  11.430  0.00  0.00    +0.000 A 
ATOM      8  C   UNL     1      45.710   6.260  12.668  0.00  0.00    +0.000 A 
BRANCH   5   9
ATOM      9  C   UNL     1      43.932   2.735  10.907  0.00  0.00    +0.000 C 
ATOM     10  N   UNL     1      44.474   2.187   9.776  0.00  0.00    +0.000 N 
ATOM     11  O   UNL     1      42.956   2.211  11.428  0.00  0.00    +0.000 OA
ATOM     12  H   UNL     1      45.259   2.561   9.266  0.00  0.00    +0.000 HD
ATOM     13  H   UNL     1      44.020   1.357   9.411  0.00  0.00    +0.000 HD
ENDBRANCH   5   9
BRANCH   3  15
ATOM     14  C   UNL     1      47.207   3.808  14.802  0.00  0.00    +0.000 C 
ATOM     15  O   UNL     1      46.415   4.965  14.534  0.00  0.00    +0.000 OA
ENDBRANCH   3  15
ENDBRANCH   1   8
BRANCH   1  16
ATOM     16  C   UNL     1      47.714   7.785  13.197  0.00  0.00    +0.000 C 
ATOM     17  C   UNL     1      48.075   8.765  12.080  0.00  0.00    +0.000 C 
ATOM     18  C   UNL     1      48.603   7.373  12.031  0.00  0.00    +0.000 C 
BRANCH  16  19
ATOM     19  C   UNL     1      48.425   7.960  14.544  0.00  0.00    +0.000 A 
ATOM     20  C   UNL     1      48.232   9.101  15.337  0.00  0.00    +0.000 A 
ATOM     21  C   UNL     1      48.762   9.199  16.624  0.00  0.00    +0.000 A 
ATOM     22  C   UNL     1      49.498   8.142  17.154  0.00  0.00    +0.000 A 
ATOM     23  C   UNL     1      49.732   6.978  16.406  0.00  0.00    +0.000 A 
ATOM     24  C   UNL     1      49.214   6.933  15.095  0.00  0.00    +0.000 A 
BRANCH  23  25
ATOM     25  C   UNL     1      50.430   5.812  16.984  0.00  0.00    +0.000 A 
ATOM     26  C   UNL     1      51.829   5.752  17.092  0.00  0.00    +0.000 A 
ATOM     27  C   UNL     1      52.456   4.607  17.582  0.00  0.00    +0.000 A 
ATOM     28  C   UNL     1      51.666   3.541  17.974  0.00  0.00    +0.000 A 
ATOM     29  N   UNL     1      50.321   3.547  17.905  0.00  0.00    +0.000 NA
ATOM     30  C   UNL     1      49.745   4.671  17.409  0.00  0.00    +0.000 A 
ENDBRANCH  23  25
ENDBRANCH  16  19
ENDBRANCH   1  16
TORSDOF 6
ENDMDL
MODEL 6
REMARK VINA RESULT:    -6.763      2.091      2.988
REMARK INTER + INTRA:          -9.748
REMARK INTER:                  -9.454
REMARK INTRA:                  -0.294
REMARK UNBOUND:                -0.612
REMARK  Name = 
REMARK  7 active torsions:
REMARK  status: ('A' for Active; 'I' for Inactive)
REMARK    1  A    between atoms: C_1  and  O_2
REMARK    2  A    between atoms: O_2  and  C_3
REMARK    3  A    between atoms: C_5  and  C_6
REMARK    4  A    between atoms: C_11  and  N_12
REMARK    5  A    between atoms: N_12  and  C_13
REMARK    6  A    between atoms: C_13  and  C_14
REMARK    7  A    between atoms: C_18  and  C_19
REMARK                            x       y       z     vdW  Elec       q    Type
REMARK                         _______ _______ _______ _____ _____    ______ ____
ROOT
ATOM      1  N   UNL     1      43.449   3.954  10.304  0.00  0.00    +0.000 N 
ATOM      2  H   UNL     1      42.521   3.604  10.076  0.00  0.00    +0.000 HD
ENDROOT
BRANCH   1   8
ATOM      3  C   UNL     1      45.372   4.257   8.811  0.00  0.00    +0.000 A 
ATOM      4  C   UNL     1      46.369   3.704   7.997  0.00  0.00    +0.000 A 
ATOM      5  C   UNL     1      46.479   2.318   7.824  0.00  0.00    +0.000 A 
ATOM      6  C   UNL     1      45.574   1.481   8.473  0.00  0.00    +0.000 A 
ATOM      7  C   UNL     1      44.581   2.025   9.292  0.00  0.00    +0.000 A 
ATOM      8  C   UNL     1      44.459   3.406   9.483  0.00  0.00    +0.000 A 
BRANCH   5   9
ATOM      9  C   UNL     1      47.583   1.813   6.955  0.00  0.00    +0.000 C 
ATOM     10  N   UNL     1      48.531   2.697   6.515  0.00  0.00    +0.000 N 
ATOM     11  O   UNL     1      47.648   0.637   6.622  0.00  0.00    +0.000 OA
ATOM     12  H   UNL     1      48.545   3.684   6.717  0.00  0.00    +0.000 HD
ATOM     13  H   UNL     1      49.254   2.323   5.910  0.00  0.00    +0.000 HD
ENDBRANCH   5   9
BRANCH   3  15
ATOM     14  C   UNL     1      46.387   6.300   9.500  0.00  0.00    +0.000 C 
ATOM     15  O   UNL     1      45.227   5.612   9.033  0.00  0.00    +0.000 OA
ENDBRANCH   3  15
ENDBRANCH   1   8
BRANCH   1  16
ATOM     16  C   UNL     1      43.633   4.947  11.372  0.00  0.00    +0.000 C 
ATOM     17  C   UNL     1      42.348   5.467  12.018  0.00  0.00    +0.000 C 
ATOM     18  C   UNL     1      43.186   6.394  11.207  0.00  0.00    +0.000 C 
BRANCH  16  19
ATOM     19  C   UNL     1      44.843   4.727  12.287  0.00  0.00    +0.000 A 
ATOM     20  C   UNL     1      45.313   3.440  12.590  0.00  0.00    +0.000 A 
ATOM     21  C   UNL     1      46.496   3.240  13.302  0.00  0.00    +0.000 A 
ATOM     22  C   UNL     1      47.247   4.335  13.723  0.00  0.00    +0.000 A 
ATOM     23  C   UNL     1      46.824   5.647  13.457  0.00  0.00    +0.000 A 
ATOM     24  C   UNL     1      45.603   5.809  12.769  0.00  0.00    +0.000 A 
BRANCH  23  25
ATOM     25  C   UNL     1      47.652   6.816  13.813  0.00  0.00    +0.000 A 
ATOM     26  C   UNL     1      48.684   6.744  14.763  0.00  0.00    +0.000 A 
ATOM     27  C   UNL     1      49.401   7.884  15.122  0.00  0.00    +0.000 A 
ATOM     28  C   UNL     1      49.082   9.082  14.508  0.00  0.00    +0.000 A 
ATOM     29  N   UNL     1      48.113   9.209  13.582  0.00  0.00    +0.000 NA
ATOM     30  C   UNL     1      47.425   8.082  13.268  0.00  0.00    +0.000 A 
ENDBRANCH  23  25
ENDBRANCH  16  19
ENDBRANCH   1  16
TORSDOF 6
ENDMDL
MODEL 7
REMARK VINA RESULT:    -6.702      3.691      8.281
REMARK INTER + INTRA:          -9.666
REMARK INTER:                  -8.486
REMARK INTRA:                  -1.180
REMARK UNBOUND:                -0.612
REMARK  Name = 
REMARK  7 active torsions:
REMARK  status: ('A' for Active; 'I' for Inactive)
REMARK    1  A    between atoms: C_1  and  O_2
REMARK    2  A    between atoms: O_2  and  C_3
REMARK    3  A    between atoms: C_5  and  C_6
REMARK    4  A    between atoms: C_11  and  N_12
REMARK    5  A    between atoms: N_12  and  C_13
REMARK    6  A    between atoms: C_13  and  C_14
REMARK    7  A    between atoms: C_18  and  C_19
REMARK                            x       y       z     vdW  Elec       q    Type
REMARK                         _______ _______ _______ _____ _____    ______ ____
ROOT
ATOM      1  N   UNL     1      49.745   7.072  13.705  0.00  0.00    +0.000 N 
ATOM      2  H   UNL     1      50.384   6.318  13.466  0.00  0.00    +0.000 HD
ENDROOT
BRANCH   1   8
ATOM      3  C   UNL     1      48.739   6.377  15.832  0.00  0.00    +0.000 A 
ATOM      4  C   UNL     1      48.590   6.554  17.214  0.00  0.00    +0.000 A 
ATOM      5  C   UNL     1      49.263   7.580  17.891  0.00  0.00    +0.000 A 
ATOM      6  C   UNL     1      50.089   8.438  17.169  0.00  0.00    +0.000 A 
ATOM      7  C   UNL     1      50.247   8.263  15.792  0.00  0.00    +0.000 A 
ATOM      8  C   UNL     1      49.590   7.241  15.099  0.00  0.00    +0.000 A 
BRANCH   5   9
ATOM      9  C   UNL     1      49.063   7.684  19.366  0.00  0.00    +0.000 C 
ATOM     10  N   UNL     1      48.111   6.898  19.959  0.00  0.00    +0.000 N 
ATOM     11  O   UNL     1      49.719   8.461  20.048  0.00  0.00    +0.000 OA
ATOM     12  H   UNL     1      47.509   6.250  19.477  0.00  0.00    +0.000 HD
ATOM     13  H   UNL     1      47.988   7.011  20.959  0.00  0.00    +0.000 HD
ENDBRANCH   5   9
BRANCH   3  15
ATOM     14  C   UNL     1      47.450   4.373  15.884  0.00  0.00    +0.000 C 
ATOM     15  O   UNL     1      48.117   5.374  15.116  0.00  0.00    +0.000 OA
ENDBRANCH   3  15
ENDBRANCH   1   8
BRANCH   1  16
ATOM     16  C   UNL     1      49.110   7.877  12.651  0.00  0.00    +0.000 C 
ATOM     17  C   UNL     1      49.967   8.138  11.413  0.00  0.00    +0.000 C 
ATOM     18  C   UNL     1      49.602   9.275  12.304  0.00  0.00    +0.000 C 
BRANCH  16  19
ATOM     19  C   UNL     1      47.613   7.626  12.432  0.00  0.00    +0.000 A 
ATOM     20  C   UNL     1      46.647   8.580  12.786  0.00  0.00    +0.000 A 
ATOM     21  C   UNL     1      45.300   8.418  12.458  0.00  0.00    +0.000 A 
ATOM     22  C   UNL     1      44.889   7.288  11.753  0.00  0.00    +0.000 A 
ATOM     23  C   UNL     1      45.807   6.296  11.379  0.00  0.00    +0.000 A 
ATOM     24  C   UNL     1      47.153   6.477  11.764  0.00  0.00    +0.000 A 
BRANCH  23  25
ATOM     25  C   UNL     1      45.407   5.139  10.553  0.00  0.00    +0.000 A 
ATOM     26  C   UNL     1      45.666   5.075   9.175  0.00  0.00    +0.000 A 
ATOM     27  C   UNL     1      45.214   3.997   8.415  0.00  0.00    +0.000 A 
ATOM     28  C   UNL     1      44.520   2.986   9.055  0.00  0.00    +0.000 A 
ATOM     29  N   UNL     1      44.253   2.988  10.375  0.00  0.00    +0.000 NA
ATOM     30  C   UNL     1      44.695   4.060  11.081  0.00  0.00    +0.000 A 
ENDBRANCH  23  25
ENDBRANCH  16  19
ENDBRANCH   1  16
TORSDOF 6
ENDMDL
MODEL 8
REMARK VINA RESULT:    -6.693      2.834      5.296
REMARK INTER + INTRA:          -9.653
REMARK INTER:                  -8.592
REMARK INTRA:                  -1.061
REMARK UNBOUND:                -0.612
REMARK  Name = 
REMARK  7 active torsions:
REMARK  status: ('A' for Active; 'I' for Inactive)
REMARK    1  A    between atoms: C_1  and  O_2
REMARK    2  A    between atoms: O_2  and  C_3
REMARK    3  A    between atoms: C_5  and  C_6
REMARK    4  A    between atoms: C_11  and  N_12
REMARK    5  A    between atoms: N_12  and  C_13
REMARK    6  A    between atoms: C_13  and  C_14
REMARK    7  A    between atoms: C_18  and  C_19
REMARK                            x       y       z     vdW  Elec       q    Type
REMARK                         _______ _______ _______ _____ _____    ______ ____
ROOT
ATOM      1  N   UNL     1      46.408   8.467  13.634  0.00  0.00    +0.000 N 
ATOM      2  H   UNL     1      45.751   9.140  14.023  0.00  0.00    +0.000 HD
ENDROOT
BRANCH   1   8
ATOM      3  C   UNL     1      44.869   7.799  11.844  0.00  0.00    +0.000 A 
ATOM      4  C   UNL     1      44.245   6.789  11.101  0.00  0.00    +0.000 A 
ATOM      5  C   UNL     1      44.493   5.435  11.365  0.00  0.00    +0.000 A 
ATOM      6  C   UNL     1      45.372   5.096  12.390  0.00  0.00    +0.000 A 
ATOM      7  C   UNL     1      46.003   6.098  13.131  0.00  0.00    +0.000 A 
ATOM      8  C   UNL     1      45.776   7.456  12.878  0.00  0.00    +0.000 A 
BRANCH   5   9
ATOM      9  C   UNL     1      43.800   4.425  10.512  0.00  0.00    +0.000 C 
ATOM     10  N   UNL     1      43.927   4.512   9.152  0.00  0.00    +0.000 N 
ATOM     11  O   UNL     1      43.118   3.534  11.002  0.00  0.00    +0.000 OA
ATOM     12  H   UNL     1      44.446   5.223   8.661  0.00  0.00    +0.000 HD
ATOM     13  H   UNL     1      43.426   3.822   8.604  0.00  0.00    +0.000 HD
ENDBRANCH   5   9
BRANCH   3  15
ATOM     14  C   UNL     1      43.601   9.493  10.748  0.00  0.00    +0.000 C 
ATOM     15  O   UNL     1      44.679   9.147  11.616  0.00  0.00    +0.000 OA
ENDBRANCH   3  15
ENDBRANCH   1   8
BRANCH   1  16
ATOM     16  C   UNL     1      47.853   8.617  13.859  0.00  0.00    +0.000 C 
ATOM     17  C   UNL     1      48.499   9.839  13.205  0.00  0.00    +0.000 C 
ATOM     18  C   UNL     1      48.859   8.475  12.725  0.00  0.00    +0.000 C 
BRANCH  16  19
ATOM     19  C   UNL     1      48.358   8.210  15.249  0.00  0.00    +0.000 A 
ATOM     20  C   UNL     1      48.276   9.081  16.345  0.00  0.00    +0.000 A 
ATOM     21  C   UNL     1      48.600   8.665  17.638  0.00  0.00    +0.000 A 
ATOM     22  C   UNL     1      49.009   7.353  17.863  0.00  0.00    +0.000 A 
ATOM     23  C   UNL     1      49.119   6.438  16.804  0.00  0.00    +0.000 A 
ATOM     24  C   UNL     1      48.821   6.907  15.507  0.00  0.00    +0.000 A 
BRANCH  23  25
ATOM     25  C   UNL     1      49.461   5.021  17.036  0.00  0.00    +0.000 A 
ATOM     26  C   UNL     1      50.709   4.624  17.542  0.00  0.00    +0.000 A 
ATOM     27  C   UNL     1      51.021   3.272  17.685  0.00  0.00    +0.000 A 
ATOM     28  C   UNL     1      50.066   2.336  17.333  0.00  0.00    +0.000 A 
ATOM     29  N   UNL     1      48.849   2.658  16.854  0.00  0.00    +0.000 NA
ATOM     30  C   UNL     1      48.585   3.982  16.714  0.00  0.00    +0.000 A 
ENDBRANCH  23  25
ENDBRANCH  16  19
ENDBRANCH   1  16
TORSDOF 6
ENDMDL
MODEL 9
REMARK VINA RESULT:    -6.403      3.416      7.247
REMARK INTER + INTRA:          -9.262
REMARK INTER:                  -8.090
REMARK INTRA:                  -1.172
REMARK UNBOUND:                -0.612
REMARK  Name = 
REMARK  7 active torsions:
REMARK  status: ('A' for Active; 'I' for Inactive)
REMARK    1  A    between atoms: C_1  and  O_2
REMARK    2  A    between atoms: O_2  and  C_3
REMARK    3  A    between atoms: C_5  and  C_6
REMARK    4  A    between atoms: C_11  and  N_12
REMARK    5  A    between atoms: N_12  and  C_13
REMARK    6  A    between atoms: C_13  and  C_14
REMARK    7  A    between atoms: C_18  and  C_19
REMARK                            x       y       z     vdW  Elec       q    Type
REMARK                         _______ _______ _______ _____ _____    ______ ____
ROOT
ATOM      1  N   UNL     1      46.679   6.408  14.033  0.00  0.00    +0.000 N 
ATOM      2  H   UNL     1      46.111   6.967  14.667  0.00  0.00    +0.000 HD
ENDROOT
BRANCH   1   8
ATOM      3  C   UNL     1      47.452   7.956  12.294  0.00  0.00    +0.000 A 
ATOM      4  C   UNL     1      48.490   8.684  11.699  0.00  0.00    +0.000 A 
ATOM      5  C   UNL     1      49.798   8.625  12.200  0.00  0.00    +0.000 A 
ATOM      6  C   UNL     1      50.063   7.821  13.306  0.00  0.00    +0.000 A 
ATOM      7  C   UNL     1      49.031   7.097  13.908  0.00  0.00    +0.000 A 
ATOM      8  C   UNL     1      47.718   7.149  13.429  0.00  0.00    +0.000 A 
BRANCH   5   9
ATOM      9  C   UNL     1      50.839   9.449  11.517  0.00  0.00    +0.000 C 
ATOM     10  N   UNL     1      50.968  10.767  11.864  0.00  0.00    +0.000 N 
ATOM     11  O   UNL     1      51.566   8.974  10.654  0.00  0.00    +0.000 OA
ATOM     12  H   UNL     1      50.401  11.249  12.543  0.00  0.00    +0.000 HD
ATOM     13  H   UNL     1      51.672  11.300  11.364  0.00  0.00    +0.000 HD
ENDBRANCH   5   9
BRANCH   3  15
ATOM     14  C   UNL     1      45.413   9.181  12.151  0.00  0.00    +0.000 C 
ATOM     15  O   UNL     1      46.143   7.991  11.857  0.00  0.00    +0.000 OA
ENDBRANCH   3  15
ENDBRANCH   1   8
BRANCH   1  16
ATOM     16  C   UNL     1      46.399   4.977  13.844  0.00  0.00    +0.000 C 
ATOM     17  C   UNL     1      46.356   4.138  15.121  0.00  0.00    +0.000 C 
ATOM     18  C   UNL     1      47.447   3.911  14.133  0.00  0.00    +0.000 C 
BRANCH  16  19
ATOM     19  C   UNL     1      45.390   4.635  12.741  0.00  0.00    +0.000 A 
ATOM     20  C   UNL     1      44.033   4.973  12.853  0.00  0.00    +0.000 A 
ATOM     21  C   UNL     1      43.142   4.794  11.795  0.00  0.00    +0.000 A 
ATOM     22  C   UNL     1      43.598   4.275  10.584  0.00  0.00    +0.000 A 
ATOM     23  C   UNL     1      44.942   3.910  10.415  0.00  0.00    +0.000 A 
ATOM     24  C   UNL     1      45.803   4.069  11.521  0.00  0.00    +0.000 A 
BRANCH  23  25
ATOM     25  C   UNL     1      45.461   3.445   9.113  0.00  0.00    +0.000 A 
ATOM     26  C   UNL     1      45.659   2.085   8.826  0.00  0.00    +0.000 A 
ATOM     27  C   UNL     1      46.213   1.688   7.610  0.00  0.00    +0.000 A 
ATOM     28  C   UNL     1      46.547   2.664   6.689  0.00  0.00    +0.000 A 
ATOM     29  N   UNL     1      46.368   3.982   6.904  0.00  0.00    +0.000 NA
ATOM     30  C   UNL     1      45.840   4.333   8.104  0.00  0.00    +0.000 A 
ENDBRANCH  23  25
ENDBRANCH  16  19
ENDBRANCH   1  16
TORSDOF 6
ENDMDL
