MODEL 1
REMARK VINA RESULT:    -8.342      0.000      0.000
REMARK INTER + INTRA:         -11.096
REMARK INTER:                 -10.293
REMARK INTRA:                  -0.804
REMARK UNBOUND:                -0.804
REMARK  Name = 
REMARK  4 active torsions:
REMARK  status: ('A' for Active; 'I' for Inactive)
REMARK    1  A    between atoms: C_2  and  C_4
REMARK    2  A    between atoms: C_7  and  N_8
REMARK    3  A    between atoms: N_8  and  C_9
REMARK    4  A    between atoms: C_9  and  C_10
REMARK                            x       y       z     vdW  Elec       q    Type
REMARK                         _______ _______ _______ _____ _____    ______ ____
ROOT
ATOM      1  C   UNL     1      46.426   2.347   7.761  0.00  0.00    +0.000 A 
ATOM      2  C   UNL     1      45.511   1.867   8.698  0.00  0.00    +0.000 A 
ATOM      3  C   UNL     1      44.712   2.762   9.413  0.00  0.00    +0.000 A 
ATOM      4  C   UNL     1      44.753   4.139   9.171  0.00  0.00    +0.000 A 
ATOM      5  C   UNL     1      45.717   4.613   8.268  0.00  0.00    +0.000 A 
ATOM      6  C   UNL     1      46.550   3.727   7.568  0.00  0.00    +0.000 A 
ENDROOT
BRANCH   1   8
ATOM      7  N   UNL     1      48.426   1.965   6.429  0.00  0.00    +0.000 N 
ATOM      8  C   UNL     1      47.316   1.424   7.031  0.00  0.00    +0.000 C 
ATOM      9  O   UNL     1      47.097   0.221   6.975  0.00  0.00    +0.000 OA
ATOM     10  H   UNL     1      49.056   1.322   5.971  0.00  0.00    +0.000 HD
ATOM     11  H   UNL     1      48.770   2.890   6.651  0.00  0.00    +0.000 HD
ENDBRANCH   1   8
BRANCH   4  12
ATOM     12  N   UNL     1      43.962   5.071   9.875  0.00  0.00    +0.000 N 
ATOM     13  H   UNL     1      43.227   5.489   9.310  0.00  0.00    +0.000 HD
BRANCH  12  14
ATOM     14  C   UNL     1      43.818   5.097  11.346  0.00  0.00    +0.000 C 
ATOM     15  C   UNL     1      42.994   3.995  11.987  0.00  0.00    +0.000 C 
ATOM     16  C   UNL     1      42.454   5.381  11.963  0.00  0.00    +0.000 C 
BRANCH  14  17
ATOM     17  C   UNL     1      44.993   5.733  12.108  0.00  0.00    +0.000 C 
ATOM     18  C   UNL     1      45.771   6.728  11.222  0.00  0.00    +0.000 C 
ATOM     19  C   UNL     1      46.880   7.413  12.017  0.00  0.00    +0.000 C 
ATOM     20  C   UNL     1      47.830   6.393  12.639  0.00  0.00    +0.000 C 
ATOM     21  C   UNL     1      47.080   5.370  13.488  0.00  0.00    +0.000 C 
ATOM     22  C   UNL     1      45.956   4.697  12.701  0.00  0.00    +0.000 C 
ENDBRANCH  14  17
ENDBRANCH  12  14
ENDBRANCH   4  12
TORSDOF 4
ENDMDL
MODEL 2
REMARK VINA RESULT:    -6.163      3.476      6.237
REMARK INTER + INTRA:          -8.408
REMARK INTER:                  -7.790
REMARK INTRA:                  -0.619
REMARK UNBOUND:                -0.804
REMARK  Name = 
REMARK  4 active torsions:
REMARK  status: ('A' for Active; 'I' for Inactive)
REMARK    1  A    between atoms: C_2  and  C_4
REMARK    2  A    between atoms: C_7  and  N_8
REMARK    3  A    between atoms: N_8  and  C_9
REMARK    4  A    between atoms: C_9  and  C_10
REMARK                            x       y       z     vdW  Elec       q    Type
REMARK                         _______ _______ _______ _____ _____    ______ ____
ROOT
ATOM      1  C   UNL     1      48.165   6.450  14.143  0.00  0.00    +0.000 A 
ATOM      2  C   UNL     1      47.735   6.760  12.853  0.00  0.00    +0.000 A 
ATOM      3  C   UNL     1      46.681   6.043  12.279  0.00  0.00    +0.000 A 
ATOM      4  C   UNL     1      45.990   5.057  12.989  0.00  0.00    +0.000 A 
ATOM      5  C   UNL     1      46.468   4.717  14.264  0.00  0.00    +0.000 A 
ATOM      6  C   UNL     1      47.549   5.404  14.839  0.00  0.00    +0.000 A 
ENDROOT
BRANCH   1   8
ATOM      7  N   UNL     1      50.377   7.442  13.933  0.00  0.00    +0.000 N 
ATOM      8  C   UNL     1      49.309   7.157  14.749  0.00  0.00    +0.000 C 
ATOM      9  O   UNL     1      49.311   7.499  15.924  0.00  0.00    +0.000 OA
ATOM     10  H   UNL     1      51.137   7.967  14.342  0.00  0.00    +0.000 HD
ATOM     11  H   UNL     1      50.318   7.399  12.924  0.00  0.00    +0.000 HD
ENDBRANCH   1   8
BRANCH   4  12
ATOM     12  N   UNL     1      44.923   4.315  12.442  0.00  0.00    +0.000 N 
ATOM     13  H   UNL     1      44.517   3.646  13.090  0.00  0.00    +0.000 HD
BRANCH  12  14
ATOM     14  C   UNL     1      44.112   4.754  11.286  0.00  0.00    +0.000 C 
ATOM     15  C   UNL     1      43.623   6.192  11.282  0.00  0.00    +0.000 C 
ATOM     16  C   UNL     1      42.639   5.094  11.487  0.00  0.00    +0.000 C 
BRANCH  14  17
ATOM     17  C   UNL     1      44.411   4.031   9.963  0.00  0.00    +0.000 C 
ATOM     18  C   UNL     1      44.745   2.542  10.193  0.00  0.00    +0.000 C 
ATOM     19  C   UNL     1      44.956   1.820   8.865  0.00  0.00    +0.000 C 
ATOM     20  C   UNL     1      46.045   2.491   8.033  0.00  0.00    +0.000 C 
ATOM     21  C   UNL     1      45.761   3.976   7.826  0.00  0.00    +0.000 C 
ATOM     22  C   UNL     1      45.529   4.699   9.152  0.00  0.00    +0.000 C 
ENDBRANCH  14  17
ENDBRANCH  12  14
ENDBRANCH   4  12
TORSDOF 4
ENDMDL
MODEL 3
REMARK VINA RESULT:    -5.925      3.445      6.423
REMARK INTER + INTRA:          -8.114
REMARK INTER:                  -7.800
REMARK INTRA:                  -0.314
REMARK UNBOUND:                -0.804
REMARK  Name = 
REMARK  4 active torsions:
REMARK  status: ('A' for Active; 'I' for Inactive)
REMARK    1  A    between atoms: C_2  and  C_4
REMARK    2  A    between atoms: C_7  and  N_8
REMARK    3  A    between atoms: N_8  and  C_9
REMARK    4  A    between atoms: C_9  and  C_10
REMARK                            x       y       z     vdW  Elec       q    Type
REMARK                         _______ _______ _______ _____ _____    ______ ____
ROOT
ATOM      1  C   UNL     1      47.104   8.916  12.413  0.00  0.00    +0.000 A 
ATOM      2  C   UNL     1      45.805   8.697  12.870  0.00  0.00    +0.000 A 
ATOM      3  C   UNL     1      45.204   7.448  12.691  0.00  0.00    +0.000 A 
ATOM      4  C   UNL     1      45.896   6.375  12.120  0.00  0.00    +0.000 A 
ATOM      5  C   UNL     1      47.181   6.624  11.614  0.00  0.00    +0.000 A 
ATOM      6  C   UNL     1      47.783   7.884  11.756  0.00  0.00    +0.000 A 
ENDROOT
BRANCH   1   8
ATOM      7  N   UNL     1      46.914  11.340  12.518  0.00  0.00    +0.000 N 
ATOM      8  C   UNL     1      47.739  10.241  12.545  0.00  0.00    +0.000 C 
ATOM      9  O   UNL     1      48.947  10.369  12.693  0.00  0.00    +0.000 OA
ATOM     10  H   UNL     1      47.349  12.241  12.655  0.00  0.00    +0.000 HD
ATOM     11  H   UNL     1      45.913  11.272  12.641  0.00  0.00    +0.000 HD
ENDBRANCH   1   8
BRANCH   4  12
ATOM     12  N   UNL     1      45.321   5.103  11.924  0.00  0.00    +0.000 N 
ATOM     13  H   UNL     1      45.512   4.449  12.679  0.00  0.00    +0.000 HD
BRANCH  12  14
ATOM     14  C   UNL     1      44.163   4.839  11.044  0.00  0.00    +0.000 C 
ATOM     15  C   UNL     1      43.039   5.860  11.045  0.00  0.00    +0.000 C 
ATOM     16  C   UNL     1      42.805   4.526  11.661  0.00  0.00    +0.000 C 
BRANCH  14  17
ATOM     17  C   UNL     1      44.475   4.028   9.776  0.00  0.00    +0.000 C 
ATOM     18  C   UNL     1      44.921   2.591  10.118  0.00  0.00    +0.000 C 
ATOM     19  C   UNL     1      45.145   1.773   8.848  0.00  0.00    +0.000 C 
ATOM     20  C   UNL     1      46.158   2.444   7.925  0.00  0.00    +0.000 C 
ATOM     21  C   UNL     1      45.762   3.883   7.605  0.00  0.00    +0.000 C 
ATOM     22  C   UNL     1      45.518   4.699   8.873  0.00  0.00    +0.000 C 
ENDBRANCH  14  17
ENDBRANCH  12  14
ENDBRANCH   4  12
TORSDOF 4
ENDMDL
MODEL 4
REMARK VINA RESULT:    -5.640      2.423      4.432
REMARK INTER + INTRA:          -7.763
REMARK INTER:                  -6.869
REMARK INTRA:                  -0.894
REMARK UNBOUND:                -0.804
REMARK  Name = 
REMARK  4 active torsions:
REMARK  status: ('A' for Active; 'I' for Inactive)
REMARK    1  A    between atoms: C_2  and  C_4
REMARK    2  A    between atoms: C_7  and  N_8
REMARK    3  A    between atoms: N_8  and  C_9
REMARK    4  A    between atoms: C_9  and  C_10
REMARK                            x       y       z     vdW  Elec       q    Type
REMARK                         _______ _______ _______ _____ _____    ______ ____
ROOT
ATOM      1  C   UNL     1      44.951   4.016  10.311  0.00  0.00    +0.000 A 
ATOM      2  C   UNL     1      44.924   3.674  11.663  0.00  0.00    +0.000 A 
ATOM      3  C   UNL     1      45.327   4.604  12.625  0.00  0.00    +0.000 A 
ATOM      4  C   UNL     1      45.699   5.907  12.278  0.00  0.00    +0.000 A 
ATOM      5  C   UNL     1      45.776   6.220  10.912  0.00  0.00    +0.000 A 
ATOM      6  C   UNL     1      45.408   5.284   9.933  0.00  0.00    +0.000 A 
ENDROOT
BRANCH   1   8
ATOM      7  N   UNL     1      44.342   3.514   8.009  0.00  0.00    +0.000 N 
ATOM      8  C   UNL     1      44.580   3.034   9.275  0.00  0.00    +0.000 C 
ATOM      9  O   UNL     1      44.504   1.836   9.514  0.00  0.00    +0.000 OA
ATOM     10  H   UNL     1      44.134   2.832   7.294  0.00  0.00    +0.000 HD
ATOM     11  H   UNL     1      44.625   4.439   7.716  0.00  0.00    +0.000 HD
ENDBRANCH   1   8
BRANCH   4  12
ATOM     12  N   UNL     1      46.111   6.870  13.222  0.00  0.00    +0.000 N 
ATOM     13  H   UNL     1      45.516   6.914  14.044  0.00  0.00    +0.000 HD
BRANCH  12  14
ATOM     14  C   UNL     1      47.487   7.402  13.322  0.00  0.00    +0.000 C 
ATOM     15  C   UNL     1      48.630   6.409  13.199  0.00  0.00    +0.000 C 
ATOM     16  C   UNL     1      48.351   7.031  14.521  0.00  0.00    +0.000 C 
BRANCH  14  17
ATOM     17  C   UNL     1      47.665   8.854  12.848  0.00  0.00    +0.000 C 
ATOM     18  C   UNL     1      46.318   9.482  12.431  0.00  0.00    +0.000 C 
ATOM     19  C   UNL     1      46.499  10.948  12.045  0.00  0.00    +0.000 C 
ATOM     20  C   UNL     1      47.532  11.108  10.934  0.00  0.00    +0.000 C 
ATOM     21  C   UNL     1      48.862  10.457  11.303  0.00  0.00    +0.000 C 
ATOM     22  C   UNL     1      48.683   8.995  11.710  0.00  0.00    +0.000 C 
ENDBRANCH  14  17
ENDBRANCH  12  14
ENDBRANCH   4  12
TORSDOF 4
ENDMDL
MODEL 5
REMARK VINA RESULT:    -5.542      3.518      6.249
REMARK INTER + INTRA:          -7.642
REMARK INTER:                  -7.523
REMARK INTRA:                  -0.119
REMARK UNBOUND:                -0.804
REMARK  Name = 
REMARK  4 active torsions:
REMARK  status: ('A' for Active; 'I' for Inactive)
REMARK    1  A    between atoms: C_2  and  C_4
REMARK    2  A    between atoms: C_7  and  N_8
REMARK    3  A    between atoms: N_8  and  C_9
REMARK    4  A    between atoms: C_9  and  C_10
REMARK                            x       y       z     vdW  Elec       q    Type
REMARK                         _______ _______ _______ _____ _____    ______ ____
ROOT
ATOM      1  C   UNL     1      47.367   8.584  12.582  0.00  0.00    +0.000 A 
ATOM      2  C   UNL     1      47.738   7.341  12.071  0.00  0.00    +0.000 A 
ATOM      3  C   UNL     1      46.772   6.501  11.512  0.00  0.00    +0.000 A 
ATOM      4  C   UNL     1      45.437   6.898  11.386  0.00  0.00    +0.000 A 
ATOM      5  C   UNL     1      45.067   8.126  11.954  0.00  0.00    +0.000 A 
ATOM      6  C   UNL     1      46.021   8.964  12.551  0.00  0.00    +0.000 A 
ENDROOT
BRANCH   1   8
ATOM      7  N   UNL     1      49.454   8.866  13.801  0.00  0.00    +0.000 N 
ATOM      8  C   UNL     1      48.360   9.465  13.225  0.00  0.00    +0.000 C 
ATOM      9  O   UNL     1      48.237  10.683  13.233  0.00  0.00    +0.000 OA
ATOM     10  H   UNL     1      50.154   9.477  14.198  0.00  0.00    +0.000 HD
ATOM     11  H   UNL     1      49.715   7.908  13.609  0.00  0.00    +0.000 HD
ENDBRANCH   1   8
BRANCH   4  12
ATOM     12  N   UNL     1      44.437   6.076  10.827  0.00  0.00    +0.000 N 
ATOM     13  H   UNL     1      43.947   6.505  10.047  0.00  0.00    +0.000 HD
BRANCH  12  14
ATOM     14  C   UNL     1      44.404   4.603  10.952  0.00  0.00    +0.000 C 
ATOM     15  C   UNL     1      43.134   3.977  11.500  0.00  0.00    +0.000 C 
ATOM     16  C   UNL     1      44.364   3.967  12.336  0.00  0.00    +0.000 C 
BRANCH  14  17
ATOM     17  C   UNL     1      45.271   3.839   9.938  0.00  0.00    +0.000 C 
ATOM     18  C   UNL     1      45.548   4.686   8.678  0.00  0.00    +0.000 C 
ATOM     19  C   UNL     1      46.479   3.948   7.719  0.00  0.00    +0.000 C 
ATOM     20  C   UNL     1      45.913   2.584   7.334  0.00  0.00    +0.000 C 
ATOM     21  C   UNL     1      45.589   1.741   8.564  0.00  0.00    +0.000 C 
ATOM     22  C   UNL     1      44.674   2.484   9.536  0.00  0.00    +0.000 C 
ENDBRANCH  14  17
ENDBRANCH  12  14
ENDBRANCH   4  12
TORSDOF 4
ENDMDL
MODEL 6
REMARK VINA RESULT:    -5.480      3.823      6.661
REMARK INTER + INTRA:          -7.565
REMARK INTER:                  -7.052
REMARK INTRA:                  -0.513
REMARK UNBOUND:                -0.804
REMARK  Name = 
REMARK  4 active torsions:
REMARK  status: ('A' for Active; 'I' for Inactive)
REMARK    1  A    between atoms: C_2  and  C_4
REMARK    2  A    between atoms: C_7  and  N_8
REMARK    3  A    between atoms: N_8  and  C_9
REMARK    4  A    between atoms: C_9  and  C_10
REMARK                            x       y       z     vdW  Elec       q    Type
REMARK                         _______ _______ _______ _____ _____    ______ ____
ROOT
ATOM      1  C   UNL     1      48.269   5.934  15.414  0.00  0.00    +0.000 A 
ATOM      2  C   UNL     1      47.660   4.781  15.908  0.00  0.00    +0.000 A 
ATOM      3  C   UNL     1      46.796   4.046  15.092  0.00  0.00    +0.000 A 
ATOM      4  C   UNL     1      46.570   4.396  13.757  0.00  0.00    +0.000 A 
ATOM      5  C   UNL     1      47.145   5.588  13.290  0.00  0.00    +0.000 A 
ATOM      6  C   UNL     1      47.986   6.356  14.110  0.00  0.00    +0.000 A 
ENDROOT
BRANCH   1   8
ATOM      7  N   UNL     1      48.536   7.528  17.233  0.00  0.00    +0.000 N 
ATOM      8  C   UNL     1      49.144   6.755  16.273  0.00  0.00    +0.000 C 
ATOM      9  O   UNL     1      50.362   6.740  16.160  0.00  0.00    +0.000 OA
ATOM     10  H   UNL     1      49.142   8.052  17.849  0.00  0.00    +0.000 HD
ATOM     11  H   UNL     1      47.576   7.389  17.518  0.00  0.00    +0.000 HD
ENDBRANCH   1   8
BRANCH   4  12
ATOM     12  N   UNL     1      45.706   3.677  12.906  0.00  0.00    +0.000 N 
ATOM     13  H   UNL     1      45.693   2.678  13.088  0.00  0.00    +0.000 HD
BRANCH  12  14
ATOM     14  C   UNL     1      44.559   4.274  12.188  0.00  0.00    +0.000 C 
ATOM     15  C   UNL     1      43.909   5.499  12.807  0.00  0.00    +0.000 C 
ATOM     16  C   UNL     1      43.168   4.208  12.807  0.00  0.00    +0.000 C 
BRANCH  14  17
ATOM     17  C   UNL     1      44.573   4.090  10.662  0.00  0.00    +0.000 C 
ATOM     18  C   UNL     1      44.710   2.603  10.272  0.00  0.00    +0.000 C 
ATOM     19  C   UNL     1      44.637   2.429   8.757  0.00  0.00    +0.000 C 
ATOM     20  C   UNL     1      45.696   3.268   8.048  0.00  0.00    +0.000 C 
ATOM     21  C   UNL     1      45.611   4.738   8.449  0.00  0.00    +0.000 C 
ATOM     22  C   UNL     1      45.663   4.916   9.966  0.00  0.00    +0.000 C 
ENDBRANCH  14  17
ENDBRANCH  12  14
ENDBRANCH   4  12
TORSDOF 4
ENDMDL
