MODEL 1
REMARK VINA RESULT:    -7.733      0.000      0.000
REMARK INTER + INTRA:         -11.430
REMARK INTER:                 -10.445
REMARK INTRA:                  -0.985
REMARK UNBOUND:                -0.985
REMARK  Name = 
REMARK  7 active torsions:
REMARK  status: ('A' for Active; 'I' for Inactive)
REMARK    1  A    between atoms: C_1  and  N_2
REMARK    2  A    between atoms: C_5  and  C_6
REMARK    3  A    between atoms: N_8  and  C_9
REMARK    4  A    between atoms: C_9  and  C_10
REMARK    5  A    between atoms: C_13  and  C_14
REMARK    6  A    between atoms: C_14  and  N_15
REMARK    7  A    between atoms: C_16  and  C_18
REMARK                            x       y       z     vdW  Elec       q    Type
REMARK                         _______ _______ _______ _____ _____    ______ ____
ROOT
ATOM      1  C   UNL     1      44.991   6.153  11.276  0.00  0.00    +0.000 A 
ATOM      2  C   UNL     1      46.191   5.654  11.803  0.00  0.00    +0.000 A 
ATOM      3  C   UNL     1      46.989   6.440  12.647  0.00  0.00    +0.000 A 
ATOM      4  C   UNL     1      46.592   7.738  13.000  0.00  0.00    +0.000 A 
ATOM      5  C   UNL     1      45.399   8.239  12.464  0.00  0.00    +0.000 A 
ATOM      6  C   UNL     1      44.601   7.453  11.624  0.00  0.00    +0.000 A 
ENDROOT
BRANCH   1   7
ATOM      7  C   UNL     1      44.166   5.323  10.323  0.00  0.00    +0.000 C 
BRANCH   7  10
ATOM      8  C   UNL     1      44.823   3.170   9.376  0.00  0.00    +0.000 C 
ATOM      9  O   UNL     1      44.062   2.549  10.111  0.00  0.00    +0.000 OA
ATOM     10  N   UNL     1      44.945   4.545   9.401  0.00  0.00    +0.000 N 
ATOM     11  H   UNL     1      45.619   4.967   8.768  0.00  0.00    +0.000 HD
BRANCH   8  16
ATOM     12  C   UNL     1      47.831   2.293   5.517  0.00  0.00    +0.000 C 
ATOM     13  N   UNL     1      47.007   2.130   6.690  0.00  0.00    +0.000 N 
ATOM     14  C   UNL     1      46.784   0.968   7.370  0.00  0.00    +0.000 A 
ATOM     15  N   UNL     1      45.990   1.157   8.402  0.00  0.00    +0.000 NA
ATOM     16  C   UNL     1      45.684   2.511   8.388  0.00  0.00    +0.000 A 
ATOM     17  C   UNL     1      46.311   3.121   7.316  0.00  0.00    +0.000 A 
ENDBRANCH   8  16
ENDBRANCH   7  10
ENDBRANCH   1   7
BRANCH   4  18
ATOM     18  C   UNL     1      47.426   8.589  13.927  0.00  0.00    +0.000 C 
BRANCH  18  19
ATOM     19  N   UNL     1      47.845   7.864  15.102  0.00  0.00    +0.000 N 
ATOM     20  C   UNL     1      49.110   7.338  15.198  0.00  0.00    +0.000 C 
ATOM     21  O   UNL     1      49.948   7.483  14.314  0.00  0.00    +0.000 OA
ATOM     22  H   UNL     1      47.110   7.501  15.702  0.00  0.00    +0.000 HD
BRANCH  20  23
ATOM     23  C   UNL     1      49.432   6.637  16.449  0.00  0.00    +0.000 A 
ATOM     24  C   UNL     1      50.404   7.148  17.300  0.00  0.00    +0.000 A 
ATOM     25  S   UNL     1      50.606   6.238  18.729  0.00  0.00    +0.000 S 
ATOM     26  C   UNL     1      49.442   5.098  18.235  0.00  0.00    +0.000 A 
ATOM     27  N   UNL     1      49.147   4.015  19.004  0.00  0.00    +0.000 NA
ATOM     28  C   UNL     1      48.269   3.219  18.490  0.00  0.00    +0.000 A 
ATOM     29  N   UNL     1      47.658   3.409  17.280  0.00  0.00    +0.000 N 
ATOM     30  C   UNL     1      47.896   4.504  16.486  0.00  0.00    +0.000 A 
ATOM     31  O   UNL     1      47.291   4.673  15.432  0.00  0.00    +0.000 OA
ATOM     32  C   UNL     1      48.892   5.422  17.007  0.00  0.00    +0.000 A 
ATOM     33  H   UNL     1      46.968   2.755  16.939  0.00  0.00    +0.000 HD
ENDBRANCH  20  23
ENDBRANCH  18  19
ENDBRANCH   4  18
TORSDOF 6
ENDMDL
MODEL 2
REMARK VINA RESULT:    -6.817      3.638      8.522
REMARK INTER + INTRA:         -10.192
REMARK INTER:                  -9.294
REMARK INTRA:                  -0.899
REMARK UNBOUND:                -0.985
REMARK  Name = 
REMARK  7 active torsions:
REMARK  status: ('A' for Active; 'I' for Inactive)
REMARK    1  A    between atoms: C_1  and  N_2
REMARK    2  A    between atoms: C_5  and  C_6
REMARK    3  A    between atoms: N_8  and  C_9
REMARK    4  A    between atoms: C_9  and  C_10
REMARK    5  A    between atoms: C_13  and  C_14
REMARK    6  A    between atoms: C_14  and  N_15
REMARK    7  A    between atoms: C_16  and  C_18
REMARK                            x       y       z     vdW  Elec       q    Type
REMARK                         _______ _______ _______ _____ _____    ______ ____
ROOT
ATOM      1  C   UNL     1      50.242   7.032  15.746  0.00  0.00    +0.000 A 
ATOM      2  C   UNL     1      48.915   6.642  15.513  0.00  0.00    +0.000 A 
ATOM      3  C   UNL     1      48.264   6.980  14.318  0.00  0.00    +0.000 A 
ATOM      4  C   UNL     1      48.934   7.698  13.318  0.00  0.00    +0.000 A 
ATOM      5  C   UNL     1      50.257   8.096  13.556  0.00  0.00    +0.000 A 
ATOM      6  C   UNL     1      50.907   7.757  14.748  0.00  0.00    +0.000 A 
ENDROOT
BRANCH   1   7
ATOM      7  C   UNL     1      50.918   6.715  17.057  0.00  0.00    +0.000 C 
BRANCH   7  10
ATOM      8  C   UNL     1      50.846   4.403  17.842  0.00  0.00    +0.000 C 
ATOM      9  O   UNL     1      49.794   4.581  18.448  0.00  0.00    +0.000 OA
ATOM     10  N   UNL     1      51.480   5.395  17.121  0.00  0.00    +0.000 N 
ATOM     11  H   UNL     1      52.360   5.158  16.671  0.00  0.00    +0.000 HD
BRANCH   8  16
ATOM     12  C   UNL     1      54.224   0.805  18.431  0.00  0.00    +0.000 C 
ATOM     13  N   UNL     1      53.028   1.531  18.081  0.00  0.00    +0.000 N 
ATOM     14  C   UNL     1      51.915   1.021  17.478  0.00  0.00    +0.000 A 
ATOM     15  N   UNL     1      50.994   1.944  17.303  0.00  0.00    +0.000 NA
ATOM     16  C   UNL     1      51.540   3.111  17.820  0.00  0.00    +0.000 A 
ATOM     17  C   UNL     1      52.813   2.860  18.301  0.00  0.00    +0.000 A 
ENDBRANCH   8  16
ENDBRANCH   7  10
ENDBRANCH   1   7
BRANCH   4  18
ATOM     18  C   UNL     1      48.258   8.048  12.015  0.00  0.00    +0.000 C 
BRANCH  18  19
ATOM     19  N   UNL     1      47.563   6.921  11.443  0.00  0.00    +0.000 N 
ATOM     20  C   UNL     1      46.190   6.881  11.399  0.00  0.00    +0.000 C 
ATOM     21  O   UNL     1      45.495   7.804  11.811  0.00  0.00    +0.000 OA
ATOM     22  H   UNL     1      48.087   6.055  11.356  0.00  0.00    +0.000 HD
BRANCH  20  23
ATOM     23  C   UNL     1      45.592   5.692  10.775  0.00  0.00    +0.000 A 
ATOM     24  C   UNL     1      45.731   5.482   9.409  0.00  0.00    +0.000 A 
ATOM     25  S   UNL     1      45.024   4.027   8.868  0.00  0.00    +0.000 S 
ATOM     26  C   UNL     1      44.458   3.654  10.429  0.00  0.00    +0.000 A 
ATOM     27  N   UNL     1      43.728   2.530  10.664  0.00  0.00    +0.000 NA
ATOM     28  C   UNL     1      43.339   2.393  11.888  0.00  0.00    +0.000 A 
ATOM     29  N   UNL     1      43.616   3.274  12.898  0.00  0.00    +0.000 N 
ATOM     30  C   UNL     1      44.379   4.402  12.717  0.00  0.00    +0.000 A 
ATOM     31  O   UNL     1      44.654   5.143  13.655  0.00  0.00    +0.000 OA
ATOM     32  C   UNL     1      44.825   4.617  11.353  0.00  0.00    +0.000 A 
ATOM     33  H   UNL     1      43.294   3.102  13.839  0.00  0.00    +0.000 HD
ENDBRANCH  20  23
ENDBRANCH  18  19
ENDBRANCH   4  18
TORSDOF 6
ENDMDL
MODEL 3
REMARK VINA RESULT:    -6.729      5.024      7.611
REMARK INTER + INTRA:         -10.075
REMARK INTER:                  -9.150
REMARK INTRA:                  -0.924
REMARK UNBOUND:                -0.985
REMARK  Name = 
REMARK  7 active torsions:
REMARK  status: ('A' for Active; 'I' for Inactive)
REMARK    1  A    between atoms: C_1  and  N_2
REMARK    2  A    between atoms: C_5  and  C_6
REMARK    3  A    between atoms: N_8  and  C_9
REMARK    4  A    between atoms: C_9  and  C_10
REMARK    5  A    between atoms: C_13  and  C_14
REMARK    6  A    between atoms: C_14  and  N_15
REMARK    7  A    between atoms: C_16  and  C_18
REMARK                            x       y       z     vdW  Elec       q    Type
REMARK                         _______ _______ _______ _____ _____    ______ ____
ROOT
ATOM      1  C   UNL     1      50.614   8.813  11.324  0.00  0.00    +0.000 A 
ATOM      2  C   UNL     1      50.087   7.528  11.522  0.00  0.00    +0.000 A 
ATOM      3  C   UNL     1      48.806   7.351  12.064  0.00  0.00    +0.000 A 
ATOM      4  C   UNL     1      48.014   8.457  12.401  0.00  0.00    +0.000 A 
ATOM      5  C   UNL     1      48.546   9.740  12.213  0.00  0.00    +0.000 A 
ATOM      6  C   UNL     1      49.823   9.917  11.669  0.00  0.00    +0.000 A 
ENDROOT
BRANCH   1   7
ATOM      7  C   UNL     1      52.015   8.996  10.794  0.00  0.00    +0.000 C 
BRANCH   7  10
ATOM      8  C   UNL     1      52.837   7.958   8.741  0.00  0.00    +0.000 C 
ATOM      9  O   UNL     1      52.710   8.994   8.098  0.00  0.00    +0.000 OA
ATOM     10  N   UNL     1      52.524   7.857  10.082  0.00  0.00    +0.000 N 
ATOM     11  H   UNL     1      52.643   6.949  10.524  0.00  0.00    +0.000 HD
BRANCH   8  16
ATOM     12  C   UNL     1      55.472   3.839   7.845  0.00  0.00    +0.000 C 
ATOM     13  N   UNL     1      54.502   4.903   7.759  0.00  0.00    +0.000 N 
ATOM     14  C   UNL     1      53.509   5.024   6.829  0.00  0.00    +0.000 A 
ATOM     15  N   UNL     1      52.787   6.104   7.031  0.00  0.00    +0.000 NA
ATOM     16  C   UNL     1      53.340   6.713   8.150  0.00  0.00    +0.000 A 
ATOM     17  C   UNL     1      54.415   5.970   8.603  0.00  0.00    +0.000 A 
ENDBRANCH   8  16
ENDBRANCH   7  10
ENDBRANCH   1   7
BRANCH   4  18
ATOM     18  C   UNL     1      46.623   8.286  12.962  0.00  0.00    +0.000 C 
BRANCH  18  19
ATOM     19  N   UNL     1      46.087   6.973  12.696  0.00  0.00    +0.000 N 
ATOM     20  C   UNL     1      45.060   6.793  11.803  0.00  0.00    +0.000 C 
ATOM     21  O   UNL     1      44.572   7.724  11.170  0.00  0.00    +0.000 OA
ATOM     22  H   UNL     1      46.275   6.253  13.388  0.00  0.00    +0.000 HD
BRANCH  20  23
ATOM     23  C   UNL     1      44.609   5.409  11.597  0.00  0.00    +0.000 A 
ATOM     24  C   UNL     1      43.881   4.762  12.589  0.00  0.00    +0.000 A 
ATOM     25  S   UNL     1      43.395   3.185  12.157  0.00  0.00    +0.000 S 
ATOM     26  C   UNL     1      44.188   3.289  10.655  0.00  0.00    +0.000 A 
ATOM     27  N   UNL     1      44.191   2.242   9.787  0.00  0.00    +0.000 NA
ATOM     28  C   UNL     1      44.858   2.451   8.701  0.00  0.00    +0.000 A 
ATOM     29  N   UNL     1      45.519   3.613   8.403  0.00  0.00    +0.000 N 
ATOM     30  C   UNL     1      45.514   4.709   9.231  0.00  0.00    +0.000 A 
ATOM     31  O   UNL     1      46.071   5.753   8.910  0.00  0.00    +0.000 OA
ATOM     32  C   UNL     1      44.795   4.520  10.477  0.00  0.00    +0.000 A 
ATOM     33  H   UNL     1      46.012   3.719   7.529  0.00  0.00    +0.000 HD
ENDBRANCH  20  23
ENDBRANCH  18  19
ENDBRANCH   4  18
TORSDOF 6
ENDMDL
MODEL 4
REMARK VINA RESULT:    -6.720      4.023      8.662
REMARK INTER + INTRA:         -10.062
REMARK INTER:                  -9.069
REMARK INTRA:                  -0.993
REMARK UNBOUND:                -0.985
REMARK  Name = 
REMARK  7 active torsions:
REMARK  status: ('A' for Active; 'I' for Inactive)
REMARK    1  A    between atoms: C_1  and  N_2
REMARK    2  A    between atoms: C_5  and  C_6
REMARK    3  A    between atoms: N_8  and  C_9
REMARK    4  A    between atoms: C_9  and  C_10
REMARK    5  A    between atoms: C_13  and  C_14
REMARK    6  A    between atoms: C_14  and  N_15
REMARK    7  A    between atoms: C_16  and  C_18
REMARK                            x       y       z     vdW  Elec       q    Type
REMARK                         _______ _______ _______ _____ _____    ______ ____
ROOT
ATOM      1  C   UNL     1      49.588   4.618  17.640  0.00  0.00    +0.000 A 
ATOM      2  C   UNL     1      50.394   5.694  17.239  0.00  0.00    +0.000 A 
ATOM      3  C   UNL     1      49.976   6.569  16.227  0.00  0.00    +0.000 A 
ATOM      4  C   UNL     1      48.730   6.400  15.607  0.00  0.00    +0.000 A 
ATOM      5  C   UNL     1      47.930   5.319  16.000  0.00  0.00    +0.000 A 
ATOM      6  C   UNL     1      48.347   4.447  17.013  0.00  0.00    +0.000 A 
ENDROOT
BRANCH   1   7
ATOM      7  C   UNL     1      50.069   3.646  18.689  0.00  0.00    +0.000 C 
BRANCH   7  10
ATOM      8  C   UNL     1      51.603   2.043  17.668  0.00  0.00    +0.000 C 
ATOM      9  O   UNL     1      50.693   1.434  17.118  0.00  0.00    +0.000 OA
ATOM     10  N   UNL     1      51.399   3.153  18.463  0.00  0.00    +0.000 N 
ATOM     11  H   UNL     1      52.216   3.577  18.895  0.00  0.00    +0.000 HD
BRANCH   8  16
ATOM     12  C   UNL     1      55.775  -0.571  16.979  0.00  0.00    +0.000 C 
ATOM     13  N   UNL     1      54.844   0.502  17.230  0.00  0.00    +0.000 N 
ATOM     14  C   UNL     1      55.155   1.812  17.453  0.00  0.00    +0.000 A 
ATOM     15  N   UNL     1      54.076   2.540  17.640  0.00  0.00    +0.000 NA
ATOM     16  C   UNL     1      53.012   1.655  17.534  0.00  0.00    +0.000 A 
ATOM     17  C   UNL     1      53.487   0.380  17.285  0.00  0.00    +0.000 A 
ENDBRANCH   8  16
ENDBRANCH   7  10
ENDBRANCH   1   7
BRANCH   4  18
ATOM     18  C   UNL     1      48.252   7.348  14.533  0.00  0.00    +0.000 C 
BRANCH  18  19
ATOM     19  N   UNL     1      47.004   6.922  13.948  0.00  0.00    +0.000 N 
ATOM     20  C   UNL     1      46.909   6.639  12.607  0.00  0.00    +0.000 C 
ATOM     21  O   UNL     1      47.875   6.704  11.854  0.00  0.00    +0.000 OA
ATOM     22  H   UNL     1      46.159   7.126  14.472  0.00  0.00    +0.000 HD
BRANCH  20  23
ATOM     23  C   UNL     1      45.593   6.195  12.126  0.00  0.00    +0.000 A 
ATOM     24  C   UNL     1      44.720   7.109  11.549  0.00  0.00    +0.000 A 
ATOM     25  S   UNL     1      43.266   6.409  10.998  0.00  0.00    +0.000 S 
ATOM     26  C   UNL     1      43.725   4.870  11.563  0.00  0.00    +0.000 A 
ATOM     27  N   UNL     1      42.899   3.798  11.434  0.00  0.00    +0.000 NA
ATOM     28  C   UNL     1      43.365   2.702  11.935  0.00  0.00    +0.000 A 
ATOM     29  N   UNL     1      44.583   2.582  12.549  0.00  0.00    +0.000 N 
ATOM     30  C   UNL     1      45.466   3.627  12.670  0.00  0.00    +0.000 A 
ATOM     31  O   UNL     1      46.572   3.473  13.178  0.00  0.00    +0.000 OA
ATOM     32  C   UNL     1      44.982   4.889  12.142  0.00  0.00    +0.000 A 
ATOM     33  H   UNL     1      44.896   1.692  12.909  0.00  0.00    +0.000 HD
ENDBRANCH  20  23
ENDBRANCH  18  19
ENDBRANCH   4  18
TORSDOF 6
ENDMDL
MODEL 5
REMARK VINA RESULT:    -6.495      5.707      8.299
REMARK INTER + INTRA:          -9.758
REMARK INTER:                  -8.816
REMARK INTRA:                  -0.942
REMARK UNBOUND:                -0.985
REMARK  Name = 
REMARK  7 active torsions:
REMARK  status: ('A' for Active; 'I' for Inactive)
REMARK    1  A    between atoms: C_1  and  N_2
REMARK    2  A    between atoms: C_5  and  C_6
REMARK    3  A    between atoms: N_8  and  C_9
REMARK    4  A    between atoms: C_9  and  C_10
REMARK    5  A    between atoms: C_13  and  C_14
REMARK    6  A    between atoms: C_14  and  N_15
REMARK    7  A    between atoms: C_16  and  C_18
REMARK                            x       y       z     vdW  Elec       q    Type
REMARK                         _______ _______ _______ _____ _____    ______ ____
ROOT
ATOM      1  C   UNL     1      49.403   7.304  13.793  0.00  0.00    +0.000 A 
ATOM      2  C   UNL     1      49.213   7.336  12.404  0.00  0.00    +0.000 A 
ATOM      3  C   UNL     1      50.098   8.038  11.573  0.00  0.00    +0.000 A 
ATOM      4  C   UNL     1      51.206   8.706  12.112  0.00  0.00    +0.000 A 
ATOM      5  C   UNL     1      51.389   8.682  13.501  0.00  0.00    +0.000 A 
ATOM      6  C   UNL     1      50.507   7.980  14.331  0.00  0.00    +0.000 A 
ENDROOT
BRANCH   1   7
ATOM      7  C   UNL     1      48.415   6.596  14.688  0.00  0.00    +0.000 C 
BRANCH   7  10
ATOM      8  C   UNL     1      46.821   4.877  14.004  0.00  0.00    +0.000 C 
ATOM      9  O   UNL     1      47.467   3.983  14.538  0.00  0.00    +0.000 OA
ATOM     10  N   UNL     1      47.203   6.203  14.025  0.00  0.00    +0.000 N 
ATOM     11  H   UNL     1      46.612   6.869  13.534  0.00  0.00    +0.000 HD
BRANCH   8  16
ATOM     12  C   UNL     1      42.394   5.452  11.818  0.00  0.00    +0.000 C 
ATOM     13  N   UNL     1      43.619   4.885  12.326  0.00  0.00    +0.000 N 
ATOM     14  C   UNL     1      44.027   3.588  12.201  0.00  0.00    +0.000 A 
ATOM     15  N   UNL     1      45.198   3.393  12.768  0.00  0.00    +0.000 NA
ATOM     16  C   UNL     1      45.566   4.628  13.286  0.00  0.00    +0.000 A 
ATOM     17  C   UNL     1      44.580   5.561  13.018  0.00  0.00    +0.000 A 
ENDBRANCH   8  16
ENDBRANCH   7  10
ENDBRANCH   1   7
BRANCH   4  18
ATOM     18  C   UNL     1      52.184   9.445  11.229  0.00  0.00    +0.000 C 
BRANCH  18  19
ATOM     19  N   UNL     1      52.379   8.784   9.962  0.00  0.00    +0.000 N 
ATOM     20  C   UNL     1      53.561   8.906   9.273  0.00  0.00    +0.000 C 
ATOM     21  O   UNL     1      54.510   9.550   9.708  0.00  0.00    +0.000 OA
ATOM     22  H   UNL     1      51.544   8.489   9.466  0.00  0.00    +0.000 HD
BRANCH  20  23
ATOM     23  C   UNL     1      53.654   8.172   8.003  0.00  0.00    +0.000 A 
ATOM     24  C   UNL     1      53.698   8.868   6.801  0.00  0.00    +0.000 A 
ATOM     25  S   UNL     1      53.862   7.859   5.435  0.00  0.00    +0.000 S 
ATOM     26  C   UNL     1      53.823   6.455   6.396  0.00  0.00    +0.000 A 
ATOM     27  N   UNL     1      53.889   5.217   5.836  0.00  0.00    +0.000 NA
ATOM     28  C   UNL     1      53.817   4.244   6.682  0.00  0.00    +0.000 A 
ATOM     29  N   UNL     1      53.688   4.396   8.037  0.00  0.00    +0.000 N 
ATOM     30  C   UNL     1      53.653   5.624   8.651  0.00  0.00    +0.000 A 
ATOM     31  O   UNL     1      53.591   5.727   9.871  0.00  0.00    +0.000 OA
ATOM     32  C   UNL     1      53.710   6.755   7.742  0.00  0.00    +0.000 A 
ATOM     33  H   UNL     1      53.650   3.593   8.648  0.00  0.00    +0.000 HD
ENDBRANCH  20  23
ENDBRANCH  18  19
ENDBRANCH   4  18
TORSDOF 6
ENDMDL
MODEL 6
REMARK VINA RESULT:    -6.243      3.470      4.932
REMARK INTER + INTRA:          -9.418
REMARK INTER:                  -8.318
REMARK INTRA:                  -1.100
REMARK UNBOUND:                -0.985
REMARK  Name = 
REMARK  7 active torsions:
REMARK  status: ('A' for Active; 'I' for Inactive)
REMARK    1  A    between atoms: C_1  and  N_2
REMARK    2  A    between atoms: C_5  and  C_6
REMARK    3  A    between atoms: N_8  and  C_9
REMARK    4  A    between atoms: C_9  and  C_10
REMARK    5  A    between atoms: C_13  and  C_14
REMARK    6  A    between atoms: C_14  and  N_15
REMARK    7  A    between atoms: C_16  and  C_18
REMARK                            x       y       z     vdW  Elec       q    Type
REMARK                         _______ _______ _______ _____ _____    ______ ____
ROOT
ATOM      1  C   UNL     1      45.739   6.991  12.098  0.00  0.00    +0.000 A 
ATOM      2  C   UNL     1      45.732   8.380  12.290  0.00  0.00    +0.000 A 
ATOM      3  C   UNL     1      46.628   8.989  13.180  0.00  0.00    +0.000 A 
ATOM      4  C   UNL     1      47.568   8.222  13.883  0.00  0.00    +0.000 A 
ATOM      5  C   UNL     1      47.567   6.833  13.698  0.00  0.00    +0.000 A 
ATOM      6  C   UNL     1      46.674   6.226  12.808  0.00  0.00    +0.000 A 
ENDROOT
BRANCH   1   7
ATOM      7  C   UNL     1      44.735   6.336  11.182  0.00  0.00    +0.000 C 
BRANCH   7  10
ATOM      8  C   UNL     1      44.770   4.277   9.868  0.00  0.00    +0.000 C 
ATOM      9  O   UNL     1      43.772   3.835  10.426  0.00  0.00    +0.000 OA
ATOM     10  N   UNL     1      45.322   5.507  10.167  0.00  0.00    +0.000 N 
ATOM     11  H   UNL     1      46.164   5.777   9.665  0.00  0.00    +0.000 HD
BRANCH   8  16
ATOM     12  C   UNL     1      46.970   0.689   7.224  0.00  0.00    +0.000 C 
ATOM     13  N   UNL     1      46.447   1.962   7.655  0.00  0.00    +0.000 N 
ATOM     14  C   UNL     1      46.492   3.136   6.961  0.00  0.00    +0.000 A 
ATOM     15  N   UNL     1      45.919   4.114   7.628  0.00  0.00    +0.000 NA
ATOM     16  C   UNL     1      45.481   3.543   8.815  0.00  0.00    +0.000 A 
ATOM     17  C   UNL     1      45.814   2.200   8.840  0.00  0.00    +0.000 A 
ENDBRANCH   8  16
ENDBRANCH   7  10
ENDBRANCH   1   7
BRANCH   4  18
ATOM     18  C   UNL     1      48.558   8.863  14.826  0.00  0.00    +0.000 C 
BRANCH  18  19
ATOM     19  N   UNL     1      49.845   9.067  14.207  0.00  0.00    +0.000 N 
ATOM     20  C   UNL     1      50.890   8.207  14.444  0.00  0.00    +0.000 C 
ATOM     21  O   UNL     1      50.775   7.218  15.161  0.00  0.00    +0.000 OA
ATOM     22  H   UNL     1      50.039   9.997  13.850  0.00  0.00    +0.000 HD
BRANCH  20  23
ATOM     23  C   UNL     1      52.148   8.502  13.744  0.00  0.00    +0.000 A 
ATOM     24  C   UNL     1      53.282   8.847  14.470  0.00  0.00    +0.000 A 
ATOM     25  S   UNL     1      54.662   9.100  13.499  0.00  0.00    +0.000 S 
ATOM     26  C   UNL     1      53.781   8.814  12.071  0.00  0.00    +0.000 A 
ATOM     27  N   UNL     1      54.372   8.905  10.850  0.00  0.00    +0.000 NA
ATOM     28  C   UNL     1      53.576   8.693   9.855  0.00  0.00    +0.000 A 
ATOM     29  N   UNL     1      52.244   8.396   9.971  0.00  0.00    +0.000 N 
ATOM     30  C   UNL     1      51.612   8.259  11.182  0.00  0.00    +0.000 A 
ATOM     31  O   UNL     1      50.430   7.939  11.253  0.00  0.00    +0.000 OA
ATOM     32  C   UNL     1      52.457   8.507  12.335  0.00  0.00    +0.000 A 
ATOM     33  H   UNL     1      51.677   8.228   9.152  0.00  0.00    +0.000 HD
ENDBRANCH  20  23
ENDBRANCH  18  19
ENDBRANCH   4  18
TORSDOF 6
ENDMDL
MODEL 7
REMARK VINA RESULT:    -6.211      3.419      9.660
REMARK INTER + INTRA:          -9.374
REMARK INTER:                  -8.681
REMARK INTRA:                  -0.693
REMARK UNBOUND:                -0.985
REMARK  Name = 
REMARK  7 active torsions:
REMARK  status: ('A' for Active; 'I' for Inactive)
REMARK    1  A    between atoms: C_1  and  N_2
REMARK    2  A    between atoms: C_5  and  C_6
REMARK    3  A    between atoms: N_8  and  C_9
REMARK    4  A    between atoms: C_9  and  C_10
REMARK    5  A    between atoms: C_13  and  C_14
REMARK    6  A    between atoms: C_14  and  N_15
REMARK    7  A    between atoms: C_16  and  C_18
REMARK                            x       y       z     vdW  Elec       q    Type
REMARK                         _______ _______ _______ _____ _____    ______ ____
ROOT
ATOM      1  C   UNL     1      46.142   7.233  12.870  0.00  0.00    +0.000 A 
ATOM      2  C   UNL     1      46.503   6.028  13.490  0.00  0.00    +0.000 A 
ATOM      3  C   UNL     1      45.833   4.834  13.187  0.00  0.00    +0.000 A 
ATOM      4  C   UNL     1      44.799   4.816  12.241  0.00  0.00    +0.000 A 
ATOM      5  C   UNL     1      44.433   6.023  11.630  0.00  0.00    +0.000 A 
ATOM      6  C   UNL     1      45.104   7.214  11.930  0.00  0.00    +0.000 A 
ENDROOT
BRANCH   1   7
ATOM      7  C   UNL     1      46.829   8.525  13.242  0.00  0.00    +0.000 C 
BRANCH   7  10
ATOM      8  C   UNL     1      48.474   8.627  15.046  0.00  0.00    +0.000 C 
ATOM      9  O   UNL     1      49.417   8.539  14.267  0.00  0.00    +0.000 OA
ATOM     10  N   UNL     1      47.155   8.633  14.637  0.00  0.00    +0.000 N 
ATOM     11  H   UNL     1      46.441   8.687  15.359  0.00  0.00    +0.000 HD
BRANCH   8  16
ATOM     12  C   UNL     1      50.172   8.102  19.687  0.00  0.00    +0.000 C 
ATOM     13  N   UNL     1      49.401   8.505  18.538  0.00  0.00    +0.000 N 
ATOM     14  C   UNL     1      48.340   9.364  18.532  0.00  0.00    +0.000 A 
ATOM     15  N   UNL     1      47.859   9.531  17.319  0.00  0.00    +0.000 NA
ATOM     16  C   UNL     1      48.650   8.739  16.497  0.00  0.00    +0.000 A 
ATOM     17  C   UNL     1      49.610   8.091  17.255  0.00  0.00    +0.000 A 
ENDBRANCH   8  16
ENDBRANCH   7  10
ENDBRANCH   1   7
BRANCH   4  18
ATOM     18  C   UNL     1      44.084   3.535  11.883  0.00  0.00    +0.000 C 
BRANCH  18  19
ATOM     19  N   UNL     1      44.820   2.751  10.922  0.00  0.00    +0.000 N 
ATOM     20  C   UNL     1      44.683   2.970   9.573  0.00  0.00    +0.000 C 
ATOM     21  O   UNL     1      43.961   3.853   9.123  0.00  0.00    +0.000 OA
ATOM     22  H   UNL     1      45.192   1.863  11.245  0.00  0.00    +0.000 HD
BRANCH  20  23
ATOM     23  C   UNL     1      45.498   2.124   8.689  0.00  0.00    +0.000 A 
ATOM     24  C   UNL     1      45.396   0.741   8.767  0.00  0.00    +0.000 A 
ATOM     25  S   UNL     1      46.371  -0.079   7.631  0.00  0.00    +0.000 S 
ATOM     26  C   UNL     1      47.006   1.383   7.035  0.00  0.00    +0.000 A 
ATOM     27  N   UNL     1      47.941   1.394   6.047  0.00  0.00    +0.000 NA
ATOM     28  C   UNL     1      48.355   2.572   5.717  0.00  0.00    +0.000 A 
ATOM     29  N   UNL     1      47.917   3.739   6.281  0.00  0.00    +0.000 N 
ATOM     30  C   UNL     1      46.949   3.782   7.255  0.00  0.00    +0.000 A 
ATOM     31  O   UNL     1      46.539   4.848   7.702  0.00  0.00    +0.000 OA
ATOM     32  C   UNL     1      46.463   2.482   7.679  0.00  0.00    +0.000 A 
ATOM     33  H   UNL     1      48.271   4.632   5.969  0.00  0.00    +0.000 HD
ENDBRANCH  20  23
ENDBRANCH  18  19
ENDBRANCH   4  18
TORSDOF 6
ENDMDL
MODEL 8
REMARK VINA RESULT:    -6.102      3.244      9.248
REMARK INTER + INTRA:          -9.227
REMARK INTER:                  -8.307
REMARK INTRA:                  -0.920
REMARK UNBOUND:                -0.985
REMARK  Name = 
REMARK  7 active torsions:
REMARK  status: ('A' for Active; 'I' for Inactive)
REMARK    1  A    between atoms: C_1  and  N_2
REMARK    2  A    between atoms: C_5  and  C_6
REMARK    3  A    between atoms: N_8  and  C_9
REMARK    4  A    between atoms: C_9  and  C_10
REMARK    5  A    between atoms: C_13  and  C_14
REMARK    6  A    between atoms: C_14  and  N_15
REMARK    7  A    between atoms: C_16  and  C_18
REMARK                            x       y       z     vdW  Elec       q    Type
REMARK                         _______ _______ _______ _____ _____    ______ ____
ROOT
ATOM      1  C   UNL     1      48.918   7.402  16.700  0.00  0.00    +0.000 A 
ATOM      2  C   UNL     1      48.681   8.647  16.099  0.00  0.00    +0.000 A 
ATOM      3  C   UNL     1      48.244   8.733  14.770  0.00  0.00    +0.000 A 
ATOM      4  C   UNL     1      48.014   7.573  14.017  0.00  0.00    +0.000 A 
ATOM      5  C   UNL     1      48.261   6.330  14.615  0.00  0.00    +0.000 A 
ATOM      6  C   UNL     1      48.695   6.244  15.943  0.00  0.00    +0.000 A 
ENDROOT
BRANCH   1   7
ATOM      7  C   UNL     1      49.443   7.317  18.113  0.00  0.00    +0.000 C 
BRANCH   7  10
ATOM      8  C   UNL     1      50.288   5.137  18.818  0.00  0.00    +0.000 C 
ATOM      9  O   UNL     1      49.177   4.755  19.168  0.00  0.00    +0.000 OA
ATOM     10  N   UNL     1      50.524   6.386  18.279  0.00  0.00    +0.000 N 
ATOM     11  H   UNL     1      51.484   6.619  18.039  0.00  0.00    +0.000 HD
BRANCH   8  16
ATOM     12  C   UNL     1      54.550   3.114  20.384  0.00  0.00    +0.000 C 
ATOM     13  N   UNL     1      53.362   3.412  19.624  0.00  0.00    +0.000 N 
ATOM     14  C   UNL     1      52.939   2.773  18.494  0.00  0.00    +0.000 A 
ATOM     15  N   UNL     1      51.811   3.279  18.046  0.00  0.00    +0.000 NA
ATOM     16  C   UNL     1      51.487   4.299  18.931  0.00  0.00    +0.000 A 
ATOM     17  C   UNL     1      52.456   4.390  19.914  0.00  0.00    +0.000 A 
ENDBRANCH   8  16
ENDBRANCH   7  10
ENDBRANCH   1   7
BRANCH   4  18
ATOM     18  C   UNL     1      47.518   7.646  12.593  0.00  0.00    +0.000 C 
BRANCH  18  19
ATOM     19  N   UNL     1      46.839   6.438  12.191  0.00  0.00    +0.000 N 
ATOM     20  C   UNL     1      45.471   6.336  12.264  0.00  0.00    +0.000 C 
ATOM     21  O   UNL     1      44.764   7.264  12.642  0.00  0.00    +0.000 OA
ATOM     22  H   UNL     1      47.398   5.591  12.145  0.00  0.00    +0.000 HD
BRANCH  20  23
ATOM     23  C   UNL     1      44.887   5.066  11.808  0.00  0.00    +0.000 A 
ATOM     24  C   UNL     1      44.149   4.286  12.690  0.00  0.00    +0.000 A 
ATOM     25  S   UNL     1      43.502   2.879  11.977  0.00  0.00    +0.000 S 
ATOM     26  C   UNL     1      44.230   3.232  10.480  0.00  0.00    +0.000 A 
ATOM     27  N   UNL     1      44.097   2.394   9.417  0.00  0.00    +0.000 NA
ATOM     28  C   UNL     1      44.729   2.773   8.356  0.00  0.00    +0.000 A 
ATOM     29  N   UNL     1      45.479   3.915   8.261  0.00  0.00    +0.000 N 
ATOM     30  C   UNL     1      45.613   4.809   9.295  0.00  0.00    +0.000 A 
ATOM     31  O   UNL     1      46.247   5.850   9.161  0.00  0.00    +0.000 OA
ATOM     32  C   UNL     1      44.938   4.421  10.520  0.00  0.00    +0.000 A 
ATOM     33  H   UNL     1      45.939   4.163   7.397  0.00  0.00    +0.000 HD
ENDBRANCH  20  23
ENDBRANCH  18  19
ENDBRANCH   4  18
TORSDOF 6
ENDMDL
MODEL 9
REMARK VINA RESULT:    -5.923      3.276      4.163
REMARK INTER + INTRA:          -8.985
REMARK INTER:                  -7.960
REMARK INTRA:                  -1.025
REMARK UNBOUND:                -0.985
REMARK  Name = 
REMARK  7 active torsions:
REMARK  status: ('A' for Active; 'I' for Inactive)
REMARK    1  A    between atoms: C_1  and  N_2
REMARK    2  A    between atoms: C_5  and  C_6
REMARK    3  A    between atoms: N_8  and  C_9
REMARK    4  A    between atoms: C_9  and  C_10
REMARK    5  A    between atoms: C_13  and  C_14
REMARK    6  A    between atoms: C_14  and  N_15
REMARK    7  A    between atoms: C_16  and  C_18
REMARK                            x       y       z     vdW  Elec       q    Type
REMARK                         _______ _______ _______ _____ _____    ______ ____
ROOT
ATOM      1  C   UNL     1      45.952   6.219  11.816  0.00  0.00    +0.000 A 
ATOM      2  C   UNL     1      46.382   7.540  12.013  0.00  0.00    +0.000 A 
ATOM      3  C   UNL     1      47.253   7.865  13.062  0.00  0.00    +0.000 A 
ATOM      4  C   UNL     1      47.731   6.871  13.927  0.00  0.00    +0.000 A 
ATOM      5  C   UNL     1      47.293   5.553  13.737  0.00  0.00    +0.000 A 
ATOM      6  C   UNL     1      46.426   5.228  12.687  0.00  0.00    +0.000 A 
ENDROOT
BRANCH   1   7
ATOM      7  C   UNL     1      44.970   5.885  10.721  0.00  0.00    +0.000 C 
BRANCH   7  10
ATOM      8  C   UNL     1      45.063   3.765   9.510  0.00  0.00    +0.000 C 
ATOM      9  O   UNL     1      44.193   3.260  10.211  0.00  0.00    +0.000 OA
ATOM     10  N   UNL     1      45.514   5.059   9.679  0.00  0.00    +0.000 N 
ATOM     11  H   UNL     1      46.255   5.382   9.062  0.00  0.00    +0.000 HD
BRANCH   8  16
ATOM     12  C   UNL     1      47.275   2.646   5.202  0.00  0.00    +0.000 C 
ATOM     13  N   UNL     1      46.688   2.556   6.516  0.00  0.00    +0.000 N 
ATOM     14  C   UNL     1      46.587   1.432   7.285  0.00  0.00    +0.000 A 
ATOM     15  N   UNL     1      46.005   1.686   8.437  0.00  0.00    +0.000 NA
ATOM     16  C   UNL     1      45.715   3.044   8.412  0.00  0.00    +0.000 A 
ATOM     17  C   UNL     1      46.133   3.589   7.211  0.00  0.00    +0.000 A 
ENDBRANCH   8  16
ENDBRANCH   7  10
ENDBRANCH   1   7
BRANCH   4  18
ATOM     18  C   UNL     1      48.690   7.198  15.047  0.00  0.00    +0.000 C 
BRANCH  18  19
ATOM     19  N   UNL     1      50.056   7.271  14.589  0.00  0.00    +0.000 N 
ATOM     20  C   UNL     1      50.718   8.473  14.518  0.00  0.00    +0.000 C 
ATOM     21  O   UNL     1      50.198   9.528  14.864  0.00  0.00    +0.000 OA
ATOM     22  H   UNL     1      50.402   6.482  14.051  0.00  0.00    +0.000 HD
BRANCH  20  23
ATOM     23  C   UNL     1      52.113   8.422  14.057  0.00  0.00    +0.000 A 
ATOM     24  C   UNL     1      52.496   9.135  12.927  0.00  0.00    +0.000 A 
ATOM     25  S   UNL     1      54.159   9.006  12.572  0.00  0.00    +0.000 S 
ATOM     26  C   UNL     1      54.416   7.948  13.880  0.00  0.00    +0.000 A 
ATOM     27  N   UNL     1      55.645   7.423  14.130  0.00  0.00    +0.000 NA
ATOM     28  C   UNL     1      55.685   6.612  15.135  0.00  0.00    +0.000 A 
ATOM     29  N   UNL     1      54.608   6.282  15.913  0.00  0.00    +0.000 N 
ATOM     30  C   UNL     1      53.356   6.814  15.722  0.00  0.00    +0.000 A 
ATOM     31  O   UNL     1      52.425   6.538  16.471  0.00  0.00    +0.000 OA
ATOM     32  C   UNL     1      53.251   7.717  14.591  0.00  0.00    +0.000 A 
ATOM     33  H   UNL     1      54.708   5.651  16.695  0.00  0.00    +0.000 HD
ENDBRANCH  20  23
ENDBRANCH  18  19
ENDBRANCH   4  18
TORSDOF 6
ENDMDL
