MODEL 1
REMARK VINA RESULT:    -7.753      0.000      0.000
REMARK INTER + INTRA:         -11.321
REMARK INTER:                 -10.472
REMARK INTRA:                  -0.849
REMARK UNBOUND:                -0.849
REMARK  Name = 
REMARK  6 active torsions:
REMARK  status: ('A' for Active; 'I' for Inactive)
REMARK    1  A    between atoms: C_2  and  C_19
REMARK    2  A    between atoms: N_3  and  C_4
REMARK    3  A    between atoms: C_4  and  C_5
REMARK    4  A    between atoms: C_8  and  O_9
REMARK    5  A    between atoms: O_9  and  C_10
REMARK    6  A    between atoms: C_10  and  C_11
REMARK                            x       y       z     vdW  Elec       q    Type
REMARK                         _______ _______ _______ _____ _____    ______ ____
ROOT
ATOM      1  O   UNL     1      49.607   4.682  16.637  0.00  0.00    +0.000 OA
ATOM      2  C   UNL     1      48.835   5.611  16.431  0.00  0.00    +0.000 C 
ATOM      3  N   UNL     1      47.708   5.523  15.648  0.00  0.00    +0.000 N 
ATOM      4  H   UNL     1      47.020   6.260  15.716  0.00  0.00    +0.000 HD
ENDROOT
BRANCH   2   5
ATOM      5  C   UNL     1      48.888   6.870  17.166  0.00  0.00    +0.000 A 
ATOM      6  C   UNL     1      49.573   7.976  16.695  0.00  0.00    +0.000 A 
ATOM      7  S   UNL     1      49.901   9.102  17.948  0.00  0.00    +0.000 S 
ATOM      8  C   UNL     1      49.021   8.182  19.085  0.00  0.00    +0.000 A 
ATOM      9  N   UNL     1      48.997   8.484  20.409  0.00  0.00    +0.000 NA
ATOM     10  C   UNL     1      48.241   7.706  21.116  0.00  0.00    +0.000 A 
ATOM     11  N   UNL     1      47.469   6.689  20.612  0.00  0.00    +0.000 N 
ATOM     12  C   UNL     1      47.443   6.366  19.278  0.00  0.00    +0.000 A 
ATOM     13  O   UNL     1      46.673   5.524  18.828  0.00  0.00    +0.000 OA
ATOM     14  C   UNL     1      48.382   7.122  18.479  0.00  0.00    +0.000 A 
ATOM     15  H   UNL     1      46.825   6.181  21.203  0.00  0.00    +0.000 HD
ENDBRANCH   2   5
BRANCH   3  16
ATOM     16  C   UNL     1      47.166   4.254  15.223  0.00  0.00    +0.000 C 
BRANCH  16  17
ATOM     17  C   UNL     1      46.492   4.393  13.874  0.00  0.00    +0.000 A 
ATOM     18  C   UNL     1      46.413   5.637  13.255  0.00  0.00    +0.000 A 
ATOM     19  C   UNL     1      45.783   5.742  12.012  0.00  0.00    +0.000 A 
ATOM     20  C   UNL     1      45.259   4.606  11.410  0.00  0.00    +0.000 A 
ATOM     21  C   UNL     1      45.443   3.395  12.063  0.00  0.00    +0.000 A 
ATOM     22  N   UNL     1      46.044   3.260  13.275  0.00  0.00    +0.000 NA
BRANCH  20  23
ATOM     23  O   UNL     1      44.609   4.570  10.208  0.00  0.00    +0.000 OA
BRANCH  23  24
ATOM     24  C   UNL     1      44.373   3.256   9.680  0.00  0.00    +0.000 C 
BRANCH  24  25
ATOM     25  C   UNL     1      45.393   2.928   8.613  0.00  0.00    +0.000 A 
ATOM     26  N   UNL     1      45.814   3.922   7.804  0.00  0.00    +0.000 NA
ATOM     27  C   UNL     1      46.736   3.592   6.880  0.00  0.00    +0.000 A 
ATOM     28  C   UNL     1      47.255   2.325   6.736  0.00  0.00    +0.000 A 
ATOM     29  C   UNL     1      46.766   1.384   7.614  0.00  0.00    +0.000 A 
ATOM     30  N   UNL     1      45.845   1.655   8.557  0.00  0.00    +0.000 NA
ENDBRANCH  24  25
ENDBRANCH  23  24
ENDBRANCH  20  23
ENDBRANCH  16  17
ENDBRANCH   3  16
TORSDOF 6
ENDMDL
MODEL 2
REMARK VINA RESULT:    -7.651      2.365      2.956
REMARK INTER + INTRA:         -11.184
REMARK INTER:                 -10.374
REMARK INTRA:                  -0.810
REMARK UNBOUND:                -0.849
REMARK  Name = 
REMARK  6 active torsions:
REMARK  status: ('A' for Active; 'I' for Inactive)
REMARK    1  A    between atoms: C_2  and  C_19
REMARK    2  A    between atoms: N_3  and  C_4
REMARK    3  A    between atoms: C_4  and  C_5
REMARK    4  A    between atoms: C_8  and  O_9
REMARK    5  A    between atoms: O_9  and  C_10
REMARK    6  A    between atoms: C_10  and  C_11
REMARK                            x       y       z     vdW  Elec       q    Type
REMARK                         _______ _______ _______ _____ _____    ______ ____
ROOT
ATOM      1  O   UNL     1      48.416   8.482  16.217  0.00  0.00    +0.000 OA
ATOM      2  C   UNL     1      48.652   7.303  15.979  0.00  0.00    +0.000 C 
ATOM      3  N   UNL     1      48.213   6.636  14.859  0.00  0.00    +0.000 N 
ATOM      4  H   UNL     1      48.637   5.746  14.637  0.00  0.00    +0.000 HD
ENDROOT
BRANCH   2   5
ATOM      5  C   UNL     1      49.610   6.512  16.742  0.00  0.00    +0.000 A 
ATOM      6  C   UNL     1      50.854   6.998  17.102  0.00  0.00    +0.000 A 
ATOM      7  S   UNL     1      51.937   5.732  17.515  0.00  0.00    +0.000 S 
ATOM      8  C   UNL     1      50.716   4.552  17.342  0.00  0.00    +0.000 A 
ATOM      9  N   UNL     1      50.971   3.219  17.410  0.00  0.00    +0.000 NA
ATOM     10  C   UNL     1      49.919   2.473  17.302  0.00  0.00    +0.000 A 
ATOM     11  N   UNL     1      48.633   2.938  17.184  0.00  0.00    +0.000 N 
ATOM     12  C   UNL     1      48.327   4.276  17.136  0.00  0.00    +0.000 A 
ATOM     13  O   UNL     1      47.168   4.678  17.134  0.00  0.00    +0.000 OA
ATOM     14  C   UNL     1      49.489   5.136  17.113  0.00  0.00    +0.000 A 
ATOM     15  H   UNL     1      47.845   2.305  17.203  0.00  0.00    +0.000 HD
ENDBRANCH   2   5
BRANCH   3  16
ATOM     16  C   UNL     1      47.677   7.331  13.713  0.00  0.00    +0.000 C 
BRANCH  16  17
ATOM     17  C   UNL     1      46.807   6.401  12.892  0.00  0.00    +0.000 A 
ATOM     18  C   UNL     1      46.406   6.767  11.611  0.00  0.00    +0.000 A 
ATOM     19  C   UNL     1      45.600   5.895  10.874  0.00  0.00    +0.000 A 
ATOM     20  C   UNL     1      45.226   4.676  11.423  0.00  0.00    +0.000 A 
ATOM     21  C   UNL     1      45.729   4.360  12.679  0.00  0.00    +0.000 A 
ATOM     22  N   UNL     1      46.507   5.189  13.424  0.00  0.00    +0.000 NA
BRANCH  20  23
ATOM     23  O   UNL     1      44.434   3.740  10.820  0.00  0.00    +0.000 OA
BRANCH  23  24
ATOM     24  C   UNL     1      44.191   3.955   9.421  0.00  0.00    +0.000 C 
BRANCH  24  25
ATOM     25  C   UNL     1      45.249   3.265   8.591  0.00  0.00    +0.000 A 
ATOM     26  N   UNL     1      45.460   1.947   8.791  0.00  0.00    +0.000 NA
ATOM     27  C   UNL     1      46.398   1.369   8.018  0.00  0.00    +0.000 A 
ATOM     28  C   UNL     1      47.122   2.041   7.061  0.00  0.00    +0.000 A 
ATOM     29  C   UNL     1      46.828   3.379   6.930  0.00  0.00    +0.000 A 
ATOM     30  N   UNL     1      45.902   4.012   7.673  0.00  0.00    +0.000 NA
ENDBRANCH  24  25
ENDBRANCH  23  24
ENDBRANCH  20  23
ENDBRANCH  16  17
ENDBRANCH   3  16
TORSDOF 6
ENDMDL
MODEL 3
REMARK VINA RESULT:    -7.591      1.582      2.105
REMARK INTER + INTRA:         -11.102
REMARK INTER:                 -10.274
REMARK INTRA:                  -0.828
REMARK UNBOUND:                -0.849
REMARK  Name = 
REMARK  6 active torsions:
REMARK  status: ('A' for Active; 'I' for Inactive)
REMARK    1  A    between atoms: C_2  and  C_19
REMARK    2  A    between atoms: N_3  and  C_4
REMARK    3  A    between atoms: C_4  and  C_5
REMARK    4  A    between atoms: C_8  and  O_9
REMARK    5  A    between atoms: O_9  and  C_10
REMARK    6  A    between atoms: C_10  and  C_11
REMARK                            x       y       z     vdW  Elec       q    Type
REMARK                         _______ _______ _______ _____ _____    ______ ____
ROOT
ATOM      1  O   UNL     1      49.709   4.409  16.698  0.00  0.00    +0.000 OA
ATOM      2  C   UNL     1      48.976   5.391  16.734  0.00  0.00    +0.000 C 
ATOM      3  N   UNL     1      47.782   5.490  16.059  0.00  0.00    +0.000 N 
ATOM      4  H   UNL     1      47.146   6.230  16.322  0.00  0.00    +0.000 HD
ENDROOT
BRANCH   2   5
ATOM      5  C   UNL     1      49.165   6.494  17.669  0.00  0.00    +0.000 A 
ATOM      6  C   UNL     1      49.525   6.295  18.990  0.00  0.00    +0.000 A 
ATOM      7  S   UNL     1      49.177   7.668  19.959  0.00  0.00    +0.000 S 
ATOM      8  C   UNL     1      48.670   8.570  18.601  0.00  0.00    +0.000 A 
ATOM      9  N   UNL     1      48.103   9.800  18.710  0.00  0.00    +0.000 NA
ATOM     10  C   UNL     1      47.823  10.356  17.575  0.00  0.00    +0.000 A 
ATOM     11  N   UNL     1      48.106   9.818  16.344  0.00  0.00    +0.000 N 
ATOM     12  C   UNL     1      48.701   8.589  16.188  0.00  0.00    +0.000 A 
ATOM     13  O   UNL     1      49.040   8.167  15.088  0.00  0.00    +0.000 OA
ATOM     14  C   UNL     1      48.899   7.878  17.431  0.00  0.00    +0.000 A 
ATOM     15  H   UNL     1      47.952  10.345  15.495  0.00  0.00    +0.000 HD
ENDBRANCH   2   5
BRANCH   3  16
ATOM     16  C   UNL     1      47.133   4.341  15.474  0.00  0.00    +0.000 C 
BRANCH  16  17
ATOM     17  C   UNL     1      46.548   4.697  14.123  0.00  0.00    +0.000 A 
ATOM     18  C   UNL     1      47.051   5.778  13.405  0.00  0.00    +0.000 A 
ATOM     19  C   UNL     1      46.492   6.090  12.162  0.00  0.00    +0.000 A 
ATOM     20  C   UNL     1      45.458   5.312  11.659  0.00  0.00    +0.000 A 
ATOM     21  C   UNL     1      45.066   4.211  12.408  0.00  0.00    +0.000 A 
ATOM     22  N   UNL     1      45.582   3.885  13.623  0.00  0.00    +0.000 NA
BRANCH  20  23
ATOM     23  O   UNL     1      44.817   5.513  10.469  0.00  0.00    +0.000 OA
BRANCH  23  24
ATOM     24  C   UNL     1      44.156   4.359   9.928  0.00  0.00    +0.000 C 
BRANCH  24  25
ATOM     25  C   UNL     1      45.068   3.634   8.964  0.00  0.00    +0.000 A 
ATOM     26  N   UNL     1      45.712   4.359   8.026  0.00  0.00    +0.000 NA
ATOM     27  C   UNL     1      46.528   3.677   7.201  0.00  0.00    +0.000 A 
ATOM     28  C   UNL     1      46.731   2.318   7.276  0.00  0.00    +0.000 A 
ATOM     29  C   UNL     1      46.034   1.672   8.272  0.00  0.00    +0.000 A 
ATOM     30  N   UNL     1      45.204   2.300   9.126  0.00  0.00    +0.000 NA
ENDBRANCH  24  25
ENDBRANCH  23  24
ENDBRANCH  20  23
ENDBRANCH  16  17
ENDBRANCH   3  16
TORSDOF 6
ENDMDL
MODEL 4
REMARK VINA RESULT:    -7.568      2.461      3.176
REMARK INTER + INTRA:         -11.072
REMARK INTER:                 -10.134
REMARK INTRA:                  -0.937
REMARK UNBOUND:                -0.849
REMARK  Name = 
REMARK  6 active torsions:
REMARK  status: ('A' for Active; 'I' for Inactive)
REMARK    1  A    between atoms: C_2  and  C_19
REMARK    2  A    between atoms: N_3  and  C_4
REMARK    3  A    between atoms: C_4  and  C_5
REMARK    4  A    between atoms: C_8  and  O_9
REMARK    5  A    between atoms: O_9  and  C_10
REMARK    6  A    between atoms: C_10  and  C_11
REMARK                            x       y       z     vdW  Elec       q    Type
REMARK                         _______ _______ _______ _____ _____    ______ ____
ROOT
ATOM      1  O   UNL     1      46.646   3.056  17.379  0.00  0.00    +0.000 OA
ATOM      2  C   UNL     1      47.495   3.260  16.519  0.00  0.00    +0.000 C 
ATOM      3  N   UNL     1      47.240   3.854  15.305  0.00  0.00    +0.000 N 
ATOM      4  H   UNL     1      48.026   4.183  14.760  0.00  0.00    +0.000 HD
ENDROOT
BRANCH   2   5
ATOM      5  C   UNL     1      48.925   3.101  16.756  0.00  0.00    +0.000 A 
ATOM      6  C   UNL     1      49.576   1.892  16.583  0.00  0.00    +0.000 A 
ATOM      7  S   UNL     1      51.083   1.857  17.404  0.00  0.00    +0.000 S 
ATOM      8  C   UNL     1      50.928   3.489  17.878  0.00  0.00    +0.000 A 
ATOM      9  N   UNL     1      51.799   4.089  18.731  0.00  0.00    +0.000 NA
ATOM     10  C   UNL     1      51.553   5.343  18.944  0.00  0.00    +0.000 A 
ATOM     11  N   UNL     1      50.552   6.062  18.341  0.00  0.00    +0.000 N 
ATOM     12  C   UNL     1      49.665   5.502  17.453  0.00  0.00    +0.000 A 
ATOM     13  O   UNL     1      48.841   6.177  16.845  0.00  0.00    +0.000 OA
ATOM     14  C   UNL     1      49.821   4.073  17.300  0.00  0.00    +0.000 A 
ATOM     15  H   UNL     1      50.473   7.061  18.473  0.00  0.00    +0.000 HD
ENDBRANCH   2   5
BRANCH   3  16
ATOM     16  C   UNL     1      46.008   4.557  15.037  0.00  0.00    +0.000 C 
BRANCH  16  17
ATOM     17  C   UNL     1      45.766   4.649  13.545  0.00  0.00    +0.000 A 
ATOM     18  C   UNL     1      46.322   5.690  12.808  0.00  0.00    +0.000 A 
ATOM     19  C   UNL     1      46.082   5.756  11.433  0.00  0.00    +0.000 A 
ATOM     20  C   UNL     1      45.308   4.778  10.823  0.00  0.00    +0.000 A 
ATOM     21  C   UNL     1      44.851   3.737  11.620  0.00  0.00    +0.000 A 
ATOM     22  N   UNL     1      45.061   3.647  12.960  0.00  0.00    +0.000 NA
BRANCH  20  23
ATOM     23  O   UNL     1      44.986   4.730   9.496  0.00  0.00    +0.000 OA
BRANCH  23  24
ATOM     24  C   UNL     1      44.552   3.448   9.017  0.00  0.00    +0.000 C 
BRANCH  24  25
ATOM     25  C   UNL     1      45.611   2.833   8.130  0.00  0.00    +0.000 A 
ATOM     26  N   UNL     1      46.015   1.574   8.397  0.00  0.00    +0.000 NA
ATOM     27  C   UNL     1      46.945   1.058   7.572  0.00  0.00    +0.000 A 
ATOM     28  C   UNL     1      47.477   1.735   6.499  0.00  0.00    +0.000 A 
ATOM     29  C   UNL     1      46.993   3.010   6.307  0.00  0.00    +0.000 A 
ATOM     30  N   UNL     1      46.065   3.578   7.099  0.00  0.00    +0.000 NA
ENDBRANCH  24  25
ENDBRANCH  23  24
ENDBRANCH  20  23
ENDBRANCH  16  17
ENDBRANCH   3  16
TORSDOF 6
ENDMDL
MODEL 5
REMARK VINA RESULT:    -7.416      1.774      2.439
REMARK INTER + INTRA:         -10.866
REMARK INTER:                 -10.027
REMARK INTRA:                  -0.839
REMARK UNBOUND:                -0.849
REMARK  Name = 
REMARK  6 active torsions:
REMARK  status: ('A' for Active; 'I' for Inactive)
REMARK    1  A    between atoms: C_2  and  C_19
REMARK    2  A    between atoms: N_3  and  C_4
REMARK    3  A    between atoms: C_4  and  C_5
REMARK    4  A    between atoms: C_8  and  O_9
REMARK    5  A    between atoms: O_9  and  C_10
REMARK    6  A    between atoms: C_10  and  C_11
REMARK                            x       y       z     vdW  Elec       q    Type
REMARK                         _______ _______ _______ _____ _____    ______ ____
ROOT
ATOM      1  O   UNL     1      50.374   6.621  15.541  0.00  0.00    +0.000 OA
ATOM      2  C   UNL     1      49.234   7.002  15.782  0.00  0.00    +0.000 C 
ATOM      3  N   UNL     1      48.317   7.358  14.820  0.00  0.00    +0.000 N 
ATOM      4  H   UNL     1      47.348   7.441  15.093  0.00  0.00    +0.000 HD
ENDROOT
BRANCH   2   5
ATOM      5  C   UNL     1      48.628   6.918  17.105  0.00  0.00    +0.000 A 
ATOM      6  C   UNL     1      48.177   8.034  17.787  0.00  0.00    +0.000 A 
ATOM      7  S   UNL     1      48.002   7.726  19.467  0.00  0.00    +0.000 S 
ATOM      8  C   UNL     1      48.399   6.079  19.265  0.00  0.00    +0.000 A 
ATOM      9  N   UNL     1      48.578   5.235  20.315  0.00  0.00    +0.000 NA
ATOM     10  C   UNL     1      48.829   4.012  19.975  0.00  0.00    +0.000 A 
ATOM     11  N   UNL     1      48.864   3.545  18.684  0.00  0.00    +0.000 N 
ATOM     12  C   UNL     1      48.664   4.357  17.594  0.00  0.00    +0.000 A 
ATOM     13  O   UNL     1      48.596   3.909  16.454  0.00  0.00    +0.000 OA
ATOM     14  C   UNL     1      48.520   5.756  17.931  0.00  0.00    +0.000 A 
ATOM     15  H   UNL     1      48.968   2.559  18.488  0.00  0.00    +0.000 HD
ENDBRANCH   2   5
BRANCH   3  16
ATOM     16  C   UNL     1      48.509   7.045  13.424  0.00  0.00    +0.000 C 
BRANCH  16  17
ATOM     17  C   UNL     1      47.351   6.218  12.905  0.00  0.00    +0.000 A 
ATOM     18  C   UNL     1      47.034   5.003  13.506  0.00  0.00    +0.000 A 
ATOM     19  C   UNL     1      45.963   4.255  13.008  0.00  0.00    +0.000 A 
ATOM     20  C   UNL     1      45.227   4.740  11.935  0.00  0.00    +0.000 A 
ATOM     21  C   UNL     1      45.567   5.992  11.441  0.00  0.00    +0.000 A 
ATOM     22  N   UNL     1      46.606   6.741  11.898  0.00  0.00    +0.000 NA
BRANCH  20  23
ATOM     23  O   UNL     1      44.170   4.107  11.345  0.00  0.00    +0.000 OA
BRANCH  23  24
ATOM     24  C   UNL     1      43.957   4.431   9.963  0.00  0.00    +0.000 C 
BRANCH  24  25
ATOM     25  C   UNL     1      44.906   3.646   9.086  0.00  0.00    +0.000 A 
ATOM     26  N   UNL     1      44.999   2.314   9.278  0.00  0.00    +0.000 NA
ATOM     27  C   UNL     1      45.842   1.651   8.465  0.00  0.00    +0.000 A 
ATOM     28  C   UNL     1      46.582   2.253   7.473  0.00  0.00    +0.000 A 
ATOM     29  C   UNL     1      46.410   3.614   7.354  0.00  0.00    +0.000 A 
ATOM     30  N   UNL     1      45.583   4.330   8.137  0.00  0.00    +0.000 NA
ENDBRANCH  24  25
ENDBRANCH  23  24
ENDBRANCH  20  23
ENDBRANCH  16  17
ENDBRANCH   3  16
TORSDOF 6
ENDMDL
MODEL 6
REMARK VINA RESULT:    -7.262      1.822      2.433
REMARK INTER + INTRA:         -10.658
REMARK INTER:                  -9.890
REMARK INTRA:                  -0.769
REMARK UNBOUND:                -0.849
REMARK  Name = 
REMARK  6 active torsions:
REMARK  status: ('A' for Active; 'I' for Inactive)
REMARK    1  A    between atoms: C_2  and  C_19
REMARK    2  A    between atoms: N_3  and  C_4
REMARK    3  A    between atoms: C_4  and  C_5
REMARK    4  A    between atoms: C_8  and  O_9
REMARK    5  A    between atoms: O_9  and  C_10
REMARK    6  A    between atoms: C_10  and  C_11
REMARK                            x       y       z     vdW  Elec       q    Type
REMARK                         _______ _______ _______ _____ _____    ______ ____
ROOT
ATOM      1  O   UNL     1      50.167   7.117  15.173  0.00  0.00    +0.000 OA
ATOM      2  C   UNL     1      49.066   6.788  15.600  0.00  0.00    +0.000 C 
ATOM      3  N   UNL     1      47.892   6.913  14.893  0.00  0.00    +0.000 N 
ATOM      4  H   UNL     1      47.078   6.417  15.228  0.00  0.00    +0.000 HD
ENDROOT
BRANCH   2   5
ATOM      5  C   UNL     1      48.882   6.020  16.825  0.00  0.00    +0.000 A 
ATOM      6  C   UNL     1      48.708   4.648  16.822  0.00  0.00    +0.000 A 
ATOM      7  S   UNL     1      48.015   4.090  18.290  0.00  0.00    +0.000 S 
ATOM      8  C   UNL     1      48.067   5.652  18.976  0.00  0.00    +0.000 A 
ATOM      9  N   UNL     1      47.501   5.944  20.176  0.00  0.00    +0.000 NA
ATOM     10  C   UNL     1      47.677   7.167  20.561  0.00  0.00    +0.000 A 
ATOM     11  N   UNL     1      48.411   8.108  19.882  0.00  0.00    +0.000 N 
ATOM     12  C   UNL     1      49.020   7.850  18.678  0.00  0.00    +0.000 A 
ATOM     13  O   UNL     1      49.755   8.666  18.134  0.00  0.00    +0.000 OA
ATOM     14  C   UNL     1      48.727   6.536  18.150  0.00  0.00    +0.000 A 
ATOM     15  H   UNL     1      48.593   9.017  20.283  0.00  0.00    +0.000 HD
ENDBRANCH   2   5
BRANCH   3  16
ATOM     16  C   UNL     1      47.876   7.174  13.473  0.00  0.00    +0.000 C 
BRANCH  16  17
ATOM     17  C   UNL     1      46.929   6.222  12.773  0.00  0.00    +0.000 A 
ATOM     18  C   UNL     1      46.497   5.065  13.415  0.00  0.00    +0.000 A 
ATOM     19  C   UNL     1      45.627   4.199  12.747  0.00  0.00    +0.000 A 
ATOM     20  C   UNL     1      45.196   4.512  11.464  0.00  0.00    +0.000 A 
ATOM     21  C   UNL     1      45.620   5.720  10.926  0.00  0.00    +0.000 A 
ATOM     22  N   UNL     1      46.471   6.580  11.546  0.00  0.00    +0.000 NA
BRANCH  20  23
ATOM     23  O   UNL     1      44.360   3.751  10.697  0.00  0.00    +0.000 OA
BRANCH  23  24
ATOM     24  C   UNL     1      44.299   4.117   9.311  0.00  0.00    +0.000 C 
BRANCH  24  25
ATOM     25  C   UNL     1      45.325   3.341   8.517  0.00  0.00    +0.000 A 
ATOM     26  N   UNL     1      45.465   2.023   8.769  0.00  0.00    +0.000 NA
ATOM     27  C   UNL     1      46.376   1.365   8.028  0.00  0.00    +0.000 A 
ATOM     28  C   UNL     1      47.140   1.961   7.050  0.00  0.00    +0.000 A 
ATOM     29  C   UNL     1      46.917   3.306   6.865  0.00  0.00    +0.000 A 
ATOM     30  N   UNL     1      46.021   4.016   7.575  0.00  0.00    +0.000 NA
ENDBRANCH  24  25
ENDBRANCH  23  24
ENDBRANCH  20  23
ENDBRANCH  16  17
ENDBRANCH   3  16
TORSDOF 6
ENDMDL
MODEL 7
REMARK VINA RESULT:    -7.196      5.058      8.921
REMARK INTER + INTRA:         -10.569
REMARK INTER:                  -9.880
REMARK INTRA:                  -0.688
REMARK UNBOUND:                -0.849
REMARK  Name = 
REMARK  6 active torsions:
REMARK  status: ('A' for Active; 'I' for Inactive)
REMARK    1  A    between atoms: C_2  and  C_19
REMARK    2  A    between atoms: N_3  and  C_4
REMARK    3  A    between atoms: C_4  and  C_5
REMARK    4  A    between atoms: C_8  and  O_9
REMARK    5  A    between atoms: O_9  and  C_10
REMARK    6  A    between atoms: C_10  and  C_11
REMARK                            x       y       z     vdW  Elec       q    Type
REMARK                         _______ _______ _______ _____ _____    ______ ____
ROOT
ATOM      1  O   UNL     1      48.631   6.426  14.158  0.00  0.00    +0.000 OA
ATOM      2  C   UNL     1      47.580   5.796  14.120  0.00  0.00    +0.000 C 
ATOM      3  N   UNL     1      47.085   5.053  15.166  0.00  0.00    +0.000 N 
ATOM      4  H   UNL     1      46.119   4.757  15.126  0.00  0.00    +0.000 HD
ENDROOT
BRANCH   2   5
ATOM      5  C   UNL     1      46.609   5.928  13.040  0.00  0.00    +0.000 A 
ATOM      6  C   UNL     1      46.399   7.121  12.372  0.00  0.00    +0.000 A 
ATOM      7  S   UNL     1      44.895   7.132  11.546  0.00  0.00    +0.000 S 
ATOM      8  C   UNL     1      44.585   5.507  11.968  0.00  0.00    +0.000 A 
ATOM      9  N   UNL     1      43.399   4.897  11.708  0.00  0.00    +0.000 NA
ATOM     10  C   UNL     1      43.358   3.651  12.057  0.00  0.00    +0.000 A 
ATOM     11  N   UNL     1      44.409   2.947  12.591  0.00  0.00    +0.000 N 
ATOM     12  C   UNL     1      45.632   3.518  12.846  0.00  0.00    +0.000 A 
ATOM     13  O   UNL     1      46.591   2.855  13.227  0.00  0.00    +0.000 OA
ATOM     14  C   UNL     1      45.671   4.942  12.601  0.00  0.00    +0.000 A 
ATOM     15  H   UNL     1      44.344   1.952  12.750  0.00  0.00    +0.000 HD
ENDBRANCH   2   5
BRANCH   3  16
ATOM     16  C   UNL     1      47.605   5.173  16.507  0.00  0.00    +0.000 C 
BRANCH  16  17
ATOM     17  C   UNL     1      48.639   4.097  16.770  0.00  0.00    +0.000 A 
ATOM     18  C   UNL     1      49.760   4.378  17.544  0.00  0.00    +0.000 A 
ATOM     19  C   UNL     1      50.702   3.370  17.770  0.00  0.00    +0.000 A 
ATOM     20  C   UNL     1      50.498   2.106  17.233  0.00  0.00    +0.000 A 
ATOM     21  C   UNL     1      49.318   1.893  16.534  0.00  0.00    +0.000 A 
ATOM     22  N   UNL     1      48.386   2.852  16.290  0.00  0.00    +0.000 NA
BRANCH  20  23
ATOM     23  O   UNL     1      51.341   1.039  17.366  0.00  0.00    +0.000 OA
BRANCH  23  24
ATOM     24  C   UNL     1      52.679   1.363  17.773  0.00  0.00    +0.000 C 
BRANCH  24  25
ATOM     25  C   UNL     1      53.565   0.141  17.688  0.00  0.00    +0.000 A 
ATOM     26  N   UNL     1      54.280  -0.052  16.560  0.00  0.00    +0.000 NA
ATOM     27  C   UNL     1      55.070  -1.142  16.533  0.00  0.00    +0.000 A 
ATOM     28  C   UNL     1      55.180  -2.033  17.576  0.00  0.00    +0.000 A 
ATOM     29  C   UNL     1      54.416  -1.743  18.684  0.00  0.00    +0.000 A 
ATOM     30  N   UNL     1      53.608  -0.669  18.768  0.00  0.00    +0.000 NA
ENDBRANCH  24  25
ENDBRANCH  23  24
ENDBRANCH  20  23
ENDBRANCH  16  17
ENDBRANCH   3  16
TORSDOF 6
ENDMDL
MODEL 8
REMARK VINA RESULT:    -7.104      1.713      2.832
REMARK INTER + INTRA:         -10.445
REMARK INTER:                  -9.623
REMARK INTRA:                  -0.822
REMARK UNBOUND:                -0.849
REMARK  Name = 
REMARK  6 active torsions:
REMARK  status: ('A' for Active; 'I' for Inactive)
REMARK    1  A    between atoms: C_2  and  C_19
REMARK    2  A    between atoms: N_3  and  C_4
REMARK    3  A    between atoms: C_4  and  C_5
REMARK    4  A    between atoms: C_8  and  O_9
REMARK    5  A    between atoms: O_9  and  C_10
REMARK    6  A    between atoms: C_10  and  C_11
REMARK                            x       y       z     vdW  Elec       q    Type
REMARK                         _______ _______ _______ _____ _____    ______ ____
ROOT
ATOM      1  O   UNL     1      47.209   5.415  18.362  0.00  0.00    +0.000 OA
ATOM      2  C   UNL     1      48.003   5.757  17.493  0.00  0.00    +0.000 C 
ATOM      3  N   UNL     1      48.110   5.154  16.261  0.00  0.00    +0.000 N 
ATOM      4  H   UNL     1      48.624   5.636  15.537  0.00  0.00    +0.000 HD
ENDROOT
BRANCH   2   5
ATOM      5  C   UNL     1      48.787   6.985  17.565  0.00  0.00    +0.000 A 
ATOM      6  C   UNL     1      48.281   8.158  18.096  0.00  0.00    +0.000 A 
ATOM      7  S   UNL     1      49.189   9.526  17.597  0.00  0.00    +0.000 S 
ATOM      8  C   UNL     1      50.327   8.547  16.785  0.00  0.00    +0.000 A 
ATOM      9  N   UNL     1      51.315   9.063  16.008  0.00  0.00    +0.000 NA
ATOM     10  C   UNL     1      52.113   8.176  15.506  0.00  0.00    +0.000 A 
ATOM     11  N   UNL     1      52.045   6.828  15.754  0.00  0.00    +0.000 N 
ATOM     12  C   UNL     1      51.080   6.265  16.553  0.00  0.00    +0.000 A 
ATOM     13  O   UNL     1      51.092   5.075  16.847  0.00  0.00    +0.000 OA
ATOM     14  C   UNL     1      50.087   7.210  17.016  0.00  0.00    +0.000 A 
ATOM     15  H   UNL     1      52.757   6.197  15.411  0.00  0.00    +0.000 HD
ENDBRANCH   2   5
BRANCH   3  16
ATOM     16  C   UNL     1      47.104   4.247  15.761  0.00  0.00    +0.000 C 
BRANCH  16  17
ATOM     17  C   UNL     1      46.668   4.659  14.369  0.00  0.00    +0.000 A 
ATOM     18  C   UNL     1      47.307   5.709  13.717  0.00  0.00    +0.000 A 
ATOM     19  C   UNL     1      46.884   6.073  12.436  0.00  0.00    +0.000 A 
ATOM     20  C   UNL     1      45.848   5.375  11.830  0.00  0.00    +0.000 A 
ATOM     21  C   UNL     1      45.315   4.297  12.522  0.00  0.00    +0.000 A 
ATOM     22  N   UNL     1      45.698   3.921  13.772  0.00  0.00    +0.000 NA
BRANCH  20  23
ATOM     23  O   UNL     1      45.332   5.634  10.592  0.00  0.00    +0.000 OA
BRANCH  23  24
ATOM     24  C   UNL     1      44.511   4.593  10.041  0.00  0.00    +0.000 C 
BRANCH  24  25
ATOM     25  C   UNL     1      45.302   3.770   9.050  0.00  0.00    +0.000 A 
ATOM     26  N   UNL     1      45.364   2.434   9.233  0.00  0.00    +0.000 NA
ATOM     27  C   UNL     1      46.062   1.738   8.317  0.00  0.00    +0.000 A 
ATOM     28  C   UNL     1      46.689   2.310   7.234  0.00  0.00    +0.000 A 
ATOM     29  C   UNL     1      46.560   3.677   7.133  0.00  0.00    +0.000 A 
ATOM     30  N   UNL     1      45.876   4.426   8.017  0.00  0.00    +0.000 NA
ENDBRANCH  24  25
ENDBRANCH  23  24
ENDBRANCH  20  23
ENDBRANCH  16  17
ENDBRANCH   3  16
TORSDOF 6
ENDMDL
MODEL 9
REMARK VINA RESULT:    -6.633      2.388      3.037
REMARK INTER + INTRA:          -9.809
REMARK INTER:                  -9.093
REMARK INTRA:                  -0.715
REMARK UNBOUND:                -0.849
REMARK  Name = 
REMARK  6 active torsions:
REMARK  status: ('A' for Active; 'I' for Inactive)
REMARK    1  A    between atoms: C_2  and  C_19
REMARK    2  A    between atoms: N_3  and  C_4
REMARK    3  A    between atoms: C_4  and  C_5
REMARK    4  A    between atoms: C_8  and  O_9
REMARK    5  A    between atoms: O_9  and  C_10
REMARK    6  A    between atoms: C_10  and  C_11
REMARK                            x       y       z     vdW  Elec       q    Type
REMARK                         _______ _______ _______ _____ _____    ______ ____
ROOT
ATOM      1  O   UNL     1      48.675   8.844  12.979  0.00  0.00    +0.000 OA
ATOM      2  C   UNL     1      48.033   8.534  13.975  0.00  0.00    +0.000 C 
ATOM      3  N   UNL     1      46.659   8.537  14.043  0.00  0.00    +0.000 N 
ATOM      4  H   UNL     1      46.218   8.059  14.817  0.00  0.00    +0.000 HD
ENDROOT
BRANCH   2   5
ATOM      5  C   UNL     1      48.633   7.910  15.149  0.00  0.00    +0.000 A 
ATOM      6  C   UNL     1      48.774   6.539  15.271  0.00  0.00    +0.000 A 
ATOM      7  S   UNL     1      49.014   6.066  16.903  0.00  0.00    +0.000 S 
ATOM      8  C   UNL     1      49.060   7.689  17.428  0.00  0.00    +0.000 A 
ATOM      9  N   UNL     1      49.100   8.033  18.741  0.00  0.00    +0.000 NA
ATOM     10  C   UNL     1      49.177   9.308  18.953  0.00  0.00    +0.000 A 
ATOM     11  N   UNL     1      49.272  10.264  17.973  0.00  0.00    +0.000 N 
ATOM     12  C   UNL     1      49.261   9.960  16.633  0.00  0.00    +0.000 A 
ATOM     13  O   UNL     1      49.449  10.812  15.772  0.00  0.00    +0.000 OA
ATOM     14  C   UNL     1      49.034   8.559  16.358  0.00  0.00    +0.000 A 
ATOM     15  H   UNL     1      49.429  11.236  18.204  0.00  0.00    +0.000 HD
ENDBRANCH   2   5
BRANCH   3  16
ATOM     16  C   UNL     1      45.832   8.629  12.864  0.00  0.00    +0.000 C 
BRANCH  16  17
ATOM     17  C   UNL     1      45.502   7.245  12.343  0.00  0.00    +0.000 A 
ATOM     18  C   UNL     1      44.468   7.069  11.428  0.00  0.00    +0.000 A 
ATOM     19  C   UNL     1      44.179   5.783  10.965  0.00  0.00    +0.000 A 
ATOM     20  C   UNL     1      44.934   4.706  11.411  0.00  0.00    +0.000 A 
ATOM     21  C   UNL     1      45.991   4.980  12.269  0.00  0.00    +0.000 A 
ATOM     22  N   UNL     1      46.293   6.218  12.744  0.00  0.00    +0.000 NA
BRANCH  20  23
ATOM     23  O   UNL     1      44.750   3.401  11.050  0.00  0.00    +0.000 OA
BRANCH  23  24
ATOM     24  C   UNL     1      44.158   3.202   9.758  0.00  0.00    +0.000 C 
BRANCH  24  25
ATOM     25  C   UNL     1      45.230   2.954   8.721  0.00  0.00    +0.000 A 
ATOM     26  N   UNL     1      45.587   3.974   7.914  0.00  0.00    +0.000 NA
ATOM     27  C   UNL     1      46.558   3.716   7.019  0.00  0.00    +0.000 A 
ATOM     28  C   UNL     1      47.185   2.497   6.899  0.00  0.00    +0.000 A 
ATOM     29  C   UNL     1      46.753   1.524   7.773  0.00  0.00    +0.000 A 
ATOM     30  N   UNL     1      45.788   1.723   8.689  0.00  0.00    +0.000 NA
ENDBRANCH  24  25
ENDBRANCH  23  24
ENDBRANCH  20  23
ENDBRANCH  16  17
ENDBRANCH   3  16
TORSDOF 6
ENDMDL
