MODEL 1
REMARK VINA RESULT:    -7.902      0.000      0.000
REMARK INTER + INTRA:         -11.618
REMARK INTER:                 -10.673
REMARK INTRA:                  -0.944
REMARK UNBOUND:                -0.944
REMARK  Name = 
REMARK  6 active torsions:
REMARK  status: ('A' for Active; 'I' for Inactive)
REMARK    1  A    between atoms: C_2  and  C_3
REMARK    2  A    between atoms: C_7  and  C_8
REMARK    3  A    between atoms: C_8  and  C_9
REMARK    4  A    between atoms: C_12  and  C_13
REMARK    5  A    between atoms: C_13  and  N_14
REMARK    6  A    between atoms: C_15  and  C_17
REMARK                            x       y       z     vdW  Elec       q    Type
REMARK                         _______ _______ _______ _____ _____    ______ ____
ROOT
ATOM      1  C   UNL     1      46.831   7.874  13.572  0.00  0.00    +0.000 C 
ENDROOT
BRANCH   1   5
ATOM      2  C   UNL     1      44.887   4.989  10.993  0.00  0.00    +0.000 A 
ATOM      3  C   UNL     1      44.542   6.345  10.931  0.00  0.00    +0.000 A 
ATOM      4  C   UNL     1      45.149   7.275  11.781  0.00  0.00    +0.000 A 
ATOM      5  C   UNL     1      46.125   6.869  12.699  0.00  0.00    +0.000 A 
ATOM      6  C   UNL     1      46.428   5.506  12.802  0.00  0.00    +0.000 A 
ATOM      7  C   UNL     1      45.822   4.576  11.951  0.00  0.00    +0.000 A 
BRANCH   2   8
ATOM      8  C   UNL     1      44.280   3.996  10.028  0.00  0.00    +0.000 C 
BRANCH   8  13
ATOM      9  C   UNL     1      46.363   1.643   7.848  0.00  0.00    +0.000 A 
ATOM     10  C   UNL     1      46.991   2.544   6.984  0.00  0.00    +0.000 A 
ATOM     11  C   UNL     1      46.763   3.914   7.121  0.00  0.00    +0.000 A 
ATOM     12  C   UNL     1      45.897   4.384   8.114  0.00  0.00    +0.000 A 
ATOM     13  C   UNL     1      45.242   3.491   8.975  0.00  0.00    +0.000 A 
ATOM     14  C   UNL     1      45.496   2.116   8.840  0.00  0.00    +0.000 A 
BRANCH   9  16
ATOM     15  N   UNL     1      46.792  -0.905   7.603  0.00  0.00    +0.000 NA
ATOM     16  C   UNL     1      46.600   0.237   7.715  0.00  0.00    +0.000 C 
ENDBRANCH   9  16
ENDBRANCH   8  13
ENDBRANCH   2   8
ENDBRANCH   1   5
BRANCH   1  17
ATOM     17  N   UNL     1      47.456   7.242  14.704  0.00  0.00    +0.000 N 
ATOM     18  C   UNL     1      48.788   6.918  14.689  0.00  0.00    +0.000 C 
ATOM     19  O   UNL     1      49.515   7.185  13.735  0.00  0.00    +0.000 OA
ATOM     20  H   UNL     1      46.841   6.804  15.382  0.00  0.00    +0.000 HD
BRANCH  18  21
ATOM     21  C   UNL     1      49.319   6.298  15.907  0.00  0.00    +0.000 A 
ATOM     22  C   UNL     1      50.489   6.783  16.476  0.00  0.00    +0.000 A 
ATOM     23  S   UNL     1      50.914   6.003  17.933  0.00  0.00    +0.000 S 
ATOM     24  C   UNL     1      49.582   4.949  17.821  0.00  0.00    +0.000 A 
ATOM     25  N   UNL     1      49.361   3.998  18.767  0.00  0.00    +0.000 NA
ATOM     26  C   UNL     1      48.337   3.244  18.537  0.00  0.00    +0.000 A 
ATOM     27  N   UNL     1      47.514   3.358  17.446  0.00  0.00    +0.000 N 
ATOM     28  C   UNL     1      47.678   4.323  16.483  0.00  0.00    +0.000 A 
ATOM     29  O   UNL     1      46.900   4.424  15.541  0.00  0.00    +0.000 OA
ATOM     30  C   UNL     1      48.821   5.194  16.693  0.00  0.00    +0.000 A 
ATOM     31  H   UNL     1      46.728   2.737  17.323  0.00  0.00    +0.000 HD
ENDBRANCH  18  21
ENDBRANCH   1  17
TORSDOF 6
ENDMDL
MODEL 2
REMARK VINA RESULT:    -7.895      2.093      2.372
REMARK INTER + INTRA:         -11.608
REMARK INTER:                 -10.604
REMARK INTRA:                  -1.004
REMARK UNBOUND:                -0.944
REMARK  Name = 
REMARK  6 active torsions:
REMARK  status: ('A' for Active; 'I' for Inactive)
REMARK    1  A    between atoms: C_2  and  C_3
REMARK    2  A    between atoms: C_7  and  C_8
REMARK    3  A    between atoms: C_8  and  C_9
REMARK    4  A    between atoms: C_12  and  C_13
REMARK    5  A    between atoms: C_13  and  N_14
REMARK    6  A    between atoms: C_15  and  C_17
REMARK                            x       y       z     vdW  Elec       q    Type
REMARK                         _______ _______ _______ _____ _____    ______ ____
ROOT
ATOM      1  C   UNL     1      47.972   7.245  13.886  0.00  0.00    +0.000 C 
ENDROOT
BRANCH   1   5
ATOM      2  C   UNL     1      45.386   4.897  11.327  0.00  0.00    +0.000 A 
ATOM      3  C   UNL     1      45.700   6.222  10.998  0.00  0.00    +0.000 A 
ATOM      4  C   UNL     1      46.514   6.991  11.836  0.00  0.00    +0.000 A 
ATOM      5  C   UNL     1      47.042   6.445  13.011  0.00  0.00    +0.000 A 
ATOM      6  C   UNL     1      46.681   5.141  13.370  0.00  0.00    +0.000 A 
ATOM      7  C   UNL     1      45.868   4.371  12.532  0.00  0.00    +0.000 A 
BRANCH   2   8
ATOM      8  C   UNL     1      44.563   4.046  10.387  0.00  0.00    +0.000 C 
BRANCH   8  13
ATOM      9  C   UNL     1      46.279   1.718   7.884  0.00  0.00    +0.000 A 
ATOM     10  C   UNL     1      46.691   2.621   6.899  0.00  0.00    +0.000 A 
ATOM     11  C   UNL     1      46.438   3.984   7.055  0.00  0.00    +0.000 A 
ATOM     12  C   UNL     1      45.762   4.446   8.189  0.00  0.00    +0.000 A 
ATOM     13  C   UNL     1      45.323   3.551   9.176  0.00  0.00    +0.000 A 
ATOM     14  C   UNL     1      45.602   2.183   9.018  0.00  0.00    +0.000 A 
BRANCH   9  16
ATOM     15  N   UNL     1      46.755  -0.818   7.605  0.00  0.00    +0.000 NA
ATOM     16  C   UNL     1      46.544   0.319   7.731  0.00  0.00    +0.000 C 
ENDBRANCH   9  16
ENDBRANCH   8  13
ENDBRANCH   2   8
ENDBRANCH   1   5
BRANCH   1  17
ATOM     17  N   UNL     1      47.903   6.819  15.259  0.00  0.00    +0.000 N 
ATOM     18  C   UNL     1      49.036   6.490  15.957  0.00  0.00    +0.000 C 
ATOM     19  O   UNL     1      50.158   6.582  15.463  0.00  0.00    +0.000 OA
ATOM     20  H   UNL     1      46.998   6.510  15.599  0.00  0.00    +0.000 HD
BRANCH  18  21
ATOM     21  C   UNL     1      48.845   6.091  17.355  0.00  0.00    +0.000 A 
ATOM     22  C   UNL     1      49.143   4.794  17.751  0.00  0.00    +0.000 A 
ATOM     23  S   UNL     1      48.945   4.528  19.424  0.00  0.00    +0.000 S 
ATOM     24  C   UNL     1      48.396   6.120  19.668  0.00  0.00    +0.000 A 
ATOM     25  N   UNL     1      48.036   6.555  20.905  0.00  0.00    +0.000 NA
ATOM     26  C   UNL     1      47.603   7.772  20.938  0.00  0.00    +0.000 A 
ATOM     27  N   UNL     1      47.500   8.593  19.845  0.00  0.00    +0.000 N 
ATOM     28  C   UNL     1      47.881   8.210  18.583  0.00  0.00    +0.000 A 
ATOM     29  O   UNL     1      47.815   8.983  17.633  0.00  0.00    +0.000 OA
ATOM     30  C   UNL     1      48.371   6.846  18.491  0.00  0.00    +0.000 A 
ATOM     31  H   UNL     1      47.154   9.537  19.937  0.00  0.00    +0.000 HD
ENDBRANCH  18  21
ENDBRANCH   1  17
TORSDOF 6
ENDMDL
MODEL 3
REMARK VINA RESULT:    -7.768      1.187      1.920
REMARK INTER + INTRA:         -11.437
REMARK INTER:                 -10.254
REMARK INTRA:                  -1.183
REMARK UNBOUND:                -0.944
REMARK  Name = 
REMARK  6 active torsions:
REMARK  status: ('A' for Active; 'I' for Inactive)
REMARK    1  A    between atoms: C_2  and  C_3
REMARK    2  A    between atoms: C_7  and  C_8
REMARK    3  A    between atoms: C_8  and  C_9
REMARK    4  A    between atoms: C_12  and  C_13
REMARK    5  A    between atoms: C_13  and  N_14
REMARK    6  A    between atoms: C_15  and  C_17
REMARK                            x       y       z     vdW  Elec       q    Type
REMARK                         _______ _______ _______ _____ _____    ______ ____
ROOT
ATOM      1  C   UNL     1      47.458   8.338  13.701  0.00  0.00    +0.000 C 
ENDROOT
BRANCH   1   5
ATOM      2  C   UNL     1      44.729   6.159  11.141  0.00  0.00    +0.000 A 
ATOM      3  C   UNL     1      45.915   5.563  11.587  0.00  0.00    +0.000 A 
ATOM      4  C   UNL     1      46.812   6.273  12.393  0.00  0.00    +0.000 A 
ATOM      5  C   UNL     1      46.531   7.589  12.780  0.00  0.00    +0.000 A 
ATOM      6  C   UNL     1      45.374   8.205  12.287  0.00  0.00    +0.000 A 
ATOM      7  C   UNL     1      44.477   7.495  11.482  0.00  0.00    +0.000 A 
BRANCH   2   8
ATOM      8  C   UNL     1      43.730   5.369  10.328  0.00  0.00    +0.000 C 
BRANCH   8  13
ATOM      9  C   UNL     1      45.595   3.097   7.880  0.00  0.00    +0.000 A 
ATOM     10  C   UNL     1      45.425   1.845   8.476  0.00  0.00    +0.000 A 
ATOM     11  C   UNL     1      44.686   1.728   9.654  0.00  0.00    +0.000 A 
ATOM     12  C   UNL     1      44.126   2.866  10.245  0.00  0.00    +0.000 A 
ATOM     13  C   UNL     1      44.306   4.133   9.671  0.00  0.00    +0.000 A 
ATOM     14  C   UNL     1      45.035   4.235   8.474  0.00  0.00    +0.000 A 
BRANCH   9  16
ATOM     15  N   UNL     1      46.960   3.319   5.683  0.00  0.00    +0.000 NA
ATOM     16  C   UNL     1      46.346   3.220   6.666  0.00  0.00    +0.000 C 
ENDBRANCH   9  16
ENDBRANCH   8  13
ENDBRANCH   2   8
ENDBRANCH   1   5
BRANCH   1  17
ATOM     17  N   UNL     1      47.807   7.552  14.855  0.00  0.00    +0.000 N 
ATOM     18  C   UNL     1      49.074   7.055  15.018  0.00  0.00    +0.000 C 
ATOM     19  O   UNL     1      49.976   7.289  14.217  0.00  0.00    +0.000 OA
ATOM     20  H   UNL     1      47.040   7.153  15.387  0.00  0.00    +0.000 HD
BRANCH  18  21
ATOM     21  C   UNL     1      49.317   6.286  16.243  0.00  0.00    +0.000 A 
ATOM     22  C   UNL     1      50.334   6.667  17.108  0.00  0.00    +0.000 A 
ATOM     23  S   UNL     1      50.420   5.717  18.522  0.00  0.00    +0.000 S 
ATOM     24  C   UNL     1      49.140   4.724  17.998  0.00  0.00    +0.000 A 
ATOM     25  N   UNL     1      48.708   3.681  18.755  0.00  0.00    +0.000 NA
ATOM     26  C   UNL     1      47.757   2.991  18.220  0.00  0.00    +0.000 A 
ATOM     27  N   UNL     1      47.197   3.252  16.995  0.00  0.00    +0.000 N 
ATOM     28  C   UNL     1      47.577   4.312  16.210  0.00  0.00    +0.000 A 
ATOM     29  O   UNL     1      47.028   4.543  15.138  0.00  0.00    +0.000 OA
ATOM     30  C   UNL     1      48.650   5.118  16.766  0.00  0.00    +0.000 A 
ATOM     31  H   UNL     1      46.454   2.674  16.632  0.00  0.00    +0.000 HD
ENDBRANCH  18  21
ENDBRANCH   1  17
TORSDOF 6
ENDMDL
MODEL 4
REMARK VINA RESULT:    -7.565      2.394      3.976
REMARK INTER + INTRA:         -11.163
REMARK INTER:                  -9.856
REMARK INTRA:                  -1.307
REMARK UNBOUND:                -0.944
REMARK  Name = 
REMARK  6 active torsions:
REMARK  status: ('A' for Active; 'I' for Inactive)
REMARK    1  A    between atoms: C_2  and  C_3
REMARK    2  A    between atoms: C_7  and  C_8
REMARK    3  A    between atoms: C_8  and  C_9
REMARK    4  A    between atoms: C_12  and  C_13
REMARK    5  A    between atoms: C_13  and  N_14
REMARK    6  A    between atoms: C_15  and  C_17
REMARK                            x       y       z     vdW  Elec       q    Type
REMARK                         _______ _______ _______ _____ _____    ______ ____
ROOT
ATOM      1  C   UNL     1      47.381   5.387  14.832  0.00  0.00    +0.000 C 
ENDROOT
BRANCH   1   5
ATOM      2  C   UNL     1      45.091   4.439  11.281  0.00  0.00    +0.000 A 
ATOM      3  C   UNL     1      45.561   5.741  11.498  0.00  0.00    +0.000 A 
ATOM      4  C   UNL     1      46.279   6.056  12.657  0.00  0.00    +0.000 A 
ATOM      5  C   UNL     1      46.553   5.072  13.614  0.00  0.00    +0.000 A 
ATOM      6  C   UNL     1      46.033   3.785  13.425  0.00  0.00    +0.000 A 
ATOM      7  C   UNL     1      45.317   3.469  12.267  0.00  0.00    +0.000 A 
BRANCH   2   8
ATOM      8  C   UNL     1      44.375   4.084   9.998  0.00  0.00    +0.000 C 
BRANCH   8  13
ATOM      9  C   UNL     1      46.365   1.688   7.778  0.00  0.00    +0.000 A 
ATOM     10  C   UNL     1      46.933   2.569   6.854  0.00  0.00    +0.000 A 
ATOM     11  C   UNL     1      46.696   3.939   6.962  0.00  0.00    +0.000 A 
ATOM     12  C   UNL     1      45.881   4.431   7.987  0.00  0.00    +0.000 A 
ATOM     13  C   UNL     1      45.285   3.557   8.909  0.00  0.00    +0.000 A 
ATOM     14  C   UNL     1      45.547   2.181   8.802  0.00  0.00    +0.000 A 
BRANCH   9  16
ATOM     15  N   UNL     1      46.808  -0.863   7.588  0.00  0.00    +0.000 NA
ATOM     16  C   UNL     1      46.612   0.280   7.674  0.00  0.00    +0.000 C 
ENDBRANCH   9  16
ENDBRANCH   8  13
ENDBRANCH   2   8
ENDBRANCH   1   5
BRANCH   1  17
ATOM     17  N   UNL     1      48.120   6.611  14.667  0.00  0.00    +0.000 N 
ATOM     18  C   UNL     1      49.289   6.831  15.347  0.00  0.00    +0.000 C 
ATOM     19  O   UNL     1      49.781   5.986  16.092  0.00  0.00    +0.000 OA
ATOM     20  H   UNL     1      47.621   7.396  14.260  0.00  0.00    +0.000 HD
BRANCH  18  21
ATOM     21  C   UNL     1      49.965   8.105  15.082  0.00  0.00    +0.000 A 
ATOM     22  C   UNL     1      50.300   8.942  16.138  0.00  0.00    +0.000 A 
ATOM     23  S   UNL     1      51.157  10.337  15.658  0.00  0.00    +0.000 S 
ATOM     24  C   UNL     1      51.056   9.901  14.016  0.00  0.00    +0.000 A 
ATOM     25  N   UNL     1      51.593  10.689  13.048  0.00  0.00    +0.000 NA
ATOM     26  C   UNL     1      51.411  10.256  11.845  0.00  0.00    +0.000 A 
ATOM     27  N   UNL     1      50.742   9.103  11.523  0.00  0.00    +0.000 N 
ATOM     28  C   UNL     1      50.212   8.258  12.467  0.00  0.00    +0.000 A 
ATOM     29  O   UNL     1      49.655   7.213  12.149  0.00  0.00    +0.000 OA
ATOM     30  C   UNL     1      50.386   8.704  13.838  0.00  0.00    +0.000 A 
ATOM     31  H   UNL     1      50.633   8.818  10.561  0.00  0.00    +0.000 HD
ENDBRANCH  18  21
ENDBRANCH   1  17
TORSDOF 6
ENDMDL
MODEL 5
REMARK VINA RESULT:    -7.420      2.044      3.620
REMARK INTER + INTRA:         -10.967
REMARK INTER:                  -9.769
REMARK INTRA:                  -1.197
REMARK UNBOUND:                -0.944
REMARK  Name = 
REMARK  6 active torsions:
REMARK  status: ('A' for Active; 'I' for Inactive)
REMARK    1  A    between atoms: C_2  and  C_3
REMARK    2  A    between atoms: C_7  and  C_8
REMARK    3  A    between atoms: C_8  and  C_9
REMARK    4  A    between atoms: C_12  and  C_13
REMARK    5  A    between atoms: C_13  and  N_14
REMARK    6  A    between atoms: C_15  and  C_17
REMARK                            x       y       z     vdW  Elec       q    Type
REMARK                         _______ _______ _______ _____ _____    ______ ____
ROOT
ATOM      1  C   UNL     1      47.247   4.631  15.006  0.00  0.00    +0.000 C 
ENDROOT
BRANCH   1   5
ATOM      2  C   UNL     1      45.136   4.330  11.237  0.00  0.00    +0.000 A 
ATOM      3  C   UNL     1      45.578   5.573  11.708  0.00  0.00    +0.000 A 
ATOM      4  C   UNL     1      46.237   5.677  12.937  0.00  0.00    +0.000 A 
ATOM      5  C   UNL     1      46.480   4.537  13.712  0.00  0.00    +0.000 A 
ATOM      6  C   UNL     1      45.987   3.303  13.270  0.00  0.00    +0.000 A 
ATOM      7  C   UNL     1      45.330   3.198  12.040  0.00  0.00    +0.000 A 
BRANCH   2   8
ATOM      8  C   UNL     1      44.485   4.209   9.878  0.00  0.00    +0.000 C 
BRANCH   8  13
ATOM      9  C   UNL     1      46.422   1.711   7.724  0.00  0.00    +0.000 A 
ATOM     10  C   UNL     1      47.027   2.556   6.791  0.00  0.00    +0.000 A 
ATOM     11  C   UNL     1      46.832   3.935   6.871  0.00  0.00    +0.000 A 
ATOM     12  C   UNL     1      46.022   4.471   7.878  0.00  0.00    +0.000 A 
ATOM     13  C   UNL     1      45.389   3.634   8.809  0.00  0.00    +0.000 A 
ATOM     14  C   UNL     1      45.610   2.248   8.730  0.00  0.00    +0.000 A 
BRANCH   9  16
ATOM     15  N   UNL     1      46.787  -0.856   7.590  0.00  0.00    +0.000 NA
ATOM     16  C   UNL     1      46.626   0.295   7.650  0.00  0.00    +0.000 C 
ENDBRANCH   9  16
ENDBRANCH   8  13
ENDBRANCH   2   8
ENDBRANCH   1   5
BRANCH   1  17
ATOM     17  N   UNL     1      47.635   5.987  15.293  0.00  0.00    +0.000 N 
ATOM     18  C   UNL     1      48.762   6.263  16.023  0.00  0.00    +0.000 C 
ATOM     19  O   UNL     1      49.511   5.376  16.428  0.00  0.00    +0.000 OA
ATOM     20  H   UNL     1      46.922   6.701  15.183  0.00  0.00    +0.000 HD
BRANCH  18  21
ATOM     21  C   UNL     1      49.068   7.681  16.234  0.00  0.00    +0.000 A 
ATOM     22  C   UNL     1      49.124   8.191  17.524  0.00  0.00    +0.000 A 
ATOM     23  S   UNL     1      49.578   9.834  17.589  0.00  0.00    +0.000 S 
ATOM     24  C   UNL     1      49.656   9.937  15.892  0.00  0.00    +0.000 A 
ATOM     25  N   UNL     1      49.985  11.102  15.274  0.00  0.00    +0.000 NA
ATOM     26  C   UNL     1      49.969  11.047  13.984  0.00  0.00    +0.000 A 
ATOM     27  N   UNL     1      49.655   9.928  13.255  0.00  0.00    +0.000 N 
ATOM     28  C   UNL     1      49.348   8.721  13.833  0.00  0.00    +0.000 A 
ATOM     29  O   UNL     1      49.112   7.729  13.153  0.00  0.00    +0.000 OA
ATOM     30  C   UNL     1      49.347   8.732  15.285  0.00  0.00    +0.000 A 
ATOM     31  H   UNL     1      49.661   9.949  12.247  0.00  0.00    +0.000 HD
ENDBRANCH  18  21
ENDBRANCH   1  17
TORSDOF 6
ENDMDL
MODEL 6
REMARK VINA RESULT:    -7.173      2.997      8.520
REMARK INTER + INTRA:         -10.633
REMARK INTER:                  -9.357
REMARK INTRA:                  -1.276
REMARK UNBOUND:                -0.944
REMARK  Name = 
REMARK  6 active torsions:
REMARK  status: ('A' for Active; 'I' for Inactive)
REMARK    1  A    between atoms: C_2  and  C_3
REMARK    2  A    between atoms: C_7  and  C_8
REMARK    3  A    between atoms: C_8  and  C_9
REMARK    4  A    between atoms: C_12  and  C_13
REMARK    5  A    between atoms: C_13  and  N_14
REMARK    6  A    between atoms: C_15  and  C_17
REMARK                            x       y       z     vdW  Elec       q    Type
REMARK                         _______ _______ _______ _____ _____    ______ ____
ROOT
ATOM      1  C   UNL     1      47.664   7.881  11.759  0.00  0.00    +0.000 C 
ENDROOT
BRANCH   1   5
ATOM      2  C   UNL     1      49.316   8.132  15.754  0.00  0.00    +0.000 A 
ATOM      3  C   UNL     1      48.188   8.884  15.402  0.00  0.00    +0.000 A 
ATOM      4  C   UNL     1      47.668   8.825  14.105  0.00  0.00    +0.000 A 
ATOM      5  C   UNL     1      48.256   8.001  13.139  0.00  0.00    +0.000 A 
ATOM      6  C   UNL     1      49.418   7.293  13.473  0.00  0.00    +0.000 A 
ATOM      7  C   UNL     1      49.938   7.351  14.770  0.00  0.00    +0.000 A 
BRANCH   2   8
ATOM      8  C   UNL     1      49.836   8.143  17.173  0.00  0.00    +0.000 C 
BRANCH   8  13
ATOM      9  C   UNL     1      48.432   4.730  18.178  0.00  0.00    +0.000 A 
ATOM     10  C   UNL     1      49.223   4.417  19.287  0.00  0.00    +0.000 A 
ATOM     11  C   UNL     1      50.193   5.319  19.726  0.00  0.00    +0.000 A 
ATOM     12  C   UNL     1      50.382   6.530  19.051  0.00  0.00    +0.000 A 
ATOM     13  C   UNL     1      49.610   6.849  17.924  0.00  0.00    +0.000 A 
ATOM     14  C   UNL     1      48.623   5.942  17.503  0.00  0.00    +0.000 A 
BRANCH   9  16
ATOM     15  N   UNL     1      46.615   3.067  17.359  0.00  0.00    +0.000 NA
ATOM     16  C   UNL     1      47.430   3.811  17.729  0.00  0.00    +0.000 C 
ENDBRANCH   9  16
ENDBRANCH   8  13
ENDBRANCH   2   8
ENDBRANCH   1   5
BRANCH   1  17
ATOM     17  N   UNL     1      46.971   6.631  11.588  0.00  0.00    +0.000 N 
ATOM     18  C   UNL     1      45.615   6.541  11.766  0.00  0.00    +0.000 C 
ATOM     19  O   UNL     1      44.925   7.522  12.037  0.00  0.00    +0.000 OA
ATOM     20  H   UNL     1      47.536   5.787  11.606  0.00  0.00    +0.000 HD
BRANCH  18  21
ATOM     21  C   UNL     1      45.017   5.221  11.544  0.00  0.00    +0.000 A 
ATOM     22  C   UNL     1      44.335   4.589  12.575  0.00  0.00    +0.000 A 
ATOM     23  S   UNL     1      43.630   3.104  12.118  0.00  0.00    +0.000 S 
ATOM     24  C   UNL     1      44.264   3.225  10.543  0.00  0.00    +0.000 A 
ATOM     25  N   UNL     1      44.038   2.252   9.620  0.00  0.00    +0.000 NA
ATOM     26  C   UNL     1      44.609   2.455   8.480  0.00  0.00    +0.000 A 
ATOM     27  N   UNL     1      45.384   3.546   8.178  0.00  0.00    +0.000 N 
ATOM     28  C   UNL     1      45.613   4.569   9.065  0.00  0.00    +0.000 A 
ATOM     29  O   UNL     1      46.277   5.551   8.751  0.00  0.00    +0.000 OA
ATOM     30  C   UNL     1      44.996   4.385  10.367  0.00  0.00    +0.000 A 
ATOM     31  H   UNL     1      45.803   3.647   7.266  0.00  0.00    +0.000 HD
ENDBRANCH  18  21
ENDBRANCH   1  17
TORSDOF 6
ENDMDL
MODEL 7
REMARK VINA RESULT:    -7.079      5.110      7.753
REMARK INTER + INTRA:         -10.506
REMARK INTER:                  -9.275
REMARK INTRA:                  -1.231
REMARK UNBOUND:                -0.944
REMARK  Name = 
REMARK  6 active torsions:
REMARK  status: ('A' for Active; 'I' for Inactive)
REMARK    1  A    between atoms: C_2  and  C_3
REMARK    2  A    between atoms: C_7  and  C_8
REMARK    3  A    between atoms: C_8  and  C_9
REMARK    4  A    between atoms: C_12  and  C_13
REMARK    5  A    between atoms: C_13  and  N_14
REMARK    6  A    between atoms: C_15  and  C_17
REMARK                            x       y       z     vdW  Elec       q    Type
REMARK                         _______ _______ _______ _____ _____    ______ ____
ROOT
ATOM      1  C   UNL     1      46.346   8.129  12.206  0.00  0.00    +0.000 C 
ENDROOT
BRANCH   1   5
ATOM      2  C   UNL     1      50.610   8.683  11.697  0.00  0.00    +0.000 A 
ATOM      3  C   UNL     1      50.101   7.460  12.152  0.00  0.00    +0.000 A 
ATOM      4  C   UNL     1      48.726   7.286  12.342  0.00  0.00    +0.000 A 
ATOM      5  C   UNL     1      47.833   8.328  12.067  0.00  0.00    +0.000 A 
ATOM      6  C   UNL     1      48.346   9.568  11.668  0.00  0.00    +0.000 A 
ATOM      7  C   UNL     1      49.720   9.742  11.476  0.00  0.00    +0.000 A 
BRANCH   2   8
ATOM      8  C   UNL     1      52.088   8.848  11.426  0.00  0.00    +0.000 C 
BRANCH   8  13
ATOM      9  C   UNL     1      52.806   7.448   7.939  0.00  0.00    +0.000 A 
ATOM     10  C   UNL     1      53.101   8.613   7.225  0.00  0.00    +0.000 A 
ATOM     11  C   UNL     1      53.094   9.848   7.874  0.00  0.00    +0.000 A 
ATOM     12  C   UNL     1      52.781   9.922   9.236  0.00  0.00    +0.000 A 
ATOM     13  C   UNL     1      52.460   8.765   9.961  0.00  0.00    +0.000 A 
ATOM     14  C   UNL     1      52.490   7.525   9.301  0.00  0.00    +0.000 A 
BRANCH   9  16
ATOM     15  N   UNL     1      52.826   5.147   6.739  0.00  0.00    +0.000 NA
ATOM     16  C   UNL     1      52.820   6.178   7.278  0.00  0.00    +0.000 C 
ENDBRANCH   9  16
ENDBRANCH   8  13
ENDBRANCH   2   8
ENDBRANCH   1   5
BRANCH   1  17
ATOM     17  N   UNL     1      45.967   6.768  11.930  0.00  0.00    +0.000 N 
ATOM     18  C   UNL     1      44.693   6.454  11.532  0.00  0.00    +0.000 C 
ATOM     19  O   UNL     1      43.834   7.314  11.352  0.00  0.00    +0.000 OA
ATOM     20  H   UNL     1      46.571   6.040  12.298  0.00  0.00    +0.000 HD
BRANCH  18  21
ATOM     21  C   UNL     1      44.429   5.037  11.258  0.00  0.00    +0.000 A 
ATOM     22  C   UNL     1      43.688   4.286  12.160  0.00  0.00    +0.000 A 
ATOM     23  S   UNL     1      43.403   2.685  11.644  0.00  0.00    +0.000 S 
ATOM     24  C   UNL     1      44.313   2.923  10.225  0.00  0.00    +0.000 A 
ATOM     25  N   UNL     1      44.482   1.918   9.325  0.00  0.00    +0.000 NA
ATOM     26  C   UNL     1      45.225   2.226   8.315  0.00  0.00    +0.000 A 
ATOM     27  N   UNL     1      45.813   3.450   8.122  0.00  0.00    +0.000 N 
ATOM     28  C   UNL     1      45.644   4.505   8.986  0.00  0.00    +0.000 A 
ATOM     29  O   UNL     1      46.150   5.600   8.764  0.00  0.00    +0.000 OA
ATOM     30  C   UNL     1      44.820   4.208  10.144  0.00  0.00    +0.000 A 
ATOM     31  H   UNL     1      46.384   3.629   7.310  0.00  0.00    +0.000 HD
ENDBRANCH  18  21
ENDBRANCH   1  17
TORSDOF 6
ENDMDL
MODEL 8
REMARK VINA RESULT:    -6.996      2.037      2.858
REMARK INTER + INTRA:         -10.394
REMARK INTER:                  -9.718
REMARK INTRA:                  -0.676
REMARK UNBOUND:                -0.944
REMARK  Name = 
REMARK  6 active torsions:
REMARK  status: ('A' for Active; 'I' for Inactive)
REMARK    1  A    between atoms: C_2  and  C_3
REMARK    2  A    between atoms: C_7  and  C_8
REMARK    3  A    between atoms: C_8  and  C_9
REMARK    4  A    between atoms: C_12  and  C_13
REMARK    5  A    between atoms: C_13  and  N_14
REMARK    6  A    between atoms: C_15  and  C_17
REMARK                            x       y       z     vdW  Elec       q    Type
REMARK                         _______ _______ _______ _____ _____    ______ ____
ROOT
ATOM      1  C   UNL     1      46.630   4.495  14.973  0.00  0.00    +0.000 C 
ENDROOT
BRANCH   1   5
ATOM      2  C   UNL     1      45.037   4.424  10.947  0.00  0.00    +0.000 A 
ATOM      3  C   UNL     1      45.231   5.640  11.615  0.00  0.00    +0.000 A 
ATOM      4  C   UNL     1      45.720   5.665  12.924  0.00  0.00    +0.000 A 
ATOM      5  C   UNL     1      46.041   4.475  13.587  0.00  0.00    +0.000 A 
ATOM      6  C   UNL     1      45.793   3.256  12.942  0.00  0.00    +0.000 A 
ATOM      7  C   UNL     1      45.304   3.231  11.631  0.00  0.00    +0.000 A 
BRANCH   2   8
ATOM      8  C   UNL     1      44.573   4.402   9.509  0.00  0.00    +0.000 C 
BRANCH   8  13
ATOM      9  C   UNL     1      46.545   1.703   7.647  0.00  0.00    +0.000 A 
ATOM     10  C   UNL     1      47.299   2.472   6.756  0.00  0.00    +0.000 A 
ATOM     11  C   UNL     1      47.191   3.863   6.773  0.00  0.00    +0.000 A 
ATOM     12  C   UNL     1      46.321   4.488   7.673  0.00  0.00    +0.000 A 
ATOM     13  C   UNL     1      45.541   3.729   8.558  0.00  0.00    +0.000 A 
ATOM     14  C   UNL     1      45.672   2.331   8.546  0.00  0.00    +0.000 A 
BRANCH   9  16
ATOM     15  N   UNL     1      46.754  -0.884   7.632  0.00  0.00    +0.000 NA
ATOM     16  C   UNL     1      46.658   0.276   7.638  0.00  0.00    +0.000 C 
ENDBRANCH   9  16
ENDBRANCH   8  13
ENDBRANCH   2   8
ENDBRANCH   1   5
BRANCH   1  17
ATOM     17  N   UNL     1      47.731   5.417  15.066  0.00  0.00    +0.000 N 
ATOM     18  C   UNL     1      48.290   5.735  16.276  0.00  0.00    +0.000 C 
ATOM     19  O   UNL     1      47.910   5.222  17.327  0.00  0.00    +0.000 OA
ATOM     20  H   UNL     1      47.893   6.020  14.265  0.00  0.00    +0.000 HD
BRANCH  18  21
ATOM     21  C   UNL     1      49.420   6.670  16.245  0.00  0.00    +0.000 A 
ATOM     22  C   UNL     1      49.226   7.974  15.812  0.00  0.00    +0.000 A 
ATOM     23  S   UNL     1      50.624   8.945  15.923  0.00  0.00    +0.000 S 
ATOM     24  C   UNL     1      51.552   7.639  16.496  0.00  0.00    +0.000 A 
ATOM     25  N   UNL     1      52.872   7.791  16.785  0.00  0.00    +0.000 NA
ATOM     26  C   UNL     1      53.461   6.710  17.174  0.00  0.00    +0.000 A 
ATOM     27  N   UNL     1      52.848   5.490  17.302  0.00  0.00    +0.000 N 
ATOM     28  C   UNL     1      51.512   5.295  17.055  0.00  0.00    +0.000 A 
ATOM     29  O   UNL     1      50.985   4.200  17.219  0.00  0.00    +0.000 OA
ATOM     30  C   UNL     1      50.804   6.481  16.608  0.00  0.00    +0.000 A 
ATOM     31  H   UNL     1      53.365   4.680  17.613  0.00  0.00    +0.000 HD
ENDBRANCH  18  21
ENDBRANCH   1  17
TORSDOF 6
ENDMDL
MODEL 9
REMARK VINA RESULT:    -6.760      2.618      4.197
REMARK INTER + INTRA:         -10.076
REMARK INTER:                  -8.802
REMARK INTRA:                  -1.274
REMARK UNBOUND:                -0.944
REMARK  Name = 
REMARK  6 active torsions:
REMARK  status: ('A' for Active; 'I' for Inactive)
REMARK    1  A    between atoms: C_2  and  C_3
REMARK    2  A    between atoms: C_7  and  C_8
REMARK    3  A    between atoms: C_8  and  C_9
REMARK    4  A    between atoms: C_12  and  C_13
REMARK    5  A    between atoms: C_13  and  N_14
REMARK    6  A    between atoms: C_15  and  C_17
REMARK                            x       y       z     vdW  Elec       q    Type
REMARK                         _______ _______ _______ _____ _____    ______ ____
ROOT
ATOM      1  C   UNL     1      49.297   7.656  16.744  0.00  0.00    +0.000 C 
ENDROOT
BRANCH   1   5
ATOM      2  C   UNL     1      47.139   7.253  13.012  0.00  0.00    +0.000 A 
ATOM      3  C   UNL     1      47.768   6.145  13.594  0.00  0.00    +0.000 A 
ATOM      4  C   UNL     1      48.488   6.277  14.785  0.00  0.00    +0.000 A 
ATOM      5  C   UNL     1      48.580   7.518  15.427  0.00  0.00    +0.000 A 
ATOM      6  C   UNL     1      48.001   8.637  14.816  0.00  0.00    +0.000 A 
ATOM      7  C   UNL     1      47.280   8.505  13.625  0.00  0.00    +0.000 A 
BRANCH   2   8
ATOM      8  C   UNL     1      46.305   7.095  11.761  0.00  0.00    +0.000 C 
BRANCH   8  13
ATOM      9  C   UNL     1      44.453   3.856  10.920  0.00  0.00    +0.000 A 
ATOM     10  C   UNL     1      43.513   3.795  11.952  0.00  0.00    +0.000 A 
ATOM     11  C   UNL     1      43.458   4.812  12.905  0.00  0.00    +0.000 A 
ATOM     12  C   UNL     1      44.351   5.887  12.835  0.00  0.00    +0.000 A 
ATOM     13  C   UNL     1      45.316   5.951  11.819  0.00  0.00    +0.000 A 
ATOM     14  C   UNL     1      45.348   4.931  10.853  0.00  0.00    +0.000 A 
BRANCH   9  16
ATOM     15  N   UNL     1      44.548   1.971   9.138  0.00  0.00    +0.000 NA
ATOM     16  C   UNL     1      44.508   2.817   9.935  0.00  0.00    +0.000 C 
ENDBRANCH   9  16
ENDBRANCH   8  13
ENDBRANCH   2   8
ENDBRANCH   1   5
BRANCH   1  17
ATOM     17  N   UNL     1      50.246   6.593  16.943  0.00  0.00    +0.000 N 
ATOM     18  C   UNL     1      50.626   6.207  18.203  0.00  0.00    +0.000 C 
ATOM     19  O   UNL     1      50.147   6.717  19.214  0.00  0.00    +0.000 OA
ATOM     20  H   UNL     1      50.820   6.334  16.147  0.00  0.00    +0.000 HD
BRANCH  18  21
ATOM     21  C   UNL     1      51.582   5.099  18.283  0.00  0.00    +0.000 A 
ATOM     22  C   UNL     1      52.855   5.320  18.790  0.00  0.00    +0.000 A 
ATOM     23  S   UNL     1      53.805   3.906  18.892  0.00  0.00    +0.000 S 
ATOM     24  C   UNL     1      52.569   2.961  18.204  0.00  0.00    +0.000 A 
ATOM     25  N   UNL     1      52.740   1.628  17.994  0.00  0.00    +0.000 NA
ATOM     26  C   UNL     1      51.736   1.043  17.432  0.00  0.00    +0.000 A 
ATOM     27  N   UNL     1      50.574   1.670  17.061  0.00  0.00    +0.000 N 
ATOM     28  C   UNL     1      50.342   3.005  17.282  0.00  0.00    +0.000 A 
ATOM     29  O   UNL     1      49.276   3.527  16.976  0.00  0.00    +0.000 OA
ATOM     30  C   UNL     1      51.445   3.712  17.908  0.00  0.00    +0.000 A 
ATOM     31  H   UNL     1      49.824   1.155  16.625  0.00  0.00    +0.000 HD
ENDBRANCH  18  21
ENDBRANCH   1  17
TORSDOF 6
ENDMDL
