MODEL 1
REMARK VINA RESULT:    -8.564      0.000      0.000
REMARK INTER + INTRA:         -13.835
REMARK INTER:                 -12.569
REMARK INTRA:                  -1.266
REMARK UNBOUND:                -1.266
REMARK  Name = 
REMARK  9 active torsions:
REMARK  status: ('A' for Active; 'I' for Inactive)
REMARK    1  A    between atoms: C_1  and  O_2
REMARK    2  A    between atoms: O_2  and  C_3
REMARK    3  A    between atoms: C_10  and  C_11
REMARK    4  A    between atoms: N_13  and  C_14
REMARK    5  A    between atoms: C_14  and  C_15
REMARK    6  A    between atoms: C_18  and  C_19
REMARK    7  A    between atoms: C_19  and  N_20
REMARK    8  A    between atoms: N_20  and  C_21
REMARK    9  A    between atoms: C_21  and  C_22
REMARK                            x       y       z     vdW  Elec       q    Type
REMARK                         _______ _______ _______ _____ _____    ______ ____
ROOT
ATOM      1  C   UNL     1      47.028   6.211  12.982  0.00  0.00    +0.000 A 
ATOM      2  C   UNL     1      46.082   5.366  13.575  0.00  0.00    +0.000 A 
ATOM      3  C   UNL     1      44.899   5.041  12.905  0.00  0.00    +0.000 A 
ATOM      4  C   UNL     1      44.636   5.550  11.624  0.00  0.00    +0.000 A 
ATOM      5  C   UNL     1      45.595   6.375  11.022  0.00  0.00    +0.000 A 
ATOM      6  C   UNL     1      46.779   6.699  11.691  0.00  0.00    +0.000 A 
ENDROOT
BRANCH   1   7
ATOM      7  C   UNL     1      48.313   6.550  13.694  0.00  0.00    +0.000 C 
BRANCH   7  10
ATOM      8  C   UNL     1      49.043   6.663  16.040  0.00  0.00    +0.000 C 
ATOM      9  O   UNL     1      50.171   6.276  15.740  0.00  0.00    +0.000 OA
ATOM     10  N   UNL     1      48.071   6.815  15.090  0.00  0.00    +0.000 N 
ATOM     11  H   UNL     1      47.137   7.095  15.357  0.00  0.00    +0.000 HD
BRANCH   8  19
ATOM     12  C   UNL     1      48.832   4.777  18.916  0.00  0.00    +0.000 A 
ATOM     13  N   UNL     1      48.678   4.292  20.164  0.00  0.00    +0.000 NA
ATOM     14  C   UNL     1      48.292   5.137  21.124  0.00  0.00    +0.000 A 
ATOM     15  N   UNL     1      48.034   6.435  20.991  0.00  0.00    +0.000 NA
ATOM     16  C   UNL     1      48.207   6.879  19.735  0.00  0.00    +0.000 A 
ATOM     17  S   UNL     1      47.920   8.515  19.380  0.00  0.00    +0.000 S 
ATOM     18  C   UNL     1      48.322   8.280  17.746  0.00  0.00    +0.000 A 
ATOM     19  C   UNL     1      48.684   6.975  17.435  0.00  0.00    +0.000 A 
ATOM     20  C   UNL     1      48.610   6.136  18.629  0.00  0.00    +0.000 A 
BRANCH  12  22
ATOM     21  C   UNL     1      48.205   3.134  17.374  0.00  0.00    +0.000 C 
ATOM     22  O   UNL     1      49.261   3.911  17.933  0.00  0.00    +0.000 OA
ENDBRANCH  12  22
ENDBRANCH   8  19
ENDBRANCH   7  10
ENDBRANCH   1   7
BRANCH   4  23
ATOM     23  C   UNL     1      43.350   5.204  10.906  0.00  0.00    +0.000 C 
BRANCH  23  24
ATOM     24  N   UNL     1      43.619   4.553   9.626  0.00  0.00    +0.000 NA
ATOM     25  H   UNL     1      44.316   5.094   9.118  0.00  0.00    +0.000 HD
BRANCH  24  26
ATOM     26  C   UNL     1      44.109   3.189   9.808  0.00  0.00    +0.000 C 
BRANCH  26  27
ATOM     27  C   UNL     1      45.182   2.859   8.794  0.00  0.00    +0.000 A 
ATOM     28  C   UNL     1      45.755   3.860   7.993  0.00  0.00    +0.000 A 
ATOM     29  C   UNL     1      46.760   3.548   7.071  0.00  0.00    +0.000 A 
ATOM     30  C   UNL     1      47.203   2.234   6.941  0.00  0.00    +0.000 A 
ATOM     31  C   UNL     1      46.639   1.242   7.734  0.00  0.00    +0.000 A 
ATOM     32  F   UNL     1      47.066  -0.022   7.609  0.00  0.00    +0.000 F 
ATOM     33  C   UNL     1      45.640   1.541   8.653  0.00  0.00    +0.000 A 
ENDBRANCH  26  27
ENDBRANCH  24  26
ENDBRANCH  23  24
ENDBRANCH   4  23
TORSDOF 8
ENDMDL
MODEL 2
REMARK VINA RESULT:    -7.917      2.193      3.660
REMARK INTER + INTRA:         -12.886
REMARK INTER:                 -11.494
REMARK INTRA:                  -1.392
REMARK UNBOUND:                -1.266
REMARK  Name = 
REMARK  9 active torsions:
REMARK  status: ('A' for Active; 'I' for Inactive)
REMARK    1  A    between atoms: C_1  and  O_2
REMARK    2  A    between atoms: O_2  and  C_3
REMARK    3  A    between atoms: C_10  and  C_11
REMARK    4  A    between atoms: N_13  and  C_14
REMARK    5  A    between atoms: C_14  and  C_15
REMARK    6  A    between atoms: C_18  and  C_19
REMARK    7  A    between atoms: C_19  and  N_20
REMARK    8  A    between atoms: N_20  and  C_21
REMARK    9  A    between atoms: C_21  and  C_22
REMARK                            x       y       z     vdW  Elec       q    Type
REMARK                         _______ _______ _______ _____ _____    ______ ____
ROOT
ATOM      1  C   UNL     1      46.214   4.428  13.628  0.00  0.00    +0.000 A 
ATOM      2  C   UNL     1      45.881   3.267  12.919  0.00  0.00    +0.000 A 
ATOM      3  C   UNL     1      45.010   3.325  11.828  0.00  0.00    +0.000 A 
ATOM      4  C   UNL     1      44.452   4.546  11.418  0.00  0.00    +0.000 A 
ATOM      5  C   UNL     1      44.805   5.710  12.113  0.00  0.00    +0.000 A 
ATOM      6  C   UNL     1      45.680   5.652  13.203  0.00  0.00    +0.000 A 
ENDROOT
BRANCH   1   7
ATOM      7  C   UNL     1      47.168   4.373  14.794  0.00  0.00    +0.000 C 
BRANCH   7  10
ATOM      8  C   UNL     1      48.621   5.921  16.036  0.00  0.00    +0.000 C 
ATOM      9  O   UNL     1      49.267   4.987  16.507  0.00  0.00    +0.000 OA
ATOM     10  N   UNL     1      47.568   5.699  15.192  0.00  0.00    +0.000 N 
ATOM     11  H   UNL     1      47.021   6.475  14.845  0.00  0.00    +0.000 HD
BRANCH   8  19
ATOM     12  C   UNL     1      48.733   8.825  14.186  0.00  0.00    +0.000 A 
ATOM     13  N   UNL     1      48.848  10.083  13.715  0.00  0.00    +0.000 NA
ATOM     14  C   UNL     1      49.217  11.042  14.568  0.00  0.00    +0.000 A 
ATOM     15  N   UNL     1      49.493  10.900  15.862  0.00  0.00    +0.000 NA
ATOM     16  C   UNL     1      49.359   9.634  16.291  0.00  0.00    +0.000 A 
ATOM     17  S   UNL     1      49.674   9.266  17.918  0.00  0.00    +0.000 S 
ATOM     18  C   UNL     1      49.314   7.625  17.667  0.00  0.00    +0.000 A 
ATOM     19  C   UNL     1      48.946   7.321  16.362  0.00  0.00    +0.000 A 
ATOM     20  C   UNL     1      48.978   8.528  15.538  0.00  0.00    +0.000 A 
BRANCH  12  22
ATOM     21  C   UNL     1      49.372   7.359  12.479  0.00  0.00    +0.000 C 
ATOM     22  O   UNL     1      48.321   7.843  13.311  0.00  0.00    +0.000 OA
ENDBRANCH  12  22
ENDBRANCH   8  19
ENDBRANCH   7  10
ENDBRANCH   1   7
BRANCH   4  23
ATOM     23  C   UNL     1      43.500   4.604  10.243  0.00  0.00    +0.000 C 
BRANCH  23  24
ATOM     24  N   UNL     1      43.997   3.809   9.122  0.00  0.00    +0.000 NA
ATOM     25  H   UNL     1      43.303   3.814   8.377  0.00  0.00    +0.000 HD
BRANCH  24  26
ATOM     26  C   UNL     1      45.258   4.337   8.606  0.00  0.00    +0.000 C 
BRANCH  26  27
ATOM     27  C   UNL     1      46.023   3.272   7.852  0.00  0.00    +0.000 A 
ATOM     28  C   UNL     1      46.786   3.593   6.718  0.00  0.00    +0.000 A 
ATOM     29  C   UNL     1      47.505   2.604   6.038  0.00  0.00    +0.000 A 
ATOM     30  C   UNL     1      47.469   1.285   6.485  0.00  0.00    +0.000 A 
ATOM     31  C   UNL     1      46.716   0.965   7.607  0.00  0.00    +0.000 A 
ATOM     32  F   UNL     1      46.682  -0.304   8.038  0.00  0.00    +0.000 F 
ATOM     33  C   UNL     1      45.998   1.939   8.291  0.00  0.00    +0.000 A 
ENDBRANCH  26  27
ENDBRANCH  24  26
ENDBRANCH  23  24
ENDBRANCH   4  23
TORSDOF 8
ENDMDL
MODEL 3
REMARK VINA RESULT:    -7.862      1.552      2.676
REMARK INTER + INTRA:         -12.805
REMARK INTER:                 -11.519
REMARK INTRA:                  -1.286
REMARK UNBOUND:                -1.266
REMARK  Name = 
REMARK  9 active torsions:
REMARK  status: ('A' for Active; 'I' for Inactive)
REMARK    1  A    between atoms: C_1  and  O_2
REMARK    2  A    between atoms: O_2  and  C_3
REMARK    3  A    between atoms: C_10  and  C_11
REMARK    4  A    between atoms: N_13  and  C_14
REMARK    5  A    between atoms: C_14  and  C_15
REMARK    6  A    between atoms: C_18  and  C_19
REMARK    7  A    between atoms: C_19  and  N_20
REMARK    8  A    between atoms: N_20  and  C_21
REMARK    9  A    between atoms: C_21  and  C_22
REMARK                            x       y       z     vdW  Elec       q    Type
REMARK                         _______ _______ _______ _____ _____    ______ ____
ROOT
ATOM      1  C   UNL     1      46.763   4.226  13.959  0.00  0.00    +0.000 A 
ATOM      2  C   UNL     1      45.977   3.384  13.162  0.00  0.00    +0.000 A 
ATOM      3  C   UNL     1      45.363   3.870  12.004  0.00  0.00    +0.000 A 
ATOM      4  C   UNL     1      45.521   5.209  11.615  0.00  0.00    +0.000 A 
ATOM      5  C   UNL     1      46.328   6.043  12.400  0.00  0.00    +0.000 A 
ATOM      6  C   UNL     1      46.945   5.556  13.557  0.00  0.00    +0.000 A 
ENDROOT
BRANCH   1   7
ATOM      7  C   UNL     1      47.443   3.701  15.198  0.00  0.00    +0.000 C 
BRANCH   7  10
ATOM      8  C   UNL     1      48.295   4.595  17.325  0.00  0.00    +0.000 C 
ATOM      9  O   UNL     1      48.997   3.601  17.498  0.00  0.00    +0.000 OA
ATOM     10  N   UNL     1      47.495   4.714  16.222  0.00  0.00    +0.000 N 
ATOM     11  H   UNL     1      46.893   5.519  16.113  0.00  0.00    +0.000 HD
BRANCH   8  19
ATOM     12  C   UNL     1      48.704   8.006  17.053  0.00  0.00    +0.000 A 
ATOM     13  N   UNL     1      48.816   9.337  17.232  0.00  0.00    +0.000 NA
ATOM     14  C   UNL     1      48.697   9.816  18.473  0.00  0.00    +0.000 A 
ATOM     15  N   UNL     1      48.477   9.117  19.584  0.00  0.00    +0.000 NA
ATOM     16  C   UNL     1      48.365   7.797  19.360  0.00  0.00    +0.000 A 
ATOM     17  S   UNL     1      48.084   6.750  20.666  0.00  0.00    +0.000 S 
ATOM     18  C   UNL     1      48.075   5.396  19.640  0.00  0.00    +0.000 A 
ATOM     19  C   UNL     1      48.276   5.701  18.299  0.00  0.00    +0.000 A 
ATOM     20  C   UNL     1      48.454   7.143  18.135  0.00  0.00    +0.000 A 
BRANCH  12  22
ATOM     21  C   UNL     1      50.133   7.227  15.373  0.00  0.00    +0.000 C 
ATOM     22  O   UNL     1      48.794   7.516  15.767  0.00  0.00    +0.000 OA
ENDBRANCH  12  22
ENDBRANCH   8  19
ENDBRANCH   7  10
ENDBRANCH   1   7
BRANCH   4  23
ATOM     23  C   UNL     1      44.846   5.735  10.367  0.00  0.00    +0.000 C 
BRANCH  23  24
ATOM     24  N   UNL     1      45.506   5.240   9.161  0.00  0.00    +0.000 NA
ATOM     25  H   UNL     1      46.459   4.965   9.393  0.00  0.00    +0.000 HD
BRANCH  24  26
ATOM     26  C   UNL     1      44.801   4.094   8.593  0.00  0.00    +0.000 C 
BRANCH  26  27
ATOM     27  C   UNL     1      45.765   3.146   7.916  0.00  0.00    +0.000 A 
ATOM     28  C   UNL     1      46.664   3.603   6.938  0.00  0.00    +0.000 A 
ATOM     29  C   UNL     1      47.565   2.722   6.330  0.00  0.00    +0.000 A 
ATOM     30  C   UNL     1      47.578   1.377   6.693  0.00  0.00    +0.000 A 
ATOM     31  C   UNL     1      46.690   0.923   7.660  0.00  0.00    +0.000 A 
ATOM     32  F   UNL     1      46.703  -0.371   8.010  0.00  0.00    +0.000 F 
ATOM     33  C   UNL     1      45.791   1.789   8.272  0.00  0.00    +0.000 A 
ENDBRANCH  26  27
ENDBRANCH  24  26
ENDBRANCH  23  24
ENDBRANCH   4  23
TORSDOF 8
ENDMDL
MODEL 4
REMARK VINA RESULT:    -7.651      2.012      2.419
REMARK INTER + INTRA:         -12.496
REMARK INTER:                 -11.082
REMARK INTRA:                  -1.413
REMARK UNBOUND:                -1.266
REMARK  Name = 
REMARK  9 active torsions:
REMARK  status: ('A' for Active; 'I' for Inactive)
REMARK    1  A    between atoms: C_1  and  O_2
REMARK    2  A    between atoms: O_2  and  C_3
REMARK    3  A    between atoms: C_10  and  C_11
REMARK    4  A    between atoms: N_13  and  C_14
REMARK    5  A    between atoms: C_14  and  C_15
REMARK    6  A    between atoms: C_18  and  C_19
REMARK    7  A    between atoms: C_19  and  N_20
REMARK    8  A    between atoms: N_20  and  C_21
REMARK    9  A    between atoms: C_21  and  C_22
REMARK                            x       y       z     vdW  Elec       q    Type
REMARK                         _______ _______ _______ _____ _____    ______ ____
ROOT
ATOM      1  C   UNL     1      47.192   7.944  12.388  0.00  0.00    +0.000 A 
ATOM      2  C   UNL     1      47.324   6.565  12.176  0.00  0.00    +0.000 A 
ATOM      3  C   UNL     1      46.222   5.797  11.791  0.00  0.00    +0.000 A 
ATOM      4  C   UNL     1      44.963   6.388  11.605  0.00  0.00    +0.000 A 
ATOM      5  C   UNL     1      44.839   7.771  11.794  0.00  0.00    +0.000 A 
ATOM      6  C   UNL     1      45.941   8.541  12.177  0.00  0.00    +0.000 A 
ENDROOT
BRANCH   1   7
ATOM      7  C   UNL     1      48.382   8.780  12.786  0.00  0.00    +0.000 C 
BRANCH   7  10
ATOM      8  C   UNL     1      50.314   8.051  14.121  0.00  0.00    +0.000 C 
ATOM      9  O   UNL     1      51.078   8.241  13.177  0.00  0.00    +0.000 OA
ATOM     10  N   UNL     1      48.972   8.285  14.004  0.00  0.00    +0.000 N 
ATOM     11  H   UNL     1      48.351   8.085  14.776  0.00  0.00    +0.000 HD
BRANCH   8  19
ATOM     12  C   UNL     1      49.180   5.672  16.340  0.00  0.00    +0.000 A 
ATOM     13  N   UNL     1      48.973   4.813  17.359  0.00  0.00    +0.000 NA
ATOM     14  C   UNL     1      49.845   4.817  18.371  0.00  0.00    +0.000 A 
ATOM     15  N   UNL     1      50.921   5.587  18.497  0.00  0.00    +0.000 NA
ATOM     16  C   UNL     1      51.095   6.422  17.458  0.00  0.00    +0.000 A 
ATOM     17  S   UNL     1      52.420   7.483  17.451  0.00  0.00    +0.000 S 
ATOM     18  C   UNL     1      51.958   8.127  15.948  0.00  0.00    +0.000 A 
ATOM     19  C   UNL     1      50.806   7.557  15.420  0.00  0.00    +0.000 A 
ATOM     20  C   UNL     1      50.288   6.537  16.330  0.00  0.00    +0.000 A 
BRANCH  12  22
ATOM     21  C   UNL     1      47.322   4.611  15.394  0.00  0.00    +0.000 C 
ATOM     22  O   UNL     1      48.297   5.645  15.282  0.00  0.00    +0.000 OA
ENDBRANCH  12  22
ENDBRANCH   8  19
ENDBRANCH   7  10
ENDBRANCH   1   7
BRANCH   4  23
ATOM     23  C   UNL     1      43.770   5.551  11.199  0.00  0.00    +0.000 C 
BRANCH  23  24
ATOM     24  N   UNL     1      43.944   5.000   9.856  0.00  0.00    +0.000 NA
ATOM     25  H   UNL     1      44.789   5.391   9.444  0.00  0.00    +0.000 HD
BRANCH  24  26
ATOM     26  C   UNL     1      44.053   3.544   9.882  0.00  0.00    +0.000 C 
BRANCH  26  27
ATOM     27  C   UNL     1      45.089   3.060   8.892  0.00  0.00    +0.000 A 
ATOM     28  C   UNL     1      45.731   3.954   8.020  0.00  0.00    +0.000 A 
ATOM     29  C   UNL     1      46.702   3.500   7.120  0.00  0.00    +0.000 A 
ATOM     30  C   UNL     1      47.041   2.150   7.084  0.00  0.00    +0.000 A 
ATOM     31  C   UNL     1      46.408   1.263   7.946  0.00  0.00    +0.000 A 
ATOM     32  F   UNL     1      46.735  -0.036   7.912  0.00  0.00    +0.000 F 
ATOM     33  C   UNL     1      45.443   1.703   8.845  0.00  0.00    +0.000 A 
ENDBRANCH  26  27
ENDBRANCH  24  26
ENDBRANCH  23  24
ENDBRANCH   4  23
TORSDOF 8
ENDMDL
MODEL 5
REMARK VINA RESULT:    -7.352      1.769      2.429
REMARK INTER + INTRA:         -12.056
REMARK INTER:                 -10.959
REMARK INTRA:                  -1.097
REMARK UNBOUND:                -1.266
REMARK  Name = 
REMARK  9 active torsions:
REMARK  status: ('A' for Active; 'I' for Inactive)
REMARK    1  A    between atoms: C_1  and  O_2
REMARK    2  A    between atoms: O_2  and  C_3
REMARK    3  A    between atoms: C_10  and  C_11
REMARK    4  A    between atoms: N_13  and  C_14
REMARK    5  A    between atoms: C_14  and  C_15
REMARK    6  A    between atoms: C_18  and  C_19
REMARK    7  A    between atoms: C_19  and  N_20
REMARK    8  A    between atoms: N_20  and  C_21
REMARK    9  A    between atoms: C_21  and  C_22
REMARK                            x       y       z     vdW  Elec       q    Type
REMARK                         _______ _______ _______ _____ _____    ______ ____
ROOT
ATOM      1  C   UNL     1      46.734   4.833  13.865  0.00  0.00    +0.000 A 
ATOM      2  C   UNL     1      46.234   6.058  13.406  0.00  0.00    +0.000 A 
ATOM      3  C   UNL     1      45.301   6.099  12.366  0.00  0.00    +0.000 A 
ATOM      4  C   UNL     1      44.843   4.918  11.763  0.00  0.00    +0.000 A 
ATOM      5  C   UNL     1      45.326   3.693  12.241  0.00  0.00    +0.000 A 
ATOM      6  C   UNL     1      46.258   3.650  13.283  0.00  0.00    +0.000 A 
ENDROOT
BRANCH   1   7
ATOM      7  C   UNL     1      47.727   4.781  14.999  0.00  0.00    +0.000 C 
BRANCH   7  10
ATOM      8  C   UNL     1      48.807   6.962  15.353  0.00  0.00    +0.000 C 
ATOM      9  O   UNL     1      49.668   6.708  14.513  0.00  0.00    +0.000 OA
ATOM     10  N   UNL     1      47.823   6.062  15.654  0.00  0.00    +0.000 N 
ATOM     11  H   UNL     1      47.146   6.268  16.376  0.00  0.00    +0.000 HD
BRANCH   8  19
ATOM     12  C   UNL     1      48.142   7.838  18.619  0.00  0.00    +0.000 A 
ATOM     13  N   UNL     1      47.945   8.448  19.805  0.00  0.00    +0.000 NA
ATOM     14  C   UNL     1      48.094   9.775  19.861  0.00  0.00    +0.000 A 
ATOM     15  N   UNL     1      48.421  10.587  18.860  0.00  0.00    +0.000 NA
ATOM     16  C   UNL     1      48.615   9.939  17.699  0.00  0.00    +0.000 A 
ATOM     17  S   UNL     1      49.038  10.819  16.311  0.00  0.00    +0.000 S 
ATOM     18  C   UNL     1      49.090   9.405  15.371  0.00  0.00    +0.000 A 
ATOM     19  C   UNL     1      48.798   8.245  16.079  0.00  0.00    +0.000 A 
ATOM     20  C   UNL     1      48.509   8.569  17.475  0.00  0.00    +0.000 A 
BRANCH  12  22
ATOM     21  C   UNL     1      46.973   5.968  19.398  0.00  0.00    +0.000 C 
ATOM     22  O   UNL     1      48.020   6.466  18.569  0.00  0.00    +0.000 OA
ENDBRANCH  12  22
ENDBRANCH   8  19
ENDBRANCH   7  10
ENDBRANCH   1   7
BRANCH   4  23
ATOM     23  C   UNL     1      43.841   4.968  10.630  0.00  0.00    +0.000 C 
BRANCH  23  24
ATOM     24  N   UNL     1      44.483   4.694   9.346  0.00  0.00    +0.000 NA
ATOM     25  H   UNL     1      45.488   4.825   9.442  0.00  0.00    +0.000 HD
BRANCH  24  26
ATOM     26  C   UNL     1      44.217   3.332   8.891  0.00  0.00    +0.000 C 
BRANCH  26  27
ATOM     27  C   UNL     1      45.428   2.746   8.200  0.00  0.00    +0.000 A 
ATOM     28  C   UNL     1      46.311   3.558   7.471  0.00  0.00    +0.000 A 
ATOM     29  C   UNL     1      47.439   3.011   6.851  0.00  0.00    +0.000 A 
ATOM     30  C   UNL     1      47.696   1.645   6.953  0.00  0.00    +0.000 A 
ATOM     31  C   UNL     1      46.825   0.839   7.675  0.00  0.00    +0.000 A 
ATOM     32  F   UNL     1      47.073  -0.474   7.774  0.00  0.00    +0.000 F 
ATOM     33  C   UNL     1      45.702   1.373   8.296  0.00  0.00    +0.000 A 
ENDBRANCH  26  27
ENDBRANCH  24  26
ENDBRANCH  23  24
ENDBRANCH   4  23
TORSDOF 8
ENDMDL
MODEL 6
REMARK VINA RESULT:    -7.186      2.678      3.762
REMARK INTER + INTRA:         -11.812
REMARK INTER:                 -10.483
REMARK INTRA:                  -1.329
REMARK UNBOUND:                -1.266
REMARK  Name = 
REMARK  9 active torsions:
REMARK  status: ('A' for Active; 'I' for Inactive)
REMARK    1  A    between atoms: C_1  and  O_2
REMARK    2  A    between atoms: O_2  and  C_3
REMARK    3  A    between atoms: C_10  and  C_11
REMARK    4  A    between atoms: N_13  and  C_14
REMARK    5  A    between atoms: C_14  and  C_15
REMARK    6  A    between atoms: C_18  and  C_19
REMARK    7  A    between atoms: C_19  and  N_20
REMARK    8  A    between atoms: N_20  and  C_21
REMARK    9  A    between atoms: C_21  and  C_22
REMARK                            x       y       z     vdW  Elec       q    Type
REMARK                         _______ _______ _______ _____ _____    ______ ____
ROOT
ATOM      1  C   UNL     1      47.279   7.884  12.445  0.00  0.00    +0.000 A 
ATOM      2  C   UNL     1      46.049   8.507  12.200  0.00  0.00    +0.000 A 
ATOM      3  C   UNL     1      44.937   7.757  11.806  0.00  0.00    +0.000 A 
ATOM      4  C   UNL     1      45.028   6.365  11.652  0.00  0.00    +0.000 A 
ATOM      5  C   UNL     1      46.253   5.741  11.922  0.00  0.00    +0.000 A 
ATOM      6  C   UNL     1      47.364   6.491  12.318  0.00  0.00    +0.000 A 
ENDROOT
BRANCH   1   7
ATOM      7  C   UNL     1      48.476   8.687  12.888  0.00  0.00    +0.000 C 
BRANCH   7  10
ATOM      8  C   UNL     1      49.231   7.923  15.100  0.00  0.00    +0.000 C 
ATOM      9  O   UNL     1      48.402   8.635  15.664  0.00  0.00    +0.000 OA
ATOM     10  N   UNL     1      49.335   7.900  13.737  0.00  0.00    +0.000 N 
ATOM     11  H   UNL     1      50.048   7.341  13.289  0.00  0.00    +0.000 HD
BRANCH   8  19
ATOM     12  C   UNL     1      52.662   7.613  15.184  0.00  0.00    +0.000 A 
ATOM     13  N   UNL     1      53.950   7.293  15.421  0.00  0.00    +0.000 NA
ATOM     14  C   UNL     1      54.205   6.336  16.317  0.00  0.00    +0.000 A 
ATOM     15  N   UNL     1      53.316   5.640  17.020  0.00  0.00    +0.000 NA
ATOM     16  C   UNL     1      52.046   5.995  16.760  0.00  0.00    +0.000 A 
ATOM     17  S   UNL     1      50.777   5.209  17.568  0.00  0.00    +0.000 S 
ATOM     18  C   UNL     1      49.616   6.144  16.754  0.00  0.00    +0.000 A 
ATOM     19  C   UNL     1      50.155   7.067  15.865  0.00  0.00    +0.000 A 
ATOM     20  C   UNL     1      51.614   6.972  15.868  0.00  0.00    +0.000 A 
BRANCH  12  22
ATOM     21  C   UNL     1      52.877   8.338  12.971  0.00  0.00    +0.000 C 
ATOM     22  O   UNL     1      52.401   8.624  14.284  0.00  0.00    +0.000 OA
ENDBRANCH  12  22
ENDBRANCH   8  19
ENDBRANCH   7  10
ENDBRANCH   1   7
BRANCH   4  23
ATOM     23  C   UNL     1      43.825   5.557  11.215  0.00  0.00    +0.000 C 
BRANCH  23  24
ATOM     24  N   UNL     1      44.013   5.017   9.870  0.00  0.00    +0.000 NA
ATOM     25  H   UNL     1      44.875   5.391   9.479  0.00  0.00    +0.000 HD
BRANCH  24  26
ATOM     26  C   UNL     1      44.084   3.558   9.881  0.00  0.00    +0.000 C 
BRANCH  26  27
ATOM     27  C   UNL     1      45.134   3.060   8.914  0.00  0.00    +0.000 A 
ATOM     28  C   UNL     1      45.821   3.946   8.069  0.00  0.00    +0.000 A 
ATOM     29  C   UNL     1      46.805   3.479   7.191  0.00  0.00    +0.000 A 
ATOM     30  C   UNL     1      47.112   2.120   7.148  0.00  0.00    +0.000 A 
ATOM     31  C   UNL     1      46.434   1.241   7.984  0.00  0.00    +0.000 A 
ATOM     32  F   UNL     1      46.730  -0.065   7.943  0.00  0.00    +0.000 F 
ATOM     33  C   UNL     1      45.456   1.695   8.861  0.00  0.00    +0.000 A 
ENDBRANCH  26  27
ENDBRANCH  24  26
ENDBRANCH  23  24
ENDBRANCH   4  23
TORSDOF 8
ENDMDL
MODEL 7
REMARK VINA RESULT:    -6.941      5.044      9.554
REMARK INTER + INTRA:         -11.453
REMARK INTER:                 -10.307
REMARK INTRA:                  -1.146
REMARK UNBOUND:                -1.266
REMARK  Name = 
REMARK  9 active torsions:
REMARK  status: ('A' for Active; 'I' for Inactive)
REMARK    1  A    between atoms: C_1  and  O_2
REMARK    2  A    between atoms: O_2  and  C_3
REMARK    3  A    between atoms: C_10  and  C_11
REMARK    4  A    between atoms: N_13  and  C_14
REMARK    5  A    between atoms: C_14  and  C_15
REMARK    6  A    between atoms: C_18  and  C_19
REMARK    7  A    between atoms: C_19  and  N_20
REMARK    8  A    between atoms: N_20  and  C_21
REMARK    9  A    between atoms: C_21  and  C_22
REMARK                            x       y       z     vdW  Elec       q    Type
REMARK                         _______ _______ _______ _____ _____    ______ ____
ROOT
ATOM      1  C   UNL     1      48.742   3.368  17.196  0.00  0.00    +0.000 A 
ATOM      2  C   UNL     1      49.250   4.543  17.765  0.00  0.00    +0.000 A 
ATOM      3  C   UNL     1      50.593   4.627  18.141  0.00  0.00    +0.000 A 
ATOM      4  C   UNL     1      51.461   3.541  17.956  0.00  0.00    +0.000 A 
ATOM      5  C   UNL     1      50.957   2.375  17.364  0.00  0.00    +0.000 A 
ATOM      6  C   UNL     1      49.614   2.291  16.984  0.00  0.00    +0.000 A 
ENDROOT
BRANCH   1   7
ATOM      7  C   UNL     1      47.298   3.278  16.771  0.00  0.00    +0.000 C 
BRANCH   7  10
ATOM      8  C   UNL     1      46.913   4.177  14.514  0.00  0.00    +0.000 C 
ATOM      9  O   UNL     1      47.171   3.089  14.003  0.00  0.00    +0.000 OA
ATOM     10  N   UNL     1      46.962   4.352  15.869  0.00  0.00    +0.000 N 
ATOM     11  H   UNL     1      46.786   5.262  16.272  0.00  0.00    +0.000 HD
BRANCH   8  19
ATOM     12  C   UNL     1      44.105   5.012  12.700  0.00  0.00    +0.000 A 
ATOM     13  N   UNL     1      43.153   5.582  11.934  0.00  0.00    +0.000 NA
ATOM     14  C   UNL     1      43.414   6.775  11.392  0.00  0.00    +0.000 A 
ATOM     15  N   UNL     1      44.531   7.485  11.520  0.00  0.00    +0.000 NA
ATOM     16  C   UNL     1      45.449   6.885  12.296  0.00  0.00    +0.000 A 
ATOM     17  S   UNL     1      46.941   7.650  12.569  0.00  0.00    +0.000 S 
ATOM     18  C   UNL     1      47.474   6.366  13.545  0.00  0.00    +0.000 A 
ATOM     19  C   UNL     1      46.545   5.343  13.692  0.00  0.00    +0.000 A 
ATOM     20  C   UNL     1      45.333   5.656  12.937  0.00  0.00    +0.000 A 
BRANCH  12  22
ATOM     21  C   UNL     1      43.724   2.732  12.340  0.00  0.00    +0.000 C 
ATOM     22  O   UNL     1      43.823   3.796  13.284  0.00  0.00    +0.000 OA
ENDBRANCH  12  22
ENDBRANCH   8  19
ENDBRANCH   7  10
ENDBRANCH   1   7
BRANCH   4  23
ATOM     23  C   UNL     1      52.912   3.632  18.375  0.00  0.00    +0.000 C 
BRANCH  23  24
ATOM     24  N   UNL     1      53.269   2.543  19.282  0.00  0.00    +0.000 NA
ATOM     25  H   UNL     1      52.678   1.738  19.083  0.00  0.00    +0.000 HD
BRANCH  24  26
ATOM     26  C   UNL     1      54.670   2.158  19.135  0.00  0.00    +0.000 C 
BRANCH  26  27
ATOM     27  C   UNL     1      54.822   1.039  18.129  0.00  0.00    +0.000 A 
ATOM     28  C   UNL     1      55.278   1.293  16.826  0.00  0.00    +0.000 A 
ATOM     29  C   UNL     1      55.433   0.249  15.907  0.00  0.00    +0.000 A 
ATOM     30  C   UNL     1      55.135  -1.059  16.283  0.00  0.00    +0.000 A 
ATOM     31  C   UNL     1      54.684  -1.313  17.572  0.00  0.00    +0.000 A 
ATOM     32  F   UNL     1      54.397  -2.572  17.933  0.00  0.00    +0.000 F 
ATOM     33  C   UNL     1      54.527  -0.284  18.493  0.00  0.00    +0.000 A 
ENDBRANCH  26  27
ENDBRANCH  24  26
ENDBRANCH  23  24
ENDBRANCH   4  23
TORSDOF 8
ENDMDL
MODEL 8
REMARK VINA RESULT:    -6.722      3.699      8.574
REMARK INTER + INTRA:         -11.131
REMARK INTER:                  -8.846
REMARK INTRA:                  -2.285
REMARK UNBOUND:                -1.266
REMARK  Name = 
REMARK  9 active torsions:
REMARK  status: ('A' for Active; 'I' for Inactive)
REMARK    1  A    between atoms: C_1  and  O_2
REMARK    2  A    between atoms: O_2  and  C_3
REMARK    3  A    between atoms: C_10  and  C_11
REMARK    4  A    between atoms: N_13  and  C_14
REMARK    5  A    between atoms: C_14  and  C_15
REMARK    6  A    between atoms: C_18  and  C_19
REMARK    7  A    between atoms: C_19  and  N_20
REMARK    8  A    between atoms: N_20  and  C_21
REMARK    9  A    between atoms: C_21  and  C_22
REMARK                            x       y       z     vdW  Elec       q    Type
REMARK                         _______ _______ _______ _____ _____    ______ ____
ROOT
ATOM      1  C   UNL     1      48.897   8.045  15.913  0.00  0.00    +0.000 A 
ATOM      2  C   UNL     1      48.265   8.537  17.062  0.00  0.00    +0.000 A 
ATOM      3  C   UNL     1      48.731   8.189  18.333  0.00  0.00    +0.000 A 
ATOM      4  C   UNL     1      49.841   7.343  18.485  0.00  0.00    +0.000 A 
ATOM      5  C   UNL     1      50.486   6.872  17.335  0.00  0.00    +0.000 A 
ATOM      6  C   UNL     1      50.022   7.223  16.063  0.00  0.00    +0.000 A 
ENDROOT
BRANCH   1   7
ATOM      7  C   UNL     1      48.410   8.432  14.539  0.00  0.00    +0.000 C 
BRANCH   7  10
ATOM      8  C   UNL     1      47.669   6.449  13.286  0.00  0.00    +0.000 C 
ATOM      9  O   UNL     1      48.817   6.221  12.908  0.00  0.00    +0.000 OA
ATOM     10  N   UNL     1      47.387   7.524  14.083  0.00  0.00    +0.000 N 
ATOM     11  H   UNL     1      46.433   7.722  14.352  0.00  0.00    +0.000 HD
BRANCH   8  19
ATOM     12  C   UNL     1      44.562   7.061  11.928  0.00  0.00    +0.000 A 
ATOM     13  N   UNL     1      43.321   7.012  11.404  0.00  0.00    +0.000 NA
ATOM     14  C   UNL     1      42.740   5.816  11.275  0.00  0.00    +0.000 A 
ATOM     15  N   UNL     1      43.254   4.636  11.612  0.00  0.00    +0.000 NA
ATOM     16  C   UNL     1      44.494   4.729  12.122  0.00  0.00    +0.000 A 
ATOM     17  S   UNL     1      45.304   3.320  12.610  0.00  0.00    +0.000 S 
ATOM     18  C   UNL     1      46.667   4.213  13.092  0.00  0.00    +0.000 A 
ATOM     19  C   UNL     1      46.545   5.582  12.892  0.00  0.00    +0.000 A 
ATOM     20  C   UNL     1      45.237   5.890  12.314  0.00  0.00    +0.000 A 
BRANCH  12  22
ATOM     21  C   UNL     1      44.501   9.312  11.294  0.00  0.00    +0.000 C 
ATOM     22  O   UNL     1      45.173   8.293  12.030  0.00  0.00    +0.000 OA
ENDBRANCH  12  22
ENDBRANCH   8  19
ENDBRANCH   7  10
ENDBRANCH   1   7
BRANCH   4  23
ATOM     23  C   UNL     1      50.335   6.960  19.863  0.00  0.00    +0.000 C 
BRANCH  23  24
ATOM     24  N   UNL     1      50.402   5.508  20.015  0.00  0.00    +0.000 NA
ATOM     25  H   UNL     1      50.945   5.285  20.846  0.00  0.00    +0.000 HD
BRANCH  24  26
ATOM     26  C   UNL     1      49.071   4.918  20.139  0.00  0.00    +0.000 C 
BRANCH  26  27
ATOM     27  C   UNL     1      48.625   4.308  18.829  0.00  0.00    +0.000 A 
ATOM     28  C   UNL     1      47.456   4.746  18.187  0.00  0.00    +0.000 A 
ATOM     29  C   UNL     1      47.060   4.189  16.966  0.00  0.00    +0.000 A 
ATOM     30  C   UNL     1      47.830   3.189  16.375  0.00  0.00    +0.000 A 
ATOM     31  C   UNL     1      48.987   2.754  17.008  0.00  0.00    +0.000 A 
ATOM     32  F   UNL     1      49.728   1.793  16.439  0.00  0.00    +0.000 F 
ATOM     33  C   UNL     1      49.390   3.302  18.221  0.00  0.00    +0.000 A 
ENDBRANCH  26  27
ENDBRANCH  24  26
ENDBRANCH  23  24
ENDBRANCH   4  23
TORSDOF 8
ENDMDL
MODEL 9
REMARK VINA RESULT:    -6.404      3.835      8.386
REMARK INTER + INTRA:         -10.665
REMARK INTER:                  -8.810
REMARK INTRA:                  -1.855
REMARK UNBOUND:                -1.266
REMARK  Name = 
REMARK  9 active torsions:
REMARK  status: ('A' for Active; 'I' for Inactive)
REMARK    1  A    between atoms: C_1  and  O_2
REMARK    2  A    between atoms: O_2  and  C_3
REMARK    3  A    between atoms: C_10  and  C_11
REMARK    4  A    between atoms: N_13  and  C_14
REMARK    5  A    between atoms: C_14  and  C_15
REMARK    6  A    between atoms: C_18  and  C_19
REMARK    7  A    between atoms: C_19  and  N_20
REMARK    8  A    between atoms: N_20  and  C_21
REMARK    9  A    between atoms: C_21  and  C_22
REMARK                            x       y       z     vdW  Elec       q    Type
REMARK                         _______ _______ _______ _____ _____    ______ ____
ROOT
ATOM      1  C   UNL     1      48.602   8.595  15.324  0.00  0.00    +0.000 A 
ATOM      2  C   UNL     1      49.561   7.623  15.634  0.00  0.00    +0.000 A 
ATOM      3  C   UNL     1      49.879   7.337  16.965  0.00  0.00    +0.000 A 
ATOM      4  C   UNL     1      49.244   8.014  18.017  0.00  0.00    +0.000 A 
ATOM      5  C   UNL     1      48.267   8.969  17.705  0.00  0.00    +0.000 A 
ATOM      6  C   UNL     1      47.946   9.253  16.374  0.00  0.00    +0.000 A 
ENDROOT
BRANCH   1   7
ATOM      7  C   UNL     1      48.242   8.894  13.890  0.00  0.00    +0.000 C 
BRANCH   7  10
ATOM      8  C   UNL     1      46.948   7.382  12.445  0.00  0.00    +0.000 C 
ATOM      9  O   UNL     1      47.930   7.170  11.735  0.00  0.00    +0.000 OA
ATOM     10  N   UNL     1      47.020   8.225  13.519  0.00  0.00    +0.000 N 
ATOM     11  H   UNL     1      46.195   8.421  14.069  0.00  0.00    +0.000 HD
BRANCH   8  19
ATOM     12  C   UNL     1      45.746   4.177  12.839  0.00  0.00    +0.000 A 
ATOM     13  N   UNL     1      45.030   3.036  12.891  0.00  0.00    +0.000 NA
ATOM     14  C   UNL     1      43.768   3.067  12.454  0.00  0.00    +0.000 A 
ATOM     15  N   UNL     1      43.117   4.116  11.960  0.00  0.00    +0.000 NA
ATOM     16  C   UNL     1      43.863   5.233  11.933  0.00  0.00    +0.000 A 
ATOM     17  S   UNL     1      43.193   6.672  11.331  0.00  0.00    +0.000 S 
ATOM     18  C   UNL     1      44.638   7.519  11.613  0.00  0.00    +0.000 A 
ATOM     19  C   UNL     1      45.649   6.744  12.168  0.00  0.00    +0.000 A 
ATOM     20  C   UNL     1      45.182   5.371  12.356  0.00  0.00    +0.000 A 
BRANCH  12  22
ATOM     21  C   UNL     1      47.134   4.549  14.686  0.00  0.00    +0.000 C 
ATOM     22  O   UNL     1      47.038   4.152  13.320  0.00  0.00    +0.000 OA
ENDBRANCH  12  22
ENDBRANCH   8  19
ENDBRANCH   7  10
ENDBRANCH   1   7
BRANCH   4  23
ATOM     23  C   UNL     1      49.599   7.710  19.456  0.00  0.00    +0.000 C 
BRANCH  23  24
ATOM     24  N   UNL     1      48.782   6.618  19.981  0.00  0.00    +0.000 NA
ATOM     25  H   UNL     1      48.070   6.376  19.295  0.00  0.00    +0.000 HD
BRANCH  24  26
ATOM     26  C   UNL     1      49.588   5.436  20.275  0.00  0.00    +0.000 C 
BRANCH  26  27
ATOM     27  C   UNL     1      49.507   4.431  19.147  0.00  0.00    +0.000 A 
ATOM     28  C   UNL     1      50.662   4.004  18.473  0.00  0.00    +0.000 A 
ATOM     29  C   UNL     1      50.580   3.061  17.443  0.00  0.00    +0.000 A 
ATOM     30  C   UNL     1      49.343   2.534  17.077  0.00  0.00    +0.000 A 
ATOM     31  C   UNL     1      48.198   2.955  17.744  0.00  0.00    +0.000 A 
ATOM     32  F   UNL     1      47.009   2.448  17.393  0.00  0.00    +0.000 F 
ATOM     33  C   UNL     1      48.269   3.891  18.769  0.00  0.00    +0.000 A 
ENDBRANCH  26  27
ENDBRANCH  24  26
ENDBRANCH  23  24
ENDBRANCH   4  23
TORSDOF 8
ENDMDL
