MODEL 1
REMARK VINA RESULT:    -8.648      0.000      0.000
REMARK INTER + INTRA:         -12.793
REMARK INTER:                 -12.187
REMARK INTRA:                  -0.606
REMARK UNBOUND:                -0.606
REMARK  Name = 
REMARK  7 active torsions:
REMARK  status: ('A' for Active; 'I' for Inactive)
REMARK    1  A    between atoms: C_2  and  C_20
REMARK    2  A    between atoms: N_3  and  C_4
REMARK    3  A    between atoms: C_4  and  C_5
REMARK    4  A    between atoms: C_8  and  C_9
REMARK    5  A    between atoms: C_9  and  N_10
REMARK    6  A    between atoms: N_10  and  C_11
REMARK    7  A    between atoms: C_11  and  C_12
REMARK                            x       y       z     vdW  Elec       q    Type
REMARK                         _______ _______ _______ _____ _____    ______ ____
ROOT
ATOM      1  C   UNL     1      46.084   4.601  14.043  0.00  0.00    +0.000 C 
ENDROOT
BRANCH   1   2
ATOM      2  C   UNL     1      45.329   5.854  13.563  0.00  0.00    +0.000 C 
ATOM      3  C   UNL     1      46.207   6.829  12.764  0.00  0.00    +0.000 C 
ATOM      4  C   UNL     1      46.640   6.264  11.411  0.00  0.00    +0.000 C 
ATOM      5  C   UNL     1      45.447   5.800  10.558  0.00  0.00    +0.000 C 
ATOM      6  C   UNL     1      44.497   4.885  11.355  0.00  0.00    +0.000 C 
ATOM      7  C   UNL     1      44.110   5.468  12.714  0.00  0.00    +0.000 C 
BRANCH   5   8
ATOM      8  C   UNL     1      45.955   5.105   9.276  0.00  0.00    +0.000 C 
BRANCH   8   9
ATOM      9  N   UNL     1      44.831   4.768   8.402  0.00  0.00    +0.000 NA
ATOM     10  H   UNL     1      44.985   5.155   7.472  0.00  0.00    +0.000 HD
BRANCH   9  11
ATOM     11  C   UNL     1      44.621   3.329   8.297  0.00  0.00    +0.000 C 
BRANCH  11  12
ATOM     12  C   UNL     1      45.794   2.683   7.600  0.00  0.00    +0.000 A 
ATOM     13  C   UNL     1      46.359   3.249   6.455  0.00  0.00    +0.000 A 
ATOM     14  C   UNL     1      47.428   2.603   5.853  0.00  0.00    +0.000 A 
ATOM     15  N   UNL     1      47.967   1.450   6.305  0.00  0.00    +0.000 NA
ATOM     16  C   UNL     1      47.407   0.918   7.412  0.00  0.00    +0.000 A 
ATOM     17  C   UNL     1      46.340   1.489   8.087  0.00  0.00    +0.000 A 
ENDBRANCH  11  12
ENDBRANCH   9  11
ENDBRANCH   8   9
ENDBRANCH   5   8
ENDBRANCH   1   2
BRANCH   1  20
ATOM     18  O   UNL     1      46.639   3.485  16.571  0.00  0.00    +0.000 OA
ATOM     19  C   UNL     1      47.403   4.327  16.114  0.00  0.00    +0.000 C 
ATOM     20  N   UNL     1      47.220   4.925  14.884  0.00  0.00    +0.000 N 
ATOM     21  H   UNL     1      47.874   5.625  14.565  0.00  0.00    +0.000 HD
BRANCH  19  22
ATOM     22  C   UNL     1      48.567   4.798  16.864  0.00  0.00    +0.000 A 
ATOM     23  C   UNL     1      48.699   6.085  17.361  0.00  0.00    +0.000 A 
ATOM     24  S   UNL     1      50.110   6.294  18.306  0.00  0.00    +0.000 S 
ATOM     25  C   UNL     1      50.576   4.673  18.078  0.00  0.00    +0.000 A 
ATOM     26  N   UNL     1      51.701   4.173  18.655  0.00  0.00    +0.000 NA
ATOM     27  C   UNL     1      51.911   2.921  18.409  0.00  0.00    +0.000 A 
ATOM     28  N   UNL     1      51.110   2.132  17.623  0.00  0.00    +0.000 N 
ATOM     29  C   UNL     1      50.023   2.620  16.930  0.00  0.00    +0.000 A 
ATOM     30  O   UNL     1      49.470   1.945  16.072  0.00  0.00    +0.000 OA
ATOM     31  C   UNL     1      49.693   3.995  17.259  0.00  0.00    +0.000 A 
ATOM     32  H   UNL     1      51.368   1.180  17.413  0.00  0.00    +0.000 HD
ENDBRANCH  19  22
ENDBRANCH   1  20
TORSDOF 7
ENDMDL
MODEL 2
REMARK VINA RESULT:    -8.506      1.816      2.686
REMARK INTER + INTRA:         -12.593
REMARK INTER:                 -12.169
REMARK INTRA:                  -0.424
REMARK UNBOUND:                -0.606
REMARK  Name = 
REMARK  7 active torsions:
REMARK  status: ('A' for Active; 'I' for Inactive)
REMARK    1  A    between atoms: C_2  and  C_20
REMARK    2  A    between atoms: N_3  and  C_4
REMARK    3  A    between atoms: C_4  and  C_5
REMARK    4  A    between atoms: C_8  and  C_9
REMARK    5  A    between atoms: C_9  and  N_10
REMARK    6  A    between atoms: N_10  and  C_11
REMARK    7  A    between atoms: C_11  and  C_12
REMARK                            x       y       z     vdW  Elec       q    Type
REMARK                         _______ _______ _______ _____ _____    ______ ____
ROOT
ATOM      1  C   UNL     1      45.115   6.337  12.598  0.00  0.00    +0.000 C 
ENDROOT
BRANCH   1   2
ATOM      2  C   UNL     1      43.787   5.596  12.842  0.00  0.00    +0.000 C 
ATOM      3  C   UNL     1      42.849   5.604  11.625  0.00  0.00    +0.000 C 
ATOM      4  C   UNL     1      43.386   4.778  10.457  0.00  0.00    +0.000 C 
ATOM      5  C   UNL     1      43.719   3.331  10.864  0.00  0.00    +0.000 C 
ATOM      6  C   UNL     1      44.591   3.281  12.133  0.00  0.00    +0.000 C 
ATOM      7  C   UNL     1      44.040   4.144  13.268  0.00  0.00    +0.000 C 
BRANCH   5   8
ATOM      8  C   UNL     1      44.395   2.595   9.686  0.00  0.00    +0.000 C 
BRANCH   8   9
ATOM      9  N   UNL     1      44.177   3.327   8.438  0.00  0.00    +0.000 NA
ATOM     10  H   UNL     1      43.399   3.977   8.547  0.00  0.00    +0.000 HD
BRANCH   9  11
ATOM     11  C   UNL     1      45.362   4.061   8.010  0.00  0.00    +0.000 C 
BRANCH  11  12
ATOM     12  C   UNL     1      46.306   3.139   7.276  0.00  0.00    +0.000 A 
ATOM     13  C   UNL     1      46.675   1.904   7.812  0.00  0.00    +0.000 A 
ATOM     14  C   UNL     1      47.555   1.105   7.096  0.00  0.00    +0.000 A 
ATOM     15  N   UNL     1      48.084   1.446   5.901  0.00  0.00    +0.000 NA
ATOM     16  C   UNL     1      47.714   2.644   5.399  0.00  0.00    +0.000 A 
ATOM     17  C   UNL     1      46.840   3.509   6.036  0.00  0.00    +0.000 A 
ENDBRANCH  11  12
ENDBRANCH   9  11
ENDBRANCH   8   9
ENDBRANCH   5   8
ENDBRANCH   1   2
BRANCH   1  20
ATOM     18  O   UNL     1      47.931   6.220  12.546  0.00  0.00    +0.000 OA
ATOM     19  C   UNL     1      47.359   6.247  13.629  0.00  0.00    +0.000 C 
ATOM     20  N   UNL     1      45.986   6.311  13.757  0.00  0.00    +0.000 N 
ATOM     21  H   UNL     1      45.568   6.315  14.677  0.00  0.00    +0.000 HD
BRANCH  19  22
ATOM     22  C   UNL     1      48.095   6.176  14.890  0.00  0.00    +0.000 A 
ATOM     23  C   UNL     1      48.875   7.205  15.391  0.00  0.00    +0.000 A 
ATOM     24  S   UNL     1      49.502   6.872  16.948  0.00  0.00    +0.000 S 
ATOM     25  C   UNL     1      48.745   5.348  16.992  0.00  0.00    +0.000 A 
ATOM     26  N   UNL     1      48.850   4.538  18.079  0.00  0.00    +0.000 NA
ATOM     27  C   UNL     1      48.203   3.423  17.974  0.00  0.00    +0.000 A 
ATOM     28  N   UNL     1      47.479   3.039  16.874  0.00  0.00    +0.000 N 
ATOM     29  C   UNL     1      47.433   3.776  15.710  0.00  0.00    +0.000 A 
ATOM     30  O   UNL     1      46.965   3.300  14.683  0.00  0.00    +0.000 OA
ATOM     31  C   UNL     1      48.061   5.079  15.822  0.00  0.00    +0.000 A 
ATOM     32  H   UNL     1      47.054   2.125  16.827  0.00  0.00    +0.000 HD
ENDBRANCH  19  22
ENDBRANCH   1  20
TORSDOF 7
ENDMDL
MODEL 3
REMARK VINA RESULT:    -8.294      1.872      2.290
REMARK INTER + INTRA:         -12.293
REMARK INTER:                 -11.155
REMARK INTRA:                  -1.138
REMARK UNBOUND:                -0.606
REMARK  Name = 
REMARK  7 active torsions:
REMARK  status: ('A' for Active; 'I' for Inactive)
REMARK    1  A    between atoms: C_2  and  C_20
REMARK    2  A    between atoms: N_3  and  C_4
REMARK    3  A    between atoms: C_4  and  C_5
REMARK    4  A    between atoms: C_8  and  C_9
REMARK    5  A    between atoms: C_9  and  N_10
REMARK    6  A    between atoms: N_10  and  C_11
REMARK    7  A    between atoms: C_11  and  C_12
REMARK                            x       y       z     vdW  Elec       q    Type
REMARK                         _______ _______ _______ _____ _____    ______ ____
ROOT
ATOM      1  C   UNL     1      47.223   5.653  13.268  0.00  0.00    +0.000 C 
ENDROOT
BRANCH   1   2
ATOM      2  C   UNL     1      46.188   6.582  12.606  0.00  0.00    +0.000 C 
ATOM      3  C   UNL     1      46.107   6.418  11.080  0.00  0.00    +0.000 C 
ATOM      4  C   UNL     1      45.534   5.065  10.659  0.00  0.00    +0.000 C 
ATOM      5  C   UNL     1      44.164   4.781  11.300  0.00  0.00    +0.000 C 
ATOM      6  C   UNL     1      44.186   5.017  12.823  0.00  0.00    +0.000 C 
ATOM      7  C   UNL     1      44.793   6.366  13.207  0.00  0.00    +0.000 C 
BRANCH   5   8
ATOM      8  C   UNL     1      43.710   3.344  10.959  0.00  0.00    +0.000 C 
BRANCH   8   9
ATOM      9  N   UNL     1      44.839   2.564  10.452  0.00  0.00    +0.000 NA
ATOM     10  H   UNL     1      45.095   1.844  11.126  0.00  0.00    +0.000 HD
BRANCH   9  11
ATOM     11  C   UNL     1      44.550   1.938   9.166  0.00  0.00    +0.000 C 
BRANCH  11  12
ATOM     12  C   UNL     1      45.693   2.171   8.208  0.00  0.00    +0.000 A 
ATOM     13  C   UNL     1      45.864   3.400   7.569  0.00  0.00    +0.000 A 
ATOM     14  C   UNL     1      46.927   3.549   6.690  0.00  0.00    +0.000 A 
ATOM     15  N   UNL     1      47.818   2.574   6.408  0.00  0.00    +0.000 NA
ATOM     16  C   UNL     1      47.635   1.393   7.036  0.00  0.00    +0.000 A 
ATOM     17  C   UNL     1      46.608   1.147   7.933  0.00  0.00    +0.000 A 
ENDBRANCH  11  12
ENDBRANCH   9  11
ENDBRANCH   8   9
ENDBRANCH   5   8
ENDBRANCH   1   2
BRANCH   1  20
ATOM     18  O   UNL     1      49.576   6.857  14.246  0.00  0.00    +0.000 OA
ATOM     19  C   UNL     1      48.675   6.592  15.033  0.00  0.00    +0.000 C 
ATOM     20  N   UNL     1      47.485   6.009  14.649  0.00  0.00    +0.000 N 
ATOM     21  H   UNL     1      46.782   5.799  15.344  0.00  0.00    +0.000 HD
BRANCH  19  22
ATOM     22  C   UNL     1      48.807   6.843  16.468  0.00  0.00    +0.000 A 
ATOM     23  C   UNL     1      48.887   8.107  17.029  0.00  0.00    +0.000 A 
ATOM     24  S   UNL     1      48.901   8.079  18.739  0.00  0.00    +0.000 S 
ATOM     25  C   UNL     1      48.798   6.380  18.772  0.00  0.00    +0.000 A 
ATOM     26  N   UNL     1      48.738   5.699  19.947  0.00  0.00    +0.000 NA
ATOM     27  C   UNL     1      48.639   4.417  19.811  0.00  0.00    +0.000 A 
ATOM     28  N   UNL     1      48.616   3.756  18.609  0.00  0.00    +0.000 N 
ATOM     29  C   UNL     1      48.784   4.393  17.398  0.00  0.00    +0.000 A 
ATOM     30  O   UNL     1      48.980   3.753  16.373  0.00  0.00    +0.000 OA
ATOM     31  C   UNL     1      48.796   5.841  17.501  0.00  0.00    +0.000 A 
ATOM     32  H   UNL     1      48.609   2.747  18.572  0.00  0.00    +0.000 HD
ENDBRANCH  19  22
ENDBRANCH   1  20
TORSDOF 7
ENDMDL
MODEL 4
REMARK VINA RESULT:    -8.072      1.737      2.281
REMARK INTER + INTRA:         -11.980
REMARK INTER:                 -10.997
REMARK INTRA:                  -0.983
REMARK UNBOUND:                -0.606
REMARK  Name = 
REMARK  7 active torsions:
REMARK  status: ('A' for Active; 'I' for Inactive)
REMARK    1  A    between atoms: C_2  and  C_20
REMARK    2  A    between atoms: N_3  and  C_4
REMARK    3  A    between atoms: C_4  and  C_5
REMARK    4  A    between atoms: C_8  and  C_9
REMARK    5  A    between atoms: C_9  and  N_10
REMARK    6  A    between atoms: N_10  and  C_11
REMARK    7  A    between atoms: C_11  and  C_12
REMARK                            x       y       z     vdW  Elec       q    Type
REMARK                         _______ _______ _______ _____ _____    ______ ____
ROOT
ATOM      1  C   UNL     1      46.957   5.400  13.495  0.00  0.00    +0.000 C 
ENDROOT
BRANCH   1   2
ATOM      2  C   UNL     1      46.492   6.678  12.773  0.00  0.00    +0.000 C 
ATOM      3  C   UNL     1      46.787   6.672  11.265  0.00  0.00    +0.000 C 
ATOM      4  C   UNL     1      45.958   5.638  10.503  0.00  0.00    +0.000 C 
ATOM      5  C   UNL     1      44.447   5.799  10.749  0.00  0.00    +0.000 C 
ATOM      6  C   UNL     1      44.121   5.893  12.253  0.00  0.00    +0.000 C 
ATOM      7  C   UNL     1      44.990   6.913  12.987  0.00  0.00    +0.000 C 
BRANCH   5   8
ATOM      8  C   UNL     1      43.679   4.639  10.078  0.00  0.00    +0.000 C 
BRANCH   8   9
ATOM      9  N   UNL     1      44.327   4.261   8.822  0.00  0.00    +0.000 NA
ATOM     10  H   UNL     1      45.254   4.683   8.768  0.00  0.00    +0.000 HD
BRANCH   9  11
ATOM     11  C   UNL     1      44.447   2.815   8.671  0.00  0.00    +0.000 C 
BRANCH  11  12
ATOM     12  C   UNL     1      45.684   2.478   7.874  0.00  0.00    +0.000 A 
ATOM     13  C   UNL     1      46.391   1.295   8.100  0.00  0.00    +0.000 A 
ATOM     14  C   UNL     1      47.527   1.045   7.343  0.00  0.00    +0.000 A 
ATOM     15  N   UNL     1      48.000   1.879   6.392  0.00  0.00    +0.000 NA
ATOM     16  C   UNL     1      47.302   3.018   6.189  0.00  0.00    +0.000 A 
ATOM     17  C   UNL     1      46.155   3.354   6.890  0.00  0.00    +0.000 A 
ENDBRANCH  11  12
ENDBRANCH   9  11
ENDBRANCH   8   9
ENDBRANCH   5   8
ENDBRANCH   1   2
BRANCH   1  20
ATOM     18  O   UNL     1      47.562   3.456  15.444  0.00  0.00    +0.000 OA
ATOM     19  C   UNL     1      47.700   4.641  15.726  0.00  0.00    +0.000 C 
ATOM     20  N   UNL     1      47.436   5.664  14.838  0.00  0.00    +0.000 N 
ATOM     21  H   UNL     1      47.552   6.624  15.130  0.00  0.00    +0.000 HD
BRANCH  19  22
ATOM     22  C   UNL     1      48.126   5.072  17.057  0.00  0.00    +0.000 A 
ATOM     23  C   UNL     1      47.470   4.730  18.228  0.00  0.00    +0.000 A 
ATOM     24  S   UNL     1      48.283   5.274  19.632  0.00  0.00    +0.000 S 
ATOM     25  C   UNL     1      49.531   5.975  18.711  0.00  0.00    +0.000 A 
ATOM     26  N   UNL     1      50.586   6.593  19.305  0.00  0.00    +0.000 NA
ATOM     27  C   UNL     1      51.464   7.056  18.476  0.00  0.00    +0.000 A 
ATOM     28  N   UNL     1      51.370   6.976  17.109  0.00  0.00    +0.000 N 
ATOM     29  C   UNL     1      50.270   6.457  16.461  0.00  0.00    +0.000 A 
ATOM     30  O   UNL     1      50.125   6.603  15.254  0.00  0.00    +0.000 OA
ATOM     31  C   UNL     1      49.309   5.835  17.354  0.00  0.00    +0.000 A 
ATOM     32  H   UNL     1      52.055   7.420  16.516  0.00  0.00    +0.000 HD
ENDBRANCH  19  22
ENDBRANCH   1  20
TORSDOF 7
ENDMDL
MODEL 5
REMARK VINA RESULT:    -7.896      2.720      3.819
REMARK INTER + INTRA:         -11.733
REMARK INTER:                 -11.228
REMARK INTRA:                  -0.506
REMARK UNBOUND:                -0.606
REMARK  Name = 
REMARK  7 active torsions:
REMARK  status: ('A' for Active; 'I' for Inactive)
REMARK    1  A    between atoms: C_2  and  C_20
REMARK    2  A    between atoms: N_3  and  C_4
REMARK    3  A    between atoms: C_4  and  C_5
REMARK    4  A    between atoms: C_8  and  C_9
REMARK    5  A    between atoms: C_9  and  N_10
REMARK    6  A    between atoms: N_10  and  C_11
REMARK    7  A    between atoms: C_11  and  C_12
REMARK                            x       y       z     vdW  Elec       q    Type
REMARK                         _______ _______ _______ _____ _____    ______ ____
ROOT
ATOM      1  C   UNL     1      44.871   6.870  12.031  0.00  0.00    +0.000 C 
ENDROOT
BRANCH   1   2
ATOM      2  C   UNL     1      44.071   5.880  12.898  0.00  0.00    +0.000 C 
ATOM      3  C   UNL     1      42.792   5.368  12.219  0.00  0.00    +0.000 C 
ATOM      4  C   UNL     1      43.078   4.471  11.015  0.00  0.00    +0.000 C 
ATOM      5  C   UNL     1      44.004   3.293  11.366  0.00  0.00    +0.000 C 
ATOM      6  C   UNL     1      45.262   3.762  12.124  0.00  0.00    +0.000 C 
ATOM      7  C   UNL     1      44.939   4.681  13.302  0.00  0.00    +0.000 C 
BRANCH   5   8
ATOM      8  C   UNL     1      44.376   2.516  10.084  0.00  0.00    +0.000 C 
BRANCH   8   9
ATOM      9  N   UNL     1      44.105   3.331   8.900  0.00  0.00    +0.000 NA
ATOM     10  H   UNL     1      43.382   4.019   9.109  0.00  0.00    +0.000 HD
BRANCH   9  11
ATOM     11  C   UNL     1      45.296   4.017   8.412  0.00  0.00    +0.000 C 
BRANCH  11  12
ATOM     12  C   UNL     1      46.163   3.058   7.632  0.00  0.00    +0.000 A 
ATOM     13  C   UNL     1      46.367   1.747   8.067  0.00  0.00    +0.000 A 
ATOM     14  C   UNL     1      47.183   0.916   7.314  0.00  0.00    +0.000 A 
ATOM     15  N   UNL     1      47.800   1.295   6.174  0.00  0.00    +0.000 NA
ATOM     16  C   UNL     1      47.591   2.566   5.769  0.00  0.00    +0.000 A 
ATOM     17  C   UNL     1      46.791   3.469   6.450  0.00  0.00    +0.000 A 
ENDBRANCH  11  12
ENDBRANCH   9  11
ENDBRANCH   8   9
ENDBRANCH   5   8
ENDBRANCH   1   2
BRANCH   1  20
ATOM     18  O   UNL     1      47.623   6.997  11.431  0.00  0.00    +0.000 OA
ATOM     19  C   UNL     1      47.204   7.587  12.420  0.00  0.00    +0.000 C 
ATOM     20  N   UNL     1      45.875   7.590  12.792  0.00  0.00    +0.000 N 
ATOM     21  H   UNL     1      45.589   8.081  13.627  0.00  0.00    +0.000 HD
BRANCH  19  22
ATOM     22  C   UNL     1      48.099   8.315  13.318  0.00  0.00    +0.000 A 
ATOM     23  C   UNL     1      48.507   9.623  13.112  0.00  0.00    +0.000 A 
ATOM     24  S   UNL     1      49.445  10.242  14.402  0.00  0.00    +0.000 S 
ATOM     25  C   UNL     1      49.326   8.781  15.268  0.00  0.00    +0.000 A 
ATOM     26  N   UNL     1      49.891   8.640  16.497  0.00  0.00    +0.000 NA
ATOM     27  C   UNL     1      49.697   7.483  17.040  0.00  0.00    +0.000 A 
ATOM     28  N   UNL     1      49.008   6.450  16.456  0.00  0.00    +0.000 N 
ATOM     29  C   UNL     1      48.512   6.509  15.171  0.00  0.00    +0.000 A 
ATOM     30  O   UNL     1      48.103   5.501  14.609  0.00  0.00    +0.000 OA
ATOM     31  C   UNL     1      48.620   7.824  14.567  0.00  0.00    +0.000 A 
ATOM     32  H   UNL     1      48.952   5.547  16.903  0.00  0.00    +0.000 HD
ENDBRANCH  19  22
ENDBRANCH   1  20
TORSDOF 7
ENDMDL
MODEL 6
REMARK VINA RESULT:    -7.861      3.422      9.442
REMARK INTER + INTRA:         -11.684
REMARK INTER:                 -10.360
REMARK INTRA:                  -1.324
REMARK UNBOUND:                -0.606
REMARK  Name = 
REMARK  7 active torsions:
REMARK  status: ('A' for Active; 'I' for Inactive)
REMARK    1  A    between atoms: C_2  and  C_20
REMARK    2  A    between atoms: N_3  and  C_4
REMARK    3  A    between atoms: C_4  and  C_5
REMARK    4  A    between atoms: C_8  and  C_9
REMARK    5  A    between atoms: C_9  and  N_10
REMARK    6  A    between atoms: N_10  and  C_11
REMARK    7  A    between atoms: C_11  and  C_12
REMARK                            x       y       z     vdW  Elec       q    Type
REMARK                         _______ _______ _______ _____ _____    ______ ____
ROOT
ATOM      1  C   UNL     1      48.409   5.522  15.916  0.00  0.00    +0.000 C 
ENDROOT
BRANCH   1   2
ATOM      2  C   UNL     1      47.998   4.849  17.238  0.00  0.00    +0.000 C 
ATOM      3  C   UNL     1      47.512   3.402  17.063  0.00  0.00    +0.000 C 
ATOM      4  C   UNL     1      48.627   2.449  16.633  0.00  0.00    +0.000 C 
ATOM      5  C   UNL     1      49.837   2.494  17.583  0.00  0.00    +0.000 C 
ATOM      6  C   UNL     1      50.302   3.939  17.849  0.00  0.00    +0.000 C 
ATOM      7  C   UNL     1      49.156   4.869  18.246  0.00  0.00    +0.000 C 
BRANCH   5   8
ATOM      8  C   UNL     1      50.984   1.629  17.015  0.00  0.00    +0.000 C 
BRANCH   8   9
ATOM      9  N   UNL     1      51.680   0.934  18.098  0.00  0.00    +0.000 NA
ATOM     10  H   UNL     1      51.256   0.020  18.255  0.00  0.00    +0.000 HD
BRANCH   9  11
ATOM     11  C   UNL     1      53.103   0.765  17.827  0.00  0.00    +0.000 C 
BRANCH  11  12
ATOM     12  C   UNL     1      53.840   2.053  18.108  0.00  0.00    +0.000 A 
ATOM     13  C   UNL     1      53.569   2.810  19.249  0.00  0.00    +0.000 A 
ATOM     14  C   UNL     1      54.272   3.990  19.446  0.00  0.00    +0.000 A 
ATOM     15  N   UNL     1      55.211   4.461  18.598  0.00  0.00    +0.000 NA
ATOM     16  C   UNL     1      55.459   3.715  17.500  0.00  0.00    +0.000 A 
ATOM     17  C   UNL     1      54.813   2.522  17.217  0.00  0.00    +0.000 A 
ENDBRANCH  11  12
ENDBRANCH   9  11
ENDBRANCH   8   9
ENDBRANCH   5   8
ENDBRANCH   1   2
BRANCH   1  20
ATOM     18  O   UNL     1      48.618   6.139  13.173  0.00  0.00    +0.000 OA
ATOM     19  C   UNL     1      47.507   5.947  13.655  0.00  0.00    +0.000 C 
ATOM     20  N   UNL     1      47.304   5.634  14.983  0.00  0.00    +0.000 N 
ATOM     21  H   UNL     1      46.364   5.501  15.329  0.00  0.00    +0.000 HD
BRANCH  19  22
ATOM     22  C   UNL     1      46.289   6.073  12.856  0.00  0.00    +0.000 A 
ATOM     23  C   UNL     1      45.766   7.283  12.427  0.00  0.00    +0.000 A 
ATOM     24  S   UNL     1      44.410   7.097  11.401  0.00  0.00    +0.000 S 
ATOM     25  C   UNL     1      44.491   5.400  11.500  0.00  0.00    +0.000 A 
ATOM     26  N   UNL     1      43.620   4.610  10.818  0.00  0.00    +0.000 NA
ATOM     27  C   UNL     1      43.820   3.342  10.975  0.00  0.00    +0.000 A 
ATOM     28  N   UNL     1      44.798   2.796  11.767  0.00  0.00    +0.000 N 
ATOM     29  C   UNL     1      45.633   3.554  12.561  0.00  0.00    +0.000 A 
ATOM     30  O   UNL     1      46.336   3.028  13.414  0.00  0.00    +0.000 OA
ATOM     31  C   UNL     1      45.508   4.982  12.336  0.00  0.00    +0.000 A 
ATOM     32  H   UNL     1      44.857   1.797  11.902  0.00  0.00    +0.000 HD
ENDBRANCH  19  22
ENDBRANCH   1  20
TORSDOF 7
ENDMDL
MODEL 7
REMARK VINA RESULT:    -7.610      3.647      8.639
REMARK INTER + INTRA:         -11.330
REMARK INTER:                  -9.525
REMARK INTRA:                  -1.805
REMARK UNBOUND:                -0.606
REMARK  Name = 
REMARK  7 active torsions:
REMARK  status: ('A' for Active; 'I' for Inactive)
REMARK    1  A    between atoms: C_2  and  C_20
REMARK    2  A    between atoms: N_3  and  C_4
REMARK    3  A    between atoms: C_4  and  C_5
REMARK    4  A    between atoms: C_8  and  C_9
REMARK    5  A    between atoms: C_9  and  N_10
REMARK    6  A    between atoms: N_10  and  C_11
REMARK    7  A    between atoms: C_11  and  C_12
REMARK                            x       y       z     vdW  Elec       q    Type
REMARK                         _______ _______ _______ _____ _____    ______ ____
ROOT
ATOM      1  C   UNL     1      48.823   6.161  15.557  0.00  0.00    +0.000 C 
ENDROOT
BRANCH   1   2
ATOM      2  C   UNL     1      49.259   7.587  15.943  0.00  0.00    +0.000 C 
ATOM      3  C   UNL     1      48.297   8.276  16.924  0.00  0.00    +0.000 C 
ATOM      4  C   UNL     1      48.300   7.630  18.309  0.00  0.00    +0.000 C 
ATOM      5  C   UNL     1      49.712   7.546  18.916  0.00  0.00    +0.000 C 
ATOM      6  C   UNL     1      50.723   6.935  17.926  0.00  0.00    +0.000 C 
ATOM      7  C   UNL     1      50.670   7.584  16.544  0.00  0.00    +0.000 C 
BRANCH   5   8
ATOM      8  C   UNL     1      49.669   6.752  20.240  0.00  0.00    +0.000 C 
BRANCH   8   9
ATOM      9  N   UNL     1      49.988   5.345  19.998  0.00  0.00    +0.000 NA
ATOM     10  H   UNL     1      50.497   4.961  20.794  0.00  0.00    +0.000 HD
BRANCH   9  11
ATOM     11  C   UNL     1      48.797   4.539  19.754  0.00  0.00    +0.000 C 
BRANCH  11  12
ATOM     12  C   UNL     1      48.988   3.692  18.519  0.00  0.00    +0.000 A 
ATOM     13  C   UNL     1      47.905   3.317  17.722  0.00  0.00    +0.000 A 
ATOM     14  C   UNL     1      48.143   2.529  16.606  0.00  0.00    +0.000 A 
ATOM     15  N   UNL     1      49.366   2.095  16.233  0.00  0.00    +0.000 NA
ATOM     16  C   UNL     1      50.401   2.468  17.016  0.00  0.00    +0.000 A 
ATOM     17  C   UNL     1      50.266   3.256  18.148  0.00  0.00    +0.000 A 
ENDBRANCH  11  12
ENDBRANCH   9  11
ENDBRANCH   8   9
ENDBRANCH   5   8
ENDBRANCH   1   2
BRANCH   1  20
ATOM     18  O   UNL     1      48.685   6.231  12.742  0.00  0.00    +0.000 OA
ATOM     19  C   UNL     1      47.643   6.190  13.386  0.00  0.00    +0.000 C 
ATOM     20  N   UNL     1      47.608   6.147  14.765  0.00  0.00    +0.000 N 
ATOM     21  H   UNL     1      46.719   6.130  15.243  0.00  0.00    +0.000 HD
BRANCH  19  22
ATOM     22  C   UNL     1      46.334   6.221  12.735  0.00  0.00    +0.000 A 
ATOM     23  C   UNL     1      45.753   7.369  12.220  0.00  0.00    +0.000 A 
ATOM     24  S   UNL     1      44.281   7.063  11.403  0.00  0.00    +0.000 S 
ATOM     25  C   UNL     1      44.386   5.392  11.714  0.00  0.00    +0.000 A 
ATOM     26  N   UNL     1      43.443   4.528  11.255  0.00  0.00    +0.000 NA
ATOM     27  C   UNL     1      43.671   3.289  11.550  0.00  0.00    +0.000 A 
ATOM     28  N   UNL     1      44.744   2.843  12.280  0.00  0.00    +0.000 N 
ATOM     29  C   UNL     1      45.665   3.691  12.857  0.00  0.00    +0.000 A 
ATOM     30  O   UNL     1      46.473   3.275  13.678  0.00  0.00    +0.000 OA
ATOM     31  C   UNL     1      45.503   5.078  12.464  0.00  0.00    +0.000 A 
ATOM     32  H   UNL     1      44.827   1.870  12.536  0.00  0.00    +0.000 HD
ENDBRANCH  19  22
ENDBRANCH   1  20
TORSDOF 7
ENDMDL
MODEL 8
REMARK VINA RESULT:    -7.371      3.671      9.029
REMARK INTER + INTRA:         -10.993
REMARK INTER:                  -8.843
REMARK INTRA:                  -2.150
REMARK UNBOUND:                -0.606
REMARK  Name = 
REMARK  7 active torsions:
REMARK  status: ('A' for Active; 'I' for Inactive)
REMARK    1  A    between atoms: C_2  and  C_20
REMARK    2  A    between atoms: N_3  and  C_4
REMARK    3  A    between atoms: C_4  and  C_5
REMARK    4  A    between atoms: C_8  and  C_9
REMARK    5  A    between atoms: C_9  and  N_10
REMARK    6  A    between atoms: N_10  and  C_11
REMARK    7  A    between atoms: C_11  and  C_12
REMARK                            x       y       z     vdW  Elec       q    Type
REMARK                         _______ _______ _______ _____ _____    ______ ____
ROOT
ATOM      1  C   UNL     1      48.449   5.453  15.874  0.00  0.00    +0.000 C 
ENDROOT
BRANCH   1   2
ATOM      2  C   UNL     1      48.282   4.251  16.822  0.00  0.00    +0.000 C 
ATOM      3  C   UNL     1      49.550   3.927  17.628  0.00  0.00    +0.000 C 
ATOM      4  C   UNL     1      49.894   5.008  18.652  0.00  0.00    +0.000 C 
ATOM      5  C   UNL     1      48.722   5.313  19.602  0.00  0.00    +0.000 C 
ATOM      6  C   UNL     1      47.411   5.561  18.830  0.00  0.00    +0.000 C 
ATOM      7  C   UNL     1      47.116   4.477  17.794  0.00  0.00    +0.000 C 
BRANCH   5   8
ATOM      8  C   UNL     1      49.077   6.511  20.509  0.00  0.00    +0.000 C 
BRANCH   8   9
ATOM      9  N   UNL     1      48.494   7.742  19.975  0.00  0.00    +0.000 NA
ATOM     10  H   UNL     1      47.942   8.207  20.695  0.00  0.00    +0.000 HD
BRANCH   9  11
ATOM     11  C   UNL     1      49.506   8.665  19.472  0.00  0.00    +0.000 C 
BRANCH  11  12
ATOM     12  C   UNL     1      49.445   8.730  17.965  0.00  0.00    +0.000 A 
ATOM     13  C   UNL     1      50.565   8.448  17.182  0.00  0.00    +0.000 A 
ATOM     14  C   UNL     1      50.450   8.536  15.802  0.00  0.00    +0.000 A 
ATOM     15  N   UNL     1      49.314   8.879  15.158  0.00  0.00    +0.000 NA
ATOM     16  C   UNL     1      48.241   9.148  15.933  0.00  0.00    +0.000 A 
ATOM     17  C   UNL     1      48.255   9.084  17.317  0.00  0.00    +0.000 A 
ENDBRANCH  11  12
ENDBRANCH   9  11
ENDBRANCH   8   9
ENDBRANCH   5   8
ENDBRANCH   1   2
BRANCH   1  20
ATOM     18  O   UNL     1      48.642   6.110  13.139  0.00  0.00    +0.000 OA
ATOM     19  C   UNL     1      47.533   5.924  13.628  0.00  0.00    +0.000 C 
ATOM     20  N   UNL     1      47.338   5.592  14.953  0.00  0.00    +0.000 N 
ATOM     21  H   UNL     1      46.399   5.465  15.304  0.00  0.00    +0.000 HD
BRANCH  19  22
ATOM     22  C   UNL     1      46.310   6.077  12.841  0.00  0.00    +0.000 A 
ATOM     23  C   UNL     1      45.799   7.298  12.433  0.00  0.00    +0.000 A 
ATOM     24  S   UNL     1      44.432   7.145  11.417  0.00  0.00    +0.000 S 
ATOM     25  C   UNL     1      44.491   5.445  11.493  0.00  0.00    +0.000 A 
ATOM     26  N   UNL     1      43.603   4.676  10.809  0.00  0.00    +0.000 NA
ATOM     27  C   UNL     1      43.788   3.403  10.947  0.00  0.00    +0.000 A 
ATOM     28  N   UNL     1      44.766   2.833  11.724  0.00  0.00    +0.000 N 
ATOM     29  C   UNL     1      45.617   3.570  12.519  0.00  0.00    +0.000 A 
ATOM     30  O   UNL     1      46.321   3.024  13.359  0.00  0.00    +0.000 OA
ATOM     31  C   UNL     1      45.510   5.003  12.315  0.00  0.00    +0.000 A 
ATOM     32  H   UNL     1      44.813   1.833  11.845  0.00  0.00    +0.000 HD
ENDBRANCH  19  22
ENDBRANCH   1  20
TORSDOF 7
ENDMDL
MODEL 9
REMARK VINA RESULT:    -7.341      3.035      3.489
REMARK INTER + INTRA:         -10.951
REMARK INTER:                  -9.927
REMARK INTRA:                  -1.024
REMARK UNBOUND:                -0.606
REMARK  Name = 
REMARK  7 active torsions:
REMARK  status: ('A' for Active; 'I' for Inactive)
REMARK    1  A    between atoms: C_2  and  C_20
REMARK    2  A    between atoms: N_3  and  C_4
REMARK    3  A    between atoms: C_4  and  C_5
REMARK    4  A    between atoms: C_8  and  C_9
REMARK    5  A    between atoms: C_9  and  N_10
REMARK    6  A    between atoms: N_10  and  C_11
REMARK    7  A    between atoms: C_11  and  C_12
REMARK                            x       y       z     vdW  Elec       q    Type
REMARK                         _______ _______ _______ _____ _____    ______ ____
ROOT
ATOM      1  C   UNL     1      47.733   7.029  12.031  0.00  0.00    +0.000 C 
ENDROOT
BRANCH   1   2
ATOM      2  C   UNL     1      46.571   6.851  13.026  0.00  0.00    +0.000 C 
ATOM      3  C   UNL     1      45.275   7.548  12.584  0.00  0.00    +0.000 C 
ATOM      4  C   UNL     1      44.647   6.902  11.348  0.00  0.00    +0.000 C 
ATOM      5  C   UNL     1      44.407   5.393  11.531  0.00  0.00    +0.000 C 
ATOM      6  C   UNL     1      45.665   4.674  12.055  0.00  0.00    +0.000 C 
ATOM      7  C   UNL     1      46.282   5.364  13.271  0.00  0.00    +0.000 C 
BRANCH   5   8
ATOM      8  C   UNL     1      43.915   4.775  10.204  0.00  0.00    +0.000 C 
BRANCH   8   9
ATOM      9  N   UNL     1      45.054   4.416   9.359  0.00  0.00    +0.000 NA
ATOM     10  H   UNL     1      45.724   3.863   9.893  0.00  0.00    +0.000 HD
BRANCH   9  11
ATOM     11  C   UNL     1      44.653   3.671   8.171  0.00  0.00    +0.000 C 
BRANCH  11  12
ATOM     12  C   UNL     1      45.830   2.906   7.616  0.00  0.00    +0.000 A 
ATOM     13  C   UNL     1      46.607   3.423   6.578  0.00  0.00    +0.000 A 
ATOM     14  C   UNL     1      47.670   2.668   6.104  0.00  0.00    +0.000 A 
ATOM     15  N   UNL     1      48.007   1.452   6.584  0.00  0.00    +0.000 NA
ATOM     16  C   UNL     1      47.243   0.968   7.587  0.00  0.00    +0.000 A 
ATOM     17  C   UNL     1      46.165   1.647   8.131  0.00  0.00    +0.000 A 
ENDBRANCH  11  12
ENDBRANCH   9  11
ENDBRANCH   8   9
ENDBRANCH   5   8
ENDBRANCH   1   2
BRANCH   1  20
ATOM     18  O   UNL     1      48.709   9.363  13.275  0.00  0.00    +0.000 OA
ATOM     19  C   UNL     1      49.408   8.356  13.271  0.00  0.00    +0.000 C 
ATOM     20  N   UNL     1      49.016   7.166  12.694  0.00  0.00    +0.000 N 
ATOM     21  H   UNL     1      49.641   6.372  12.708  0.00  0.00    +0.000 HD
BRANCH  19  22
ATOM     22  C   UNL     1      50.749   8.349  13.854  0.00  0.00    +0.000 A 
ATOM     23  C   UNL     1      51.818   9.070  13.347  0.00  0.00    +0.000 A 
ATOM     24  S   UNL     1      53.220   8.962  14.322  0.00  0.00    +0.000 S 
ATOM     25  C   UNL     1      52.433   7.954  15.446  0.00  0.00    +0.000 A 
ATOM     26  N   UNL     1      53.068   7.510  16.562  0.00  0.00    +0.000 NA
ATOM     27  C   UNL     1      52.335   6.772  17.331  0.00  0.00    +0.000 A 
ATOM     28  N   UNL     1      51.034   6.422  17.072  0.00  0.00    +0.000 N 
ATOM     29  C   UNL     1      50.385   6.757  15.903  0.00  0.00    +0.000 A 
ATOM     30  O   UNL     1      49.312   6.244  15.612  0.00  0.00    +0.000 OA
ATOM     31  C   UNL     1      51.137   7.669  15.061  0.00  0.00    +0.000 A 
ATOM     32  H   UNL     1      50.539   5.785  17.678  0.00  0.00    +0.000 HD
ENDBRANCH  19  22
ENDBRANCH   1  20
TORSDOF 7
ENDMDL
