MODEL 1
REMARK VINA RESULT:    -8.211      0.000      0.000
REMARK INTER + INTRA:         -11.354
REMARK INTER:                 -10.850
REMARK INTRA:                  -0.504
REMARK UNBOUND:                -0.504
REMARK  Name = 
REMARK  6 active torsions:
REMARK  status: ('A' for Active; 'I' for Inactive)
REMARK    1  A    between atoms: N_1  and  C_2
REMARK    2  A    between atoms: C_2  and  C_3
REMARK    3  A    between atoms: C_6  and  C_7
REMARK    4  A    between atoms: C_7  and  N_8
REMARK    5  A    between atoms: N_8  and  C_9
REMARK    6  A    between atoms: C_12  and  C_13
REMARK                            x       y       z     vdW  Elec       q    Type
REMARK                         _______ _______ _______ _____ _____    ______ ____
ROOT
ATOM      1  N   UNL     1      43.734   4.819   9.786  0.00  0.00    +0.000 N 
ATOM      2  H   UNL     1      43.846   5.773   9.456  0.00  0.00    +0.000 HD
ENDROOT
BRANCH   1   3
ATOM      3  C   UNL     1      44.672   4.014   9.156  0.00  0.00    +0.000 A 
ATOM      4  N   UNL     1      45.490   4.663   8.297  0.00  0.00    +0.000 NA
ATOM      5  C   UNL     1      46.387   3.924   7.584  0.00  0.00    +0.000 A 
ATOM      6  C   UNL     1      46.525   2.547   7.682  0.00  0.00    +0.000 A 
ATOM      7  C   UNL     1      45.686   1.892   8.580  0.00  0.00    +0.000 A 
ATOM      8  C   UNL     1      44.756   2.625   9.310  0.00  0.00    +0.000 A 
ATOM      9  F   UNL     1      43.955   1.960  10.154  0.00  0.00    +0.000 F 
BRANCH   6  10
ATOM     10  C   UNL     1      47.492   1.743   6.898  0.00  0.00    +0.000 C 
ATOM     11  N   UNL     1      48.610   2.345   6.394  0.00  0.00    +0.000 N 
ATOM     12  O   UNL     1      47.296   0.550   6.694  0.00  0.00    +0.000 OA
ATOM     13  H   UNL     1      48.846   3.322   6.461  0.00  0.00    +0.000 HD
ATOM     14  H   UNL     1      49.222   1.756   5.844  0.00  0.00    +0.000 HD
ENDBRANCH   6  10
ENDBRANCH   1   3
BRANCH   1  15
ATOM     15  C   UNL     1      43.532   4.681  11.217  0.00  0.00    +0.000 C 
BRANCH  15  19
ATOM     16  C   UNL     1      47.045   6.165  13.288  0.00  0.00    +0.000 A 
ATOM     17  C   UNL     1      46.575   4.864  13.517  0.00  0.00    +0.000 A 
ATOM     18  C   UNL     1      45.429   4.394  12.870  0.00  0.00    +0.000 A 
ATOM     19  C   UNL     1      44.724   5.217  11.979  0.00  0.00    +0.000 A 
ATOM     20  C   UNL     1      45.187   6.520  11.757  0.00  0.00    +0.000 A 
ATOM     21  C   UNL     1      46.335   6.989  12.404  0.00  0.00    +0.000 A 
BRANCH  16  22
ATOM     22  C   UNL     1      48.276   6.674  13.992  0.00  0.00    +0.000 C 
BRANCH  22  23
ATOM     23  N   UNL     1      49.448   6.655  13.123  0.00  0.00    +0.000 NA
ATOM     24  H   UNL     1      49.530   7.555  12.654  0.00  0.00    +0.000 HD
ATOM     25  H   UNL     1      49.303   5.960  12.393  0.00  0.00    +0.000 HD
ENDBRANCH  22  23
ENDBRANCH  16  22
ENDBRANCH  15  19
ENDBRANCH   1  15
TORSDOF 6
ENDMDL
MODEL 2
REMARK VINA RESULT:    -7.902      2.777      6.316
REMARK INTER + INTRA:         -10.946
REMARK INTER:                 -10.324
REMARK INTRA:                  -0.623
REMARK UNBOUND:                -0.504
REMARK  Name = 
REMARK  6 active torsions:
REMARK  status: ('A' for Active; 'I' for Inactive)
REMARK    1  A    between atoms: N_1  and  C_2
REMARK    2  A    between atoms: C_2  and  C_3
REMARK    3  A    between atoms: C_6  and  C_7
REMARK    4  A    between atoms: C_7  and  N_8
REMARK    5  A    between atoms: N_8  and  C_9
REMARK    6  A    between atoms: C_12  and  C_13
REMARK                            x       y       z     vdW  Elec       q    Type
REMARK                         _______ _______ _______ _____ _____    ______ ____
ROOT
ATOM      1  N   UNL     1      44.385   5.575  10.394  0.00  0.00    +0.000 N 
ATOM      2  H   UNL     1      43.732   6.325  10.601  0.00  0.00    +0.000 HD
ENDROOT
BRANCH   1   3
ATOM      3  C   UNL     1      45.142   5.316  11.526  0.00  0.00    +0.000 A 
ATOM      4  N   UNL     1      44.546   4.512  12.437  0.00  0.00    +0.000 NA
ATOM      5  C   UNL     1      45.199   4.275  13.609  0.00  0.00    +0.000 A 
ATOM      6  C   UNL     1      46.442   4.797  13.935  0.00  0.00    +0.000 A 
ATOM      7  C   UNL     1      47.053   5.611  12.985  0.00  0.00    +0.000 A 
ATOM      8  C   UNL     1      46.399   5.875  11.786  0.00  0.00    +0.000 A 
ATOM      9  F   UNL     1      47.011   6.676  10.902  0.00  0.00    +0.000 F 
BRANCH   6  10
ATOM     10  C   UNL     1      47.146   4.547  15.215  0.00  0.00    +0.000 C 
ATOM     11  N   UNL     1      47.788   5.579  15.838  0.00  0.00    +0.000 N 
ATOM     12  O   UNL     1      47.163   3.427  15.713  0.00  0.00    +0.000 OA
ATOM     13  H   UNL     1      47.878   6.523  15.497  0.00  0.00    +0.000 HD
ATOM     14  H   UNL     1      48.276   5.347  16.695  0.00  0.00    +0.000 HD
ENDBRANCH   6  10
ENDBRANCH   1   3
BRANCH   1  15
ATOM     15  C   UNL     1      43.830   4.463   9.645  0.00  0.00    +0.000 C 
BRANCH  15  19
ATOM     16  C   UNL     1      46.863   2.264   7.456  0.00  0.00    +0.000 A 
ATOM     17  C   UNL     1      46.007   1.605   8.350  0.00  0.00    +0.000 A 
ATOM     18  C   UNL     1      45.046   2.317   9.074  0.00  0.00    +0.000 A 
ATOM     19  C   UNL     1      44.922   3.706   8.924  0.00  0.00    +0.000 A 
ATOM     20  C   UNL     1      45.785   4.366   8.039  0.00  0.00    +0.000 A 
ATOM     21  C   UNL     1      46.744   3.653   7.313  0.00  0.00    +0.000 A 
BRANCH  16  22
ATOM     22  C   UNL     1      47.904   1.498   6.681  0.00  0.00    +0.000 C 
BRANCH  22  23
ATOM     23  N   UNL     1      48.371   2.239   5.515  0.00  0.00    +0.000 NA
ATOM     24  H   UNL     1      47.945   3.163   5.515  0.00  0.00    +0.000 HD
ATOM     25  H   UNL     1      48.041   1.768   4.674  0.00  0.00    +0.000 HD
ENDBRANCH  22  23
ENDBRANCH  16  22
ENDBRANCH  15  19
ENDBRANCH   1  15
TORSDOF 6
ENDMDL
MODEL 3
REMARK VINA RESULT:    -7.861      3.134      6.579
REMARK INTER + INTRA:         -10.892
REMARK INTER:                 -10.495
REMARK INTRA:                  -0.398
REMARK UNBOUND:                -0.504
REMARK  Name = 
REMARK  6 active torsions:
REMARK  status: ('A' for Active; 'I' for Inactive)
REMARK    1  A    between atoms: N_1  and  C_2
REMARK    2  A    between atoms: C_2  and  C_3
REMARK    3  A    between atoms: C_6  and  C_7
REMARK    4  A    between atoms: C_7  and  N_8
REMARK    5  A    between atoms: N_8  and  C_9
REMARK    6  A    between atoms: C_12  and  C_13
REMARK                            x       y       z     vdW  Elec       q    Type
REMARK                         _______ _______ _______ _____ _____    ______ ____
ROOT
ATOM      1  N   UNL     1      44.885   3.008  11.588  0.00  0.00    +0.000 N 
ATOM      2  H   UNL     1      45.750   2.475  11.591  0.00  0.00    +0.000 HD
ENDROOT
BRANCH   1   3
ATOM      3  C   UNL     1      45.148   4.292  12.042  0.00  0.00    +0.000 A 
ATOM      4  N   UNL     1      44.342   5.251  11.533  0.00  0.00    +0.000 NA
ATOM      5  C   UNL     1      44.590   6.547  11.875  0.00  0.00    +0.000 A 
ATOM      6  C   UNL     1      45.614   6.954  12.718  0.00  0.00    +0.000 A 
ATOM      7  C   UNL     1      46.430   5.956  13.247  0.00  0.00    +0.000 A 
ATOM      8  C   UNL     1      46.200   4.629  12.902  0.00  0.00    +0.000 A 
ATOM      9  F   UNL     1      47.014   3.697  13.419  0.00  0.00    +0.000 F 
BRANCH   6  10
ATOM     10  C   UNL     1      45.891   8.364  13.081  0.00  0.00    +0.000 C 
ATOM     11  N   UNL     1      44.961   9.323  12.798  0.00  0.00    +0.000 N 
ATOM     12  O   UNL     1      46.945   8.676  13.624  0.00  0.00    +0.000 OA
ATOM     13  H   UNL     1      44.087   9.187  12.315  0.00  0.00    +0.000 HD
ATOM     14  H   UNL     1      45.213  10.273  13.042  0.00  0.00    +0.000 HD
ENDBRANCH   6  10
ENDBRANCH   1   3
BRANCH   1  15
ATOM     15  C   UNL     1      44.056   2.832  10.410  0.00  0.00    +0.000 C 
BRANCH  15  19
ATOM     16  C   UNL     1      46.619   2.759   6.909  0.00  0.00    +0.000 A 
ATOM     17  C   UNL     1      45.933   3.928   7.269  0.00  0.00    +0.000 A 
ATOM     18  C   UNL     1      45.088   3.945   8.382  0.00  0.00    +0.000 A 
ATOM     19  C   UNL     1      44.906   2.791   9.160  0.00  0.00    +0.000 A 
ATOM     20  C   UNL     1      45.584   1.621   8.794  0.00  0.00    +0.000 A 
ATOM     21  C   UNL     1      46.431   1.605   7.681  0.00  0.00    +0.000 A 
BRANCH  16  22
ATOM     22  C   UNL     1      47.525   2.738   5.705  0.00  0.00    +0.000 C 
BRANCH  22  23
ATOM     23  N   UNL     1      48.506   1.662   5.779  0.00  0.00    +0.000 NA
ATOM     24  H   UNL     1      48.089   0.806   5.420  0.00  0.00    +0.000 HD
ATOM     25  H   UNL     1      48.729   1.488   6.758  0.00  0.00    +0.000 HD
ENDBRANCH  22  23
ENDBRANCH  16  22
ENDBRANCH  15  19
ENDBRANCH   1  15
TORSDOF 6
ENDMDL
MODEL 4
REMARK VINA RESULT:    -7.748      2.595      6.258
REMARK INTER + INTRA:         -10.743
REMARK INTER:                 -10.084
REMARK INTRA:                  -0.659
REMARK UNBOUND:                -0.504
REMARK  Name = 
REMARK  6 active torsions:
REMARK  status: ('A' for Active; 'I' for Inactive)
REMARK    1  A    between atoms: N_1  and  C_2
REMARK    2  A    between atoms: C_2  and  C_3
REMARK    3  A    between atoms: C_6  and  C_7
REMARK    4  A    between atoms: C_7  and  N_8
REMARK    5  A    between atoms: N_8  and  C_9
REMARK    6  A    between atoms: C_12  and  C_13
REMARK                            x       y       z     vdW  Elec       q    Type
REMARK                         _______ _______ _______ _____ _____    ______ ____
ROOT
ATOM      1  N   UNL     1      43.911   4.296  11.533  0.00  0.00    +0.000 N 
ATOM      2  H   UNL     1      43.893   3.303  11.748  0.00  0.00    +0.000 HD
ENDROOT
BRANCH   1   3
ATOM      3  C   UNL     1      44.949   4.889  12.236  0.00  0.00    +0.000 A 
ATOM      4  N   UNL     1      44.936   6.241  12.235  0.00  0.00    +0.000 NA
ATOM      5  C   UNL     1      45.968   6.893  12.842  0.00  0.00    +0.000 A 
ATOM      6  C   UNL     1      47.034   6.264  13.469  0.00  0.00    +0.000 A 
ATOM      7  C   UNL     1      47.029   4.871  13.476  0.00  0.00    +0.000 A 
ATOM      8  C   UNL     1      45.992   4.187  12.853  0.00  0.00    +0.000 A 
ATOM      9  F   UNL     1      46.028   2.846  12.865  0.00  0.00    +0.000 F 
BRANCH   6  10
ATOM     10  C   UNL     1      48.161   6.974  14.119  0.00  0.00    +0.000 C 
ATOM     11  N   UNL     1      47.900   8.007  14.973  0.00  0.00    +0.000 N 
ATOM     12  O   UNL     1      49.321   6.647  13.892  0.00  0.00    +0.000 OA
ATOM     13  H   UNL     1      46.993   8.387  15.193  0.00  0.00    +0.000 HD
ATOM     14  H   UNL     1      48.707   8.473  15.367  0.00  0.00    +0.000 HD
ENDBRANCH   6  10
ENDBRANCH   1   3
BRANCH   1  15
ATOM     15  C   UNL     1      43.728   4.626  10.131  0.00  0.00    +0.000 C 
BRANCH  15  19
ATOM     16  C   UNL     1      46.439   2.225   7.742  0.00  0.00    +0.000 A 
ATOM     17  C   UNL     1      46.374   3.615   7.570  0.00  0.00    +0.000 A 
ATOM     18  C   UNL     1      45.483   4.386   8.322  0.00  0.00    +0.000 A 
ATOM     19  C   UNL     1      44.633   3.784   9.261  0.00  0.00    +0.000 A 
ATOM     20  C   UNL     1      44.691   2.393   9.425  0.00  0.00    +0.000 A 
ATOM     21  C   UNL     1      45.583   1.623   8.674  0.00  0.00    +0.000 A 
BRANCH  16  22
ATOM     22  C   UNL     1      47.394   1.392   6.926  0.00  0.00    +0.000 C 
BRANCH  22  23
ATOM     23  N   UNL     1      48.566   2.156   6.510  0.00  0.00    +0.000 NA
ATOM     24  H   UNL     1      48.540   3.073   6.952  0.00  0.00    +0.000 HD
ATOM     25  H   UNL     1      48.511   2.317   5.505  0.00  0.00    +0.000 HD
ENDBRANCH  22  23
ENDBRANCH  16  22
ENDBRANCH  15  19
ENDBRANCH   1  15
TORSDOF 6
ENDMDL
MODEL 5
REMARK VINA RESULT:    -6.521      3.291      6.565
REMARK INTER + INTRA:          -9.121
REMARK INTER:                  -8.701
REMARK INTRA:                  -0.420
REMARK UNBOUND:                -0.504
REMARK  Name = 
REMARK  6 active torsions:
REMARK  status: ('A' for Active; 'I' for Inactive)
REMARK    1  A    between atoms: N_1  and  C_2
REMARK    2  A    between atoms: C_2  and  C_3
REMARK    3  A    between atoms: C_6  and  C_7
REMARK    4  A    between atoms: C_7  and  N_8
REMARK    5  A    between atoms: N_8  and  C_9
REMARK    6  A    between atoms: C_12  and  C_13
REMARK                            x       y       z     vdW  Elec       q    Type
REMARK                         _______ _______ _______ _____ _____    ______ ____
ROOT
ATOM      1  N   UNL     1      44.447   4.958  11.698  0.00  0.00    +0.000 N 
ATOM      2  H   UNL     1      44.786   4.081  12.084  0.00  0.00    +0.000 HD
ENDROOT
BRANCH   1   3
ATOM      3  C   UNL     1      45.396   5.943  11.924  0.00  0.00    +0.000 A 
ATOM      4  N   UNL     1      46.588   5.491  12.378  0.00  0.00    +0.000 NA
ATOM      5  C   UNL     1      47.545   6.408  12.695  0.00  0.00    +0.000 A 
ATOM      6  C   UNL     1      47.385   7.781  12.578  0.00  0.00    +0.000 A 
ATOM      7  C   UNL     1      46.159   8.235  12.097  0.00  0.00    +0.000 A 
ATOM      8  C   UNL     1      45.165   7.316  11.778  0.00  0.00    +0.000 A 
ATOM      9  F   UNL     1      43.993   7.790  11.332  0.00  0.00    +0.000 F 
BRANCH   6  10
ATOM     10  C   UNL     1      48.422   8.779  12.934  0.00  0.00    +0.000 C 
ATOM     11  N   UNL     1      49.275   9.232  11.968  0.00  0.00    +0.000 N 
ATOM     12  O   UNL     1      48.524   9.194  14.083  0.00  0.00    +0.000 OA
ATOM     13  H   UNL     1      49.310   8.926  11.008  0.00  0.00    +0.000 HD
ATOM     14  H   UNL     1      49.980   9.891  12.271  0.00  0.00    +0.000 HD
ENDBRANCH   6  10
ENDBRANCH   1   3
BRANCH   1  15
ATOM     15  C   UNL     1      43.830   4.859  10.388  0.00  0.00    +0.000 C 
BRANCH  15  19
ATOM     16  C   UNL     1      46.193   2.167   7.940  0.00  0.00    +0.000 A 
ATOM     17  C   UNL     1      46.249   3.553   7.737  0.00  0.00    +0.000 A 
ATOM     18  C   UNL     1      45.469   4.419   8.508  0.00  0.00    +0.000 A 
ATOM     19  C   UNL     1      44.612   3.918   9.499  0.00  0.00    +0.000 A 
ATOM     20  C   UNL     1      44.549   2.532   9.695  0.00  0.00    +0.000 A 
ATOM     21  C   UNL     1      45.331   1.666   8.924  0.00  0.00    +0.000 A 
BRANCH  16  22
ATOM     22  C   UNL     1      47.029   1.233   7.103  0.00  0.00    +0.000 C 
BRANCH  22  23
ATOM     23  N   UNL     1      47.172  -0.078   7.727  0.00  0.00    +0.000 NA
ATOM     24  H   UNL     1      46.256  -0.516   7.796  0.00  0.00    +0.000 HD
ATOM     25  H   UNL     1      47.506   0.049   8.681  0.00  0.00    +0.000 HD
ENDBRANCH  22  23
ENDBRANCH  16  22
ENDBRANCH  15  19
ENDBRANCH   1  15
TORSDOF 6
ENDMDL
MODEL 6
REMARK VINA RESULT:    -6.377      4.322      6.104
REMARK INTER + INTRA:          -8.931
REMARK INTER:                  -8.556
REMARK INTRA:                  -0.375
REMARK UNBOUND:                -0.504
REMARK  Name = 
REMARK  6 active torsions:
REMARK  status: ('A' for Active; 'I' for Inactive)
REMARK    1  A    between atoms: N_1  and  C_2
REMARK    2  A    between atoms: C_2  and  C_3
REMARK    3  A    between atoms: C_6  and  C_7
REMARK    4  A    between atoms: C_7  and  N_8
REMARK    5  A    between atoms: N_8  and  C_9
REMARK    6  A    between atoms: C_12  and  C_13
REMARK                            x       y       z     vdW  Elec       q    Type
REMARK                         _______ _______ _______ _____ _____    ______ ____
ROOT
ATOM      1  N   UNL     1      47.186   5.141  15.049  0.00  0.00    +0.000 N 
ATOM      2  H   UNL     1      48.125   5.382  14.745  0.00  0.00    +0.000 HD
ENDROOT
BRANCH   1   3
ATOM      3  C   UNL     1      46.405   4.889  13.931  0.00  0.00    +0.000 A 
ATOM      4  N   UNL     1      46.213   3.579  13.656  0.00  0.00    +0.000 NA
ATOM      5  C   UNL     1      45.519   3.255  12.528  0.00  0.00    +0.000 A 
ATOM      6  C   UNL     1      44.988   4.179  11.640  0.00  0.00    +0.000 A 
ATOM      7  C   UNL     1      45.181   5.525  11.940  0.00  0.00    +0.000 A 
ATOM      8  C   UNL     1      45.895   5.878  13.080  0.00  0.00    +0.000 A 
ATOM      9  F   UNL     1      46.074   7.183  13.330  0.00  0.00    +0.000 F 
BRANCH   6  10
ATOM     10  C   UNL     1      44.244   3.826  10.408  0.00  0.00    +0.000 C 
ATOM     11  N   UNL     1      44.127   4.749   9.408  0.00  0.00    +0.000 N 
ATOM     12  O   UNL     1      43.729   2.720  10.281  0.00  0.00    +0.000 OA
ATOM     13  H   UNL     1      44.468   5.697   9.425  0.00  0.00    +0.000 HD
ATOM     14  H   UNL     1      43.586   4.465   8.601  0.00  0.00    +0.000 HD
ENDBRANCH   6  10
ENDBRANCH   1   3
BRANCH   1  15
ATOM     15  C   UNL     1      47.117   4.232  16.178  0.00  0.00    +0.000 C 
BRANCH  15  19
ATOM     16  C   UNL     1      51.043   3.064  17.607  0.00  0.00    +0.000 A 
ATOM     17  C   UNL     1      50.689   4.418  17.515  0.00  0.00    +0.000 A 
ATOM     18  C   UNL     1      49.433   4.795  17.031  0.00  0.00    +0.000 A 
ATOM     19  C   UNL     1      48.503   3.827  16.624  0.00  0.00    +0.000 A 
ATOM     20  C   UNL     1      48.862   2.475  16.707  0.00  0.00    +0.000 A 
ATOM     21  C   UNL     1      50.117   2.098  17.193  0.00  0.00    +0.000 A 
BRANCH  16  22
ATOM     22  C   UNL     1      52.400   2.658  18.122  0.00  0.00    +0.000 C 
BRANCH  22  23
ATOM     23  N   UNL     1      52.546   1.208  18.190  0.00  0.00    +0.000 NA
ATOM     24  H   UNL     1      52.673   0.841  17.249  0.00  0.00    +0.000 HD
ATOM     25  H   UNL     1      51.677   0.808  18.542  0.00  0.00    +0.000 HD
ENDBRANCH  22  23
ENDBRANCH  16  22
ENDBRANCH  15  19
ENDBRANCH   1  15
TORSDOF 6
ENDMDL
MODEL 7
REMARK VINA RESULT:    -6.088      3.490      4.889
REMARK INTER + INTRA:          -8.548
REMARK INTER:                  -8.111
REMARK INTRA:                  -0.437
REMARK UNBOUND:                -0.504
REMARK  Name = 
REMARK  6 active torsions:
REMARK  status: ('A' for Active; 'I' for Inactive)
REMARK    1  A    between atoms: N_1  and  C_2
REMARK    2  A    between atoms: C_2  and  C_3
REMARK    3  A    between atoms: C_6  and  C_7
REMARK    4  A    between atoms: C_7  and  N_8
REMARK    5  A    between atoms: N_8  and  C_9
REMARK    6  A    between atoms: C_12  and  C_13
REMARK                            x       y       z     vdW  Elec       q    Type
REMARK                         _______ _______ _______ _____ _____    ______ ____
ROOT
ATOM      1  N   UNL     1      46.124   5.870  13.746  0.00  0.00    +0.000 N 
ATOM      2  H   UNL     1      45.600   6.735  13.846  0.00  0.00    +0.000 HD
ENDROOT
BRANCH   1   3
ATOM      3  C   UNL     1      45.681   5.208  12.611  0.00  0.00    +0.000 A 
ATOM      4  N   UNL     1      45.412   3.894  12.789  0.00  0.00    +0.000 NA
ATOM      5  C   UNL     1      45.046   3.160  11.700  0.00  0.00    +0.000 A 
ATOM      6  C   UNL     1      44.923   3.670  10.415  0.00  0.00    +0.000 A 
ATOM      7  C   UNL     1      45.189   5.027  10.247  0.00  0.00    +0.000 A 
ATOM      8  C   UNL     1      45.575   5.791  11.342  0.00  0.00    +0.000 A 
ATOM      9  F   UNL     1      45.838   7.090  11.140  0.00  0.00    +0.000 F 
BRANCH   6  10
ATOM     10  C   UNL     1      44.535   2.870   9.229  0.00  0.00    +0.000 C 
ATOM     11  N   UNL     1      44.349   3.496   8.030  0.00  0.00    +0.000 N 
ATOM     12  O   UNL     1      44.376   1.657   9.317  0.00  0.00    +0.000 OA
ATOM     13  H   UNL     1      44.407   4.487   7.856  0.00  0.00    +0.000 HD
ATOM     14  H   UNL     1      44.058   2.906   7.261  0.00  0.00    +0.000 HD
ENDBRANCH   6  10
ENDBRANCH   1   3
BRANCH   1  15
ATOM     15  C   UNL     1      47.550   5.982  13.987  0.00  0.00    +0.000 C 
BRANCH  15  19
ATOM     16  C   UNL     1      48.421   4.761  18.059  0.00  0.00    +0.000 A 
ATOM     17  C   UNL     1      49.077   5.860  17.486  0.00  0.00    +0.000 A 
ATOM     18  C   UNL     1      48.816   6.238  16.166  0.00  0.00    +0.000 A 
ATOM     19  C   UNL     1      47.893   5.524  15.387  0.00  0.00    +0.000 A 
ATOM     20  C   UNL     1      47.245   4.420  15.957  0.00  0.00    +0.000 A 
ATOM     21  C   UNL     1      47.506   4.043  17.278  0.00  0.00    +0.000 A 
BRANCH  16  22
ATOM     22  C   UNL     1      48.708   4.349  19.480  0.00  0.00    +0.000 C 
BRANCH  22  23
ATOM     23  N   UNL     1      48.343   2.959  19.729  0.00  0.00    +0.000 NA
ATOM     24  H   UNL     1      48.305   2.799  20.733  0.00  0.00    +0.000 HD
ATOM     25  H   UNL     1      49.082   2.357  19.367  0.00  0.00    +0.000 HD
ENDBRANCH  22  23
ENDBRANCH  16  22
ENDBRANCH  15  19
ENDBRANCH   1  15
TORSDOF 6
ENDMDL
MODEL 8
REMARK VINA RESULT:    -5.891      5.054      8.264
REMARK INTER + INTRA:          -8.289
REMARK INTER:                  -7.819
REMARK INTRA:                  -0.470
REMARK UNBOUND:                -0.504
REMARK  Name = 
REMARK  6 active torsions:
REMARK  status: ('A' for Active; 'I' for Inactive)
REMARK    1  A    between atoms: N_1  and  C_2
REMARK    2  A    between atoms: C_2  and  C_3
REMARK    3  A    between atoms: C_6  and  C_7
REMARK    4  A    between atoms: C_7  and  N_8
REMARK    5  A    between atoms: N_8  and  C_9
REMARK    6  A    between atoms: C_12  and  C_13
REMARK                            x       y       z     vdW  Elec       q    Type
REMARK                         _______ _______ _______ _____ _____    ______ ____
ROOT
ATOM      1  N   UNL     1      47.565   5.287  15.969  0.00  0.00    +0.000 N 
ATOM      2  H   UNL     1      46.744   4.705  16.114  0.00  0.00    +0.000 HD
ENDROOT
BRANCH   1   3
ATOM      3  C   UNL     1      48.650   4.693  16.596  0.00  0.00    +0.000 A 
ATOM      4  N   UNL     1      49.755   5.469  16.674  0.00  0.00    +0.000 NA
ATOM      5  C   UNL     1      50.885   4.926  17.209  0.00  0.00    +0.000 A 
ATOM      6  C   UNL     1      50.980   3.628  17.689  0.00  0.00    +0.000 A 
ATOM      7  C   UNL     1      49.832   2.842  17.617  0.00  0.00    +0.000 A 
ATOM      8  C   UNL     1      48.672   3.374  17.064  0.00  0.00    +0.000 A 
ATOM      9  F   UNL     1      47.591   2.584  16.997  0.00  0.00    +0.000 F 
BRANCH   6  10
ATOM     10  C   UNL     1      52.212   3.034  18.260  0.00  0.00    +0.000 C 
ATOM     11  N   UNL     1      52.348   1.675  18.293  0.00  0.00    +0.000 N 
ATOM     12  O   UNL     1      53.103   3.748  18.707  0.00  0.00    +0.000 OA
ATOM     13  H   UNL     1      51.663   0.997  17.998  0.00  0.00    +0.000 HD
ATOM     14  H   UNL     1      53.196   1.323  18.719  0.00  0.00    +0.000 HD
ENDBRANCH   6  10
ENDBRANCH   1   3
BRANCH   1  15
ATOM     15  C   UNL     1      47.724   5.805  14.623  0.00  0.00    +0.000 C 
BRANCH  15  19
ATOM     16  C   UNL     1      44.848   4.115  11.849  0.00  0.00    +0.000 A 
ATOM     17  C   UNL     1      44.957   5.504  12.008  0.00  0.00    +0.000 A 
ATOM     18  C   UNL     1      45.865   6.048  12.920  0.00  0.00    +0.000 A 
ATOM     19  C   UNL     1      46.684   5.215  13.697  0.00  0.00    +0.000 A 
ATOM     20  C   UNL     1      46.568   3.827  13.544  0.00  0.00    +0.000 A 
ATOM     21  C   UNL     1      45.660   3.283  12.631  0.00  0.00    +0.000 A 
BRANCH  16  22
ATOM     22  C   UNL     1      43.863   3.528  10.871  0.00  0.00    +0.000 C 
BRANCH  22  23
ATOM     23  N   UNL     1      42.940   2.600  11.516  0.00  0.00    +0.000 NA
ATOM     24  H   UNL     1      42.806   2.883  12.484  0.00  0.00    +0.000 HD
ATOM     25  H   UNL     1      43.370   1.676  11.540  0.00  0.00    +0.000 HD
ENDBRANCH  22  23
ENDBRANCH  16  22
ENDBRANCH  15  19
ENDBRANCH   1  15
TORSDOF 6
ENDMDL
MODEL 9
REMARK VINA RESULT:    -5.767      5.550      8.178
REMARK INTER + INTRA:          -8.125
REMARK INTER:                  -7.735
REMARK INTRA:                  -0.390
REMARK UNBOUND:                -0.504
REMARK  Name = 
REMARK  6 active torsions:
REMARK  status: ('A' for Active; 'I' for Inactive)
REMARK    1  A    between atoms: N_1  and  C_2
REMARK    2  A    between atoms: C_2  and  C_3
REMARK    3  A    between atoms: C_6  and  C_7
REMARK    4  A    between atoms: C_7  and  N_8
REMARK    5  A    between atoms: N_8  and  C_9
REMARK    6  A    between atoms: C_12  and  C_13
REMARK                            x       y       z     vdW  Elec       q    Type
REMARK                         _______ _______ _______ _____ _____    ______ ____
ROOT
ATOM      1  N   UNL     1      46.651   3.912  15.358  0.00  0.00    +0.000 N 
ATOM      2  H   UNL     1      46.074   3.106  15.582  0.00  0.00    +0.000 HD
ENDROOT
BRANCH   1   3
ATOM      3  C   UNL     1      47.558   4.113  16.388  0.00  0.00    +0.000 A 
ATOM      4  N   UNL     1      48.452   5.104  16.171  0.00  0.00    +0.000 NA
ATOM      5  C   UNL     1      49.422   5.309  17.107  0.00  0.00    +0.000 A 
ATOM      6  C   UNL     1      49.554   4.573  18.275  0.00  0.00    +0.000 A 
ATOM      7  C   UNL     1      48.619   3.564  18.494  0.00  0.00    +0.000 A 
ATOM      8  C   UNL     1      47.628   3.331  17.547  0.00  0.00    +0.000 A 
ATOM      9  F   UNL     1      46.754   2.342  17.784  0.00  0.00    +0.000 F 
BRANCH   6  10
ATOM     10  C   UNL     1      50.616   4.789  19.287  0.00  0.00    +0.000 C 
ATOM     11  N   UNL     1      51.663   3.914  19.356  0.00  0.00    +0.000 N 
ATOM     12  O   UNL     1      50.559   5.737  20.062  0.00  0.00    +0.000 OA
ATOM     13  H   UNL     1      51.785   3.081  18.803  0.00  0.00    +0.000 HD
ATOM     14  H   UNL     1      52.344   4.094  20.083  0.00  0.00    +0.000 HD
ENDBRANCH   6  10
ENDBRANCH   1   3
BRANCH   1  15
ATOM     15  C   UNL     1      47.117   3.974  13.985  0.00  0.00    +0.000 C 
BRANCH  15  19
ATOM     16  C   UNL     1      45.183   7.315  12.005  0.00  0.00    +0.000 A 
ATOM     17  C   UNL     1      44.446   6.184  12.383  0.00  0.00    +0.000 A 
ATOM     18  C   UNL     1      45.073   5.097  12.998  0.00  0.00    +0.000 A 
ATOM     19  C   UNL     1      46.453   5.115  13.246  0.00  0.00    +0.000 A 
ATOM     20  C   UNL     1      47.191   6.241  12.859  0.00  0.00    +0.000 A 
ATOM     21  C   UNL     1      46.563   7.329  12.245  0.00  0.00    +0.000 A 
BRANCH  16  22
ATOM     22  C   UNL     1      44.508   8.484  11.335  0.00  0.00    +0.000 C 
BRANCH  22  23
ATOM     23  N   UNL     1      43.120   8.192  10.996  0.00  0.00    +0.000 NA
ATOM     24  H   UNL     1      43.085   7.760  10.076  0.00  0.00    +0.000 HD
ATOM     25  H   UNL     1      42.609   9.071  10.923  0.00  0.00    +0.000 HD
ENDBRANCH  22  23
ENDBRANCH  16  22
ENDBRANCH  15  19
ENDBRANCH   1  15
TORSDOF 6
ENDMDL
