MODEL 1
REMARK VINA RESULT:    -8.387      0.000      0.000
REMARK INTER + INTRA:         -11.656
REMARK INTER:                 -10.838
REMARK INTRA:                  -0.818
REMARK UNBOUND:                -0.818
REMARK  Name = 
REMARK  5 active torsions:
REMARK  status: ('A' for Active; 'I' for Inactive)
REMARK    1  A    between atoms: C_2  and  C_4
REMARK    2  A    between atoms: C_7  and  N_8
REMARK    3  A    between atoms: N_8  and  C_9
REMARK    4  A    between atoms: C_9  and  C_10
REMARK    5  A    between atoms: C_14  and  N_15
REMARK                            x       y       z     vdW  Elec       q    Type
REMARK                         _______ _______ _______ _____ _____    ______ ____
ROOT
ATOM      1  N   UNL     1      43.587   4.435  10.235  0.00  0.00    +0.000 N 
ATOM      2  H   UNL     1      42.996   3.760  10.716  0.00  0.00    +0.000 HD
ENDROOT
BRANCH   1   6
ATOM      3  C   UNL     1      46.428   2.501   7.781  0.00  0.00    +0.000 A 
ATOM      4  C   UNL     1      46.293   3.888   7.715  0.00  0.00    +0.000 A 
ATOM      5  C   UNL     1      45.371   4.543   8.540  0.00  0.00    +0.000 A 
ATOM      6  C   UNL     1      44.587   3.840   9.464  0.00  0.00    +0.000 A 
ATOM      7  C   UNL     1      44.727   2.445   9.507  0.00  0.00    +0.000 A 
ATOM      8  C   UNL     1      45.633   1.778   8.672  0.00  0.00    +0.000 A 
BRANCH   3  10
ATOM      9  N   UNL     1      48.455   2.449   6.431  0.00  0.00    +0.000 N 
ATOM     10  C   UNL     1      47.359   1.768   6.884  0.00  0.00    +0.000 C 
ATOM     11  O   UNL     1      47.175   0.597   6.582  0.00  0.00    +0.000 OA
ATOM     12  H   UNL     1      49.126   1.913   5.896  0.00  0.00    +0.000 HD
ATOM     13  H   UNL     1      48.772   3.310   6.854  0.00  0.00    +0.000 HD
ENDBRANCH   3  10
ENDBRANCH   1   6
BRANCH   1  14
ATOM     14  C   UNL     1      43.864   5.645  10.996  0.00  0.00    +0.000 C 
BRANCH  14  15
ATOM     15  C   UNL     1      44.945   5.407  12.011  0.00  0.00    +0.000 A 
ATOM     16  C   UNL     1      44.807   4.426  12.987  0.00  0.00    +0.000 A 
ATOM     17  N   UNL     1      45.746   4.147  13.913  0.00  0.00    +0.000 NA
ATOM     18  C   UNL     1      46.886   4.885  13.862  0.00  0.00    +0.000 A 
ATOM     19  C   UNL     1      47.162   5.882  12.926  0.00  0.00    +0.000 A 
ATOM     20  C   UNL     1      46.148   6.124  11.990  0.00  0.00    +0.000 A 
BRANCH  19  21
ATOM     21  N   UNL     1      48.314   6.659  12.900  0.00  0.00    +0.000 N 
ATOM     22  C   UNL     1      48.575   7.547  11.754  0.00  0.00    +0.000 C 
ATOM     23  C   UNL     1      50.066   7.928  11.763  0.00  0.00    +0.000 C 
ATOM     24  O   UNL     1      50.440   8.562  13.001  0.00  0.00    +0.000 OA
ATOM     25  C   UNL     1      50.182   7.685  14.112  0.00  0.00    +0.000 C 
ATOM     26  C   UNL     1      48.698   7.287  14.183  0.00  0.00    +0.000 C 
ENDBRANCH  19  21
ENDBRANCH  14  15
ENDBRANCH   1  14
TORSDOF 5
ENDMDL
MODEL 2
REMARK VINA RESULT:    -8.321      1.100      1.791
REMARK INTER + INTRA:         -11.571
REMARK INTER:                 -10.774
REMARK INTRA:                  -0.797
REMARK UNBOUND:                -0.818
REMARK  Name = 
REMARK  5 active torsions:
REMARK  status: ('A' for Active; 'I' for Inactive)
REMARK    1  A    between atoms: C_2  and  C_4
REMARK    2  A    between atoms: C_7  and  N_8
REMARK    3  A    between atoms: N_8  and  C_9
REMARK    4  A    between atoms: C_9  and  C_10
REMARK    5  A    between atoms: C_14  and  N_15
REMARK                            x       y       z     vdW  Elec       q    Type
REMARK                         _______ _______ _______ _____ _____    ______ ____
ROOT
ATOM      1  N   UNL     1      43.764   4.844   9.931  0.00  0.00    +0.000 N 
ATOM      2  H   UNL     1      42.968   5.225   9.425  0.00  0.00    +0.000 HD
ENDROOT
BRANCH   1   6
ATOM      3  C   UNL     1      46.440   2.484   7.673  0.00  0.00    +0.000 A 
ATOM      4  C   UNL     1      45.488   1.862   8.481  0.00  0.00    +0.000 A 
ATOM      5  C   UNL     1      44.581   2.633   9.216  0.00  0.00    +0.000 A 
ATOM      6  C   UNL     1      44.581   4.032   9.144  0.00  0.00    +0.000 A 
ATOM      7  C   UNL     1      45.553   4.641   8.337  0.00  0.00    +0.000 A 
ATOM      8  C   UNL     1      46.479   3.879   7.611  0.00  0.00    +0.000 A 
BRANCH   3  10
ATOM      9  N   UNL     1      48.539   2.378   6.441  0.00  0.00    +0.000 N 
ATOM     10  C   UNL     1      47.452   1.699   6.919  0.00  0.00    +0.000 C 
ATOM     11  O   UNL     1      47.338   0.492   6.751  0.00  0.00    +0.000 OA
ATOM     12  H   UNL     1      49.262   1.817   6.009  0.00  0.00    +0.000 HD
ATOM     13  H   UNL     1      48.792   3.298   6.772  0.00  0.00    +0.000 HD
ENDBRANCH   3  10
ENDBRANCH   1   6
BRANCH   1  14
ATOM     14  C   UNL     1      43.484   4.488  11.315  0.00  0.00    +0.000 C 
BRANCH  14  15
ATOM     15  C   UNL     1      44.722   4.589  12.158  0.00  0.00    +0.000 A 
ATOM     16  C   UNL     1      45.296   3.457  12.727  0.00  0.00    +0.000 A 
ATOM     17  N   UNL     1      46.416   3.476  13.475  0.00  0.00    +0.000 NA
ATOM     18  C   UNL     1      46.999   4.689  13.665  0.00  0.00    +0.000 A 
ATOM     19  C   UNL     1      46.542   5.896  13.136  0.00  0.00    +0.000 A 
ATOM     20  C   UNL     1      45.374   5.811  12.367  0.00  0.00    +0.000 A 
BRANCH  19  21
ATOM     21  N   UNL     1      47.120   7.139  13.364  0.00  0.00    +0.000 N 
ATOM     22  C   UNL     1      48.350   7.240  14.171  0.00  0.00    +0.000 C 
ATOM     23  C   UNL     1      48.514   8.701  14.627  0.00  0.00    +0.000 C 
ATOM     24  O   UNL     1      48.559   9.601  13.505  0.00  0.00    +0.000 OA
ATOM     25  C   UNL     1      47.354   9.495  12.726  0.00  0.00    +0.000 C 
ATOM     26  C   UNL     1      47.143   8.063  12.208  0.00  0.00    +0.000 C 
ENDBRANCH  19  21
ENDBRANCH  14  15
ENDBRANCH   1  14
TORSDOF 5
ENDMDL
MODEL 3
REMARK VINA RESULT:    -7.955      1.890      2.660
REMARK INTER + INTRA:         -11.097
REMARK INTER:                 -10.368
REMARK INTRA:                  -0.729
REMARK UNBOUND:                -0.818
REMARK  Name = 
REMARK  5 active torsions:
REMARK  status: ('A' for Active; 'I' for Inactive)
REMARK    1  A    between atoms: C_2  and  C_4
REMARK    2  A    between atoms: C_7  and  N_8
REMARK    3  A    between atoms: N_8  and  C_9
REMARK    4  A    between atoms: C_9  and  C_10
REMARK    5  A    between atoms: C_14  and  N_15
REMARK                            x       y       z     vdW  Elec       q    Type
REMARK                         _______ _______ _______ _____ _____    ______ ____
ROOT
ATOM      1  N   UNL     1      43.773   4.752   9.753  0.00  0.00    +0.000 N 
ATOM      2  H   UNL     1      42.882   4.728   9.263  0.00  0.00    +0.000 HD
ENDROOT
BRANCH   1   6
ATOM      3  C   UNL     1      46.646   2.515   7.613  0.00  0.00    +0.000 A 
ATOM      4  C   UNL     1      46.676   3.909   7.556  0.00  0.00    +0.000 A 
ATOM      5  C   UNL     1      45.743   4.661   8.279  0.00  0.00    +0.000 A 
ATOM      6  C   UNL     1      44.782   4.050   9.094  0.00  0.00    +0.000 A 
ATOM      7  C   UNL     1      44.758   2.648   9.130  0.00  0.00    +0.000 A 
ATOM      8  C   UNL     1      45.675   1.884   8.394  0.00  0.00    +0.000 A 
BRANCH   3  10
ATOM      9  N   UNL     1      48.230   2.293   5.777  0.00  0.00    +0.000 N 
ATOM     10  C   UNL     1      47.587   1.684   6.819  0.00  0.00    +0.000 C 
ATOM     11  O   UNL     1      47.802   0.512   7.095  0.00  0.00    +0.000 OA
ATOM     12  H   UNL     1      48.934   1.742   5.302  0.00  0.00    +0.000 HD
ATOM     13  H   UNL     1      48.275   3.297   5.680  0.00  0.00    +0.000 HD
ENDBRANCH   3  10
ENDBRANCH   1   6
BRANCH   1  14
ATOM     14  C   UNL     1      43.665   4.700  11.204  0.00  0.00    +0.000 C 
BRANCH  14  15
ATOM     15  C   UNL     1      44.742   5.520  11.853  0.00  0.00    +0.000 A 
ATOM     16  C   UNL     1      45.068   6.784  11.373  0.00  0.00    +0.000 A 
ATOM     17  N   UNL     1      46.007   7.579  11.921  0.00  0.00    +0.000 NA
ATOM     18  C   UNL     1      46.657   7.090  13.009  0.00  0.00    +0.000 A 
ATOM     19  C   UNL     1      46.415   5.851  13.605  0.00  0.00    +0.000 A 
ATOM     20  C   UNL     1      45.427   5.071  12.989  0.00  0.00    +0.000 A 
BRANCH  19  21
ATOM     21  N   UNL     1      47.108   5.339  14.696  0.00  0.00    +0.000 N 
ATOM     22  C   UNL     1      47.227   3.880  14.871  0.00  0.00    +0.000 C 
ATOM     23  C   UNL     1      47.628   3.597  16.329  0.00  0.00    +0.000 C 
ATOM     24  O   UNL     1      48.858   4.259  16.676  0.00  0.00    +0.000 OA
ATOM     25  C   UNL     1      48.729   5.682  16.503  0.00  0.00    +0.000 C 
ATOM     26  C   UNL     1      48.360   6.041  15.054  0.00  0.00    +0.000 C 
ENDBRANCH  19  21
ENDBRANCH  14  15
ENDBRANCH   1  14
TORSDOF 5
ENDMDL
MODEL 4
REMARK VINA RESULT:    -7.196      1.695      6.617
REMARK INTER + INTRA:         -10.117
REMARK INTER:                  -9.256
REMARK INTRA:                  -0.861
REMARK UNBOUND:                -0.818
REMARK  Name = 
REMARK  5 active torsions:
REMARK  status: ('A' for Active; 'I' for Inactive)
REMARK    1  A    between atoms: C_2  and  C_4
REMARK    2  A    between atoms: C_7  and  N_8
REMARK    3  A    between atoms: N_8  and  C_9
REMARK    4  A    between atoms: C_9  and  C_10
REMARK    5  A    between atoms: C_14  and  N_15
REMARK                            x       y       z     vdW  Elec       q    Type
REMARK                         _______ _______ _______ _____ _____    ______ ____
ROOT
ATOM      1  N   UNL     1      44.095   6.647  12.612  0.00  0.00    +0.000 N 
ATOM      2  H   UNL     1      43.623   7.375  13.143  0.00  0.00    +0.000 HD
ENDROOT
BRANCH   1   6
ATOM      3  C   UNL     1      48.278   7.148  12.909  0.00  0.00    +0.000 A 
ATOM      4  C   UNL     1      47.665   6.077  13.560  0.00  0.00    +0.000 A 
ATOM      5  C   UNL     1      46.283   5.888  13.451  0.00  0.00    +0.000 A 
ATOM      6  C   UNL     1      45.486   6.737  12.672  0.00  0.00    +0.000 A 
ATOM      7  C   UNL     1      46.117   7.816  12.035  0.00  0.00    +0.000 A 
ATOM      8  C   UNL     1      47.497   8.026  12.153  0.00  0.00    +0.000 A 
BRANCH   3  10
ATOM      9  N   UNL     1      50.466   7.477  11.891  0.00  0.00    +0.000 N 
ATOM     10  C   UNL     1      49.734   7.410  13.045  0.00  0.00    +0.000 C 
ATOM     11  O   UNL     1      50.258   7.588  14.136  0.00  0.00    +0.000 OA
ATOM     12  H   UNL     1      51.437   7.745  11.992  0.00  0.00    +0.000 HD
ATOM     13  H   UNL     1      50.039   7.591  10.984  0.00  0.00    +0.000 HD
ENDBRANCH   3  10
ENDBRANCH   1   6
BRANCH   1  14
ATOM     14  C   UNL     1      43.432   6.279  11.369  0.00  0.00    +0.000 C 
BRANCH  14  15
ATOM     15  C   UNL     1      43.656   4.830  11.049  0.00  0.00    +0.000 A 
ATOM     16  C   UNL     1      43.019   3.829  11.773  0.00  0.00    +0.000 A 
ATOM     17  N   UNL     1      43.160   2.512  11.524  0.00  0.00    +0.000 NA
ATOM     18  C   UNL     1      43.979   2.174  10.494  0.00  0.00    +0.000 A 
ATOM     19  C   UNL     1      44.661   3.074   9.675  0.00  0.00    +0.000 A 
ATOM     20  C   UNL     1      44.473   4.428   9.984  0.00  0.00    +0.000 A 
BRANCH  19  21
ATOM     21  N   UNL     1      45.526   2.723   8.646  0.00  0.00    +0.000 N 
ATOM     22  C   UNL     1      45.767   1.300   8.343  0.00  0.00    +0.000 C 
ATOM     23  C   UNL     1      47.052   1.192   7.504  0.00  0.00    +0.000 C 
ATOM     24  O   UNL     1      46.958   1.967   6.294  0.00  0.00    +0.000 OA
ATOM     25  C   UNL     1      46.725   3.353   6.602  0.00  0.00    +0.000 C 
ATOM     26  C   UNL     1      45.433   3.539   7.416  0.00  0.00    +0.000 C 
ENDBRANCH  19  21
ENDBRANCH  14  15
ENDBRANCH   1  14
TORSDOF 5
ENDMDL
MODEL 5
REMARK VINA RESULT:    -6.640      2.017      6.897
REMARK INTER + INTRA:          -9.398
REMARK INTER:                  -8.713
REMARK INTRA:                  -0.685
REMARK UNBOUND:                -0.818
REMARK  Name = 
REMARK  5 active torsions:
REMARK  status: ('A' for Active; 'I' for Inactive)
REMARK    1  A    between atoms: C_2  and  C_4
REMARK    2  A    between atoms: C_7  and  N_8
REMARK    3  A    between atoms: N_8  and  C_9
REMARK    4  A    between atoms: C_9  and  C_10
REMARK    5  A    between atoms: C_14  and  N_15
REMARK                            x       y       z     vdW  Elec       q    Type
REMARK                         _______ _______ _______ _____ _____    ______ ____
ROOT
ATOM      1  N   UNL     1      45.852   6.099  13.253  0.00  0.00    +0.000 N 
ATOM      2  H   UNL     1      45.950   5.824  14.227  0.00  0.00    +0.000 HD
ENDROOT
BRANCH   1   6
ATOM      3  C   UNL     1      48.282   9.295  11.942  0.00  0.00    +0.000 A 
ATOM      4  C   UNL     1      47.106   9.567  12.641  0.00  0.00    +0.000 A 
ATOM      5  C   UNL     1      46.304   8.516  13.100  0.00  0.00    +0.000 A 
ATOM      6  C   UNL     1      46.666   7.177  12.901  0.00  0.00    +0.000 A 
ATOM      7  C   UNL     1      47.845   6.922  12.185  0.00  0.00    +0.000 A 
ATOM      8  C   UNL     1      48.645   7.966  11.704  0.00  0.00    +0.000 A 
BRANCH   3  10
ATOM      9  N   UNL     1      48.568  11.200  10.452  0.00  0.00    +0.000 N 
ATOM     10  C   UNL     1      49.131  10.385  11.394  0.00  0.00    +0.000 C 
ATOM     11  O   UNL     1      50.276  10.568  11.785  0.00  0.00    +0.000 OA
ATOM     12  H   UNL     1      49.125  11.991  10.154  0.00  0.00    +0.000 HD
ATOM     13  H   UNL     1      47.571  11.242  10.296  0.00  0.00    +0.000 HD
ENDBRANCH   3  10
ENDBRANCH   1   6
BRANCH   1  14
ATOM     14  C   UNL     1      44.498   5.996  12.729  0.00  0.00    +0.000 C 
BRANCH  14  15
ATOM     15  C   UNL     1      44.302   4.701  11.996  0.00  0.00    +0.000 A 
ATOM     16  C   UNL     1      43.368   3.766  12.430  0.00  0.00    +0.000 A 
ATOM     17  N   UNL     1      43.128   2.596  11.808  0.00  0.00    +0.000 NA
ATOM     18  C   UNL     1      43.856   2.342  10.690  0.00  0.00    +0.000 A 
ATOM     19  C   UNL     1      44.808   3.199  10.135  0.00  0.00    +0.000 A 
ATOM     20  C   UNL     1      45.012   4.400  10.827  0.00  0.00    +0.000 A 
BRANCH  19  21
ATOM     21  N   UNL     1      45.577   2.919   9.011  0.00  0.00    +0.000 N 
ATOM     22  C   UNL     1      45.678   1.535   8.517  0.00  0.00    +0.000 C 
ATOM     23  C   UNL     1      46.897   1.440   7.582  0.00  0.00    +0.000 C 
ATOM     24  O   UNL     1      46.796   2.370   6.488  0.00  0.00    +0.000 OA
ATOM     25  C   UNL     1      46.700   3.718   6.983  0.00  0.00    +0.000 C 
ATOM     26  C   UNL     1      45.480   3.894   7.903  0.00  0.00    +0.000 C 
ENDBRANCH  19  21
ENDBRANCH  14  15
ENDBRANCH   1  14
TORSDOF 5
ENDMDL
MODEL 6
REMARK VINA RESULT:    -6.588      2.004      7.130
REMARK INTER + INTRA:          -9.332
REMARK INTER:                  -8.934
REMARK INTRA:                  -0.397
REMARK UNBOUND:                -0.818
REMARK  Name = 
REMARK  5 active torsions:
REMARK  status: ('A' for Active; 'I' for Inactive)
REMARK    1  A    between atoms: C_2  and  C_4
REMARK    2  A    between atoms: C_7  and  N_8
REMARK    3  A    between atoms: N_8  and  C_9
REMARK    4  A    between atoms: C_9  and  C_10
REMARK    5  A    between atoms: C_14  and  N_15
REMARK                            x       y       z     vdW  Elec       q    Type
REMARK                         _______ _______ _______ _____ _____    ______ ____
ROOT
ATOM      1  N   UNL     1      46.312   6.651  11.397  0.00  0.00    +0.000 N 
ATOM      2  H   UNL     1      46.955   6.368  10.661  0.00  0.00    +0.000 HD
ENDROOT
BRANCH   1   6
ATOM      3  C   UNL     1      47.873   5.696  15.203  0.00  0.00    +0.000 A 
ATOM      4  C   UNL     1      48.422   6.756  14.480  0.00  0.00    +0.000 A 
ATOM      5  C   UNL     1      47.899   7.096  13.227  0.00  0.00    +0.000 A 
ATOM      6  C   UNL     1      46.804   6.413  12.680  0.00  0.00    +0.000 A 
ATOM      7  C   UNL     1      46.273   5.343  13.415  0.00  0.00    +0.000 A 
ATOM      8  C   UNL     1      46.802   4.981  14.661  0.00  0.00    +0.000 A 
BRANCH   3  10
ATOM      9  N   UNL     1      47.548   5.003  17.515  0.00  0.00    +0.000 N 
ATOM     10  C   UNL     1      48.437   5.274  16.511  0.00  0.00    +0.000 C 
ATOM     11  O   UNL     1      49.641   5.145  16.683  0.00  0.00    +0.000 OA
ATOM     12  H   UNL     1      47.939   4.630  18.370  0.00  0.00    +0.000 HD
ATOM     13  H   UNL     1      46.565   4.850  17.342  0.00  0.00    +0.000 HD
ENDBRANCH   3  10
ENDBRANCH   1   6
BRANCH   1  14
ATOM     14  C   UNL     1      44.907   6.421  11.091  0.00  0.00    +0.000 C 
BRANCH  14  15
ATOM     15  C   UNL     1      44.687   5.022  10.595  0.00  0.00    +0.000 A 
ATOM     16  C   UNL     1      43.755   4.185  11.200  0.00  0.00    +0.000 A 
ATOM     17  N   UNL     1      43.494   2.928  10.792  0.00  0.00    +0.000 NA
ATOM     18  C   UNL     1      44.198   2.479   9.720  0.00  0.00    +0.000 A 
ATOM     19  C   UNL     1      45.145   3.218   9.009  0.00  0.00    +0.000 A 
ATOM     20  C   UNL     1      45.371   4.517   9.481  0.00  0.00    +0.000 A 
BRANCH  19  21
ATOM     21  N   UNL     1      45.888   2.743   7.935  0.00  0.00    +0.000 N 
ATOM     22  C   UNL     1      46.714   3.673   7.145  0.00  0.00    +0.000 C 
ATOM     23  C   UNL     1      47.057   3.001   5.804  0.00  0.00    +0.000 C 
ATOM     24  O   UNL     1      47.738   1.748   6.001  0.00  0.00    +0.000 OA
ATOM     25  C   UNL     1      46.922   0.848   6.771  0.00  0.00    +0.000 C 
ATOM     26  C   UNL     1      46.567   1.445   8.144  0.00  0.00    +0.000 C 
ENDBRANCH  19  21
ENDBRANCH  14  15
ENDBRANCH   1  14
TORSDOF 5
ENDMDL
MODEL 7
REMARK VINA RESULT:    -6.498      2.652      7.633
REMARK INTER + INTRA:          -9.215
REMARK INTER:                  -8.615
REMARK INTRA:                  -0.600
REMARK UNBOUND:                -0.818
REMARK  Name = 
REMARK  5 active torsions:
REMARK  status: ('A' for Active; 'I' for Inactive)
REMARK    1  A    between atoms: C_2  and  C_4
REMARK    2  A    between atoms: C_7  and  N_8
REMARK    3  A    between atoms: N_8  and  C_9
REMARK    4  A    between atoms: C_9  and  C_10
REMARK    5  A    between atoms: C_14  and  N_15
REMARK                            x       y       z     vdW  Elec       q    Type
REMARK                         _______ _______ _______ _____ _____    ______ ____
ROOT
ATOM      1  N   UNL     1      46.675   5.880  13.132  0.00  0.00    +0.000 N 
ATOM      2  H   UNL     1      47.149   5.536  12.299  0.00  0.00    +0.000 HD
ENDROOT
BRANCH   1   6
ATOM      3  C   UNL     1      48.457   4.916  16.837  0.00  0.00    +0.000 A 
ATOM      4  C   UNL     1      47.530   4.041  16.271  0.00  0.00    +0.000 A 
ATOM      5  C   UNL     1      46.949   4.339  15.033  0.00  0.00    +0.000 A 
ATOM      6  C   UNL     1      47.297   5.492  14.319  0.00  0.00    +0.000 A 
ATOM      7  C   UNL     1      48.222   6.367  14.908  0.00  0.00    +0.000 A 
ATOM      8  C   UNL     1      48.795   6.089  16.157  0.00  0.00    +0.000 A 
BRANCH   3  10
ATOM      9  N   UNL     1      49.422   3.371  18.454  0.00  0.00    +0.000 N 
ATOM     10  C   UNL     1      49.054   4.658  18.173  0.00  0.00    +0.000 C 
ATOM     11  O   UNL     1      49.238   5.558  18.981  0.00  0.00    +0.000 OA
ATOM     12  H   UNL     1      49.909   3.226  19.330  0.00  0.00    +0.000 HD
ATOM     13  H   UNL     1      49.524   2.667  17.738  0.00  0.00    +0.000 HD
ENDBRANCH   3  10
ENDBRANCH   1   6
BRANCH   1  14
ATOM     14  C   UNL     1      45.223   5.903  13.033  0.00  0.00    +0.000 C 
BRANCH  14  15
ATOM     15  C   UNL     1      44.723   4.773  12.181  0.00  0.00    +0.000 A 
ATOM     16  C   UNL     1      43.562   4.084  12.514  0.00  0.00    +0.000 A 
ATOM     17  N   UNL     1      43.049   3.075  11.783  0.00  0.00    +0.000 NA
ATOM     18  C   UNL     1      43.728   2.735  10.656  0.00  0.00    +0.000 A 
ATOM     19  C   UNL     1      44.891   3.355  10.196  0.00  0.00    +0.000 A 
ATOM     20  C   UNL     1      45.374   4.396  10.999  0.00  0.00    +0.000 A 
BRANCH  19  21
ATOM     21  N   UNL     1      45.602   2.980   9.062  0.00  0.00    +0.000 N 
ATOM     22  C   UNL     1      45.568   1.580   8.605  0.00  0.00    +0.000 C 
ATOM     23  C   UNL     1      46.749   1.353   7.644  0.00  0.00    +0.000 C 
ATOM     24  O   UNL     1      46.701   2.261   6.527  0.00  0.00    +0.000 OA
ATOM     25  C   UNL     1      46.736   3.624   6.986  0.00  0.00    +0.000 C 
ATOM     26  C   UNL     1      45.561   3.931   7.930  0.00  0.00    +0.000 C 
ENDBRANCH  19  21
ENDBRANCH  14  15
ENDBRANCH   1  14
TORSDOF 5
ENDMDL
MODEL 8
REMARK VINA RESULT:    -6.268      4.704      8.329
REMARK INTER + INTRA:          -8.917
REMARK INTER:                  -8.323
REMARK INTRA:                  -0.594
REMARK UNBOUND:                -0.818
REMARK  Name = 
REMARK  5 active torsions:
REMARK  status: ('A' for Active; 'I' for Inactive)
REMARK    1  A    between atoms: C_2  and  C_4
REMARK    2  A    between atoms: C_7  and  N_8
REMARK    3  A    between atoms: N_8  and  C_9
REMARK    4  A    between atoms: C_9  and  C_10
REMARK    5  A    between atoms: C_14  and  N_15
REMARK                            x       y       z     vdW  Elec       q    Type
REMARK                         _______ _______ _______ _____ _____    ______ ____
ROOT
ATOM      1  N   UNL     1      48.893   4.983  17.144  0.00  0.00    +0.000 N 
ATOM      2  H   UNL     1      49.232   5.872  16.783  0.00  0.00    +0.000 HD
ENDROOT
BRANCH   1   6
ATOM      3  C   UNL     1      51.972   2.141  17.668  0.00  0.00    +0.000 A 
ATOM      4  C   UNL     1      52.236   3.492  17.897  0.00  0.00    +0.000 A 
ATOM      5  C   UNL     1      51.218   4.440  17.749  0.00  0.00    +0.000 A 
ATOM      6  C   UNL     1      49.914   4.067  17.399  0.00  0.00    +0.000 A 
ATOM      7  C   UNL     1      49.670   2.707  17.160  0.00  0.00    +0.000 A 
ATOM      8  C   UNL     1      50.686   1.750  17.286  0.00  0.00    +0.000 A 
BRANCH   3  10
ATOM      9  N   UNL     1      52.685  -0.112  18.257  0.00  0.00    +0.000 N 
ATOM     10  C   UNL     1      53.041   1.113  17.765  0.00  0.00    +0.000 C 
ATOM     11  O   UNL     1      54.186   1.336  17.396  0.00  0.00    +0.000 OA
ATOM     12  H   UNL     1      53.399  -0.829  18.234  0.00  0.00    +0.000 HD
ATOM     13  H   UNL     1      51.722  -0.410  18.327  0.00  0.00    +0.000 HD
ENDBRANCH   3  10
ENDBRANCH   1   6
BRANCH   1  14
ATOM     14  C   UNL     1      47.631   4.540  16.570  0.00  0.00    +0.000 C 
BRANCH  14  15
ATOM     15  C   UNL     1      47.432   5.117  15.198  0.00  0.00    +0.000 A 
ATOM     16  C   UNL     1      48.241   6.146  14.729  0.00  0.00    +0.000 A 
ATOM     17  N   UNL     1      48.130   6.693  13.503  0.00  0.00    +0.000 NA
ATOM     18  C   UNL     1      47.161   6.185  12.697  0.00  0.00    +0.000 A 
ATOM     19  C   UNL     1      46.296   5.142  13.033  0.00  0.00    +0.000 A 
ATOM     20  C   UNL     1      46.462   4.616  14.321  0.00  0.00    +0.000 A 
BRANCH  19  21
ATOM     21  N   UNL     1      45.282   4.651  12.219  0.00  0.00    +0.000 N 
ATOM     22  C   UNL     1      45.230   5.036  10.798  0.00  0.00    +0.000 C 
ATOM     23  C   UNL     1      43.819   4.735  10.263  0.00  0.00    +0.000 C 
ATOM     24  O   UNL     1      43.477   3.347  10.433  0.00  0.00    +0.000 OA
ATOM     25  C   UNL     1      43.529   2.983  11.824  0.00  0.00    +0.000 C 
ATOM     26  C   UNL     1      44.927   3.229  12.418  0.00  0.00    +0.000 C 
ENDBRANCH  19  21
ENDBRANCH  14  15
ENDBRANCH   1  14
TORSDOF 5
ENDMDL
MODEL 9
REMARK VINA RESULT:    -6.017      3.273      5.176
REMARK INTER + INTRA:          -8.594
REMARK INTER:                  -7.965
REMARK INTRA:                  -0.629
REMARK UNBOUND:                -0.818
REMARK  Name = 
REMARK  5 active torsions:
REMARK  status: ('A' for Active; 'I' for Inactive)
REMARK    1  A    between atoms: C_2  and  C_4
REMARK    2  A    between atoms: C_7  and  N_8
REMARK    3  A    between atoms: N_8  and  C_9
REMARK    4  A    between atoms: C_9  and  C_10
REMARK    5  A    between atoms: C_14  and  N_15
REMARK                            x       y       z     vdW  Elec       q    Type
REMARK                         _______ _______ _______ _____ _____    ______ ____
ROOT
ATOM      1  N   UNL     1      46.349   7.586  12.860  0.00  0.00    +0.000 N 
ATOM      2  H   UNL     1      46.059   7.759  13.820  0.00  0.00    +0.000 HD
ENDROOT
BRANCH   1   6
ATOM      3  C   UNL     1      44.623   4.021  11.395  0.00  0.00    +0.000 A 
ATOM      4  C   UNL     1      45.164   4.943  10.498  0.00  0.00    +0.000 A 
ATOM      5  C   UNL     1      45.759   6.117  10.973  0.00  0.00    +0.000 A 
ATOM      6  C   UNL     1      45.855   6.387  12.344  0.00  0.00    +0.000 A 
ATOM      7  C   UNL     1      45.295   5.455  13.231  0.00  0.00    +0.000 A 
ATOM      8  C   UNL     1      44.679   4.285  12.765  0.00  0.00    +0.000 A 
BRANCH   3  10
ATOM      9  N   UNL     1      44.489   2.139   9.854  0.00  0.00    +0.000 N 
ATOM     10  C   UNL     1      43.938   2.789  10.924  0.00  0.00    +0.000 C 
ATOM     11  O   UNL     1      42.940   2.353  11.482  0.00  0.00    +0.000 OA
ATOM     12  H   UNL     1      44.066   1.255   9.601  0.00  0.00    +0.000 HD
ATOM     13  H   UNL     1      45.432   2.316   9.538  0.00  0.00    +0.000 HD
ENDBRANCH   3  10
ENDBRANCH   1   6
BRANCH   1  14
ATOM     14  C   UNL     1      47.703   8.020  12.551  0.00  0.00    +0.000 C 
BRANCH  14  15
ATOM     15  C   UNL     1      48.652   7.652  13.655  0.00  0.00    +0.000 A 
ATOM     16  C   UNL     1      49.909   8.238  13.744  0.00  0.00    +0.000 A 
ATOM     17  N   UNL     1      50.799   7.969  14.719  0.00  0.00    +0.000 NA
ATOM     18  C   UNL     1      50.414   7.067  15.660  0.00  0.00    +0.000 A 
ATOM     19  C   UNL     1      49.177   6.422  15.701  0.00  0.00    +0.000 A 
ATOM     20  C   UNL     1      48.296   6.744  14.661  0.00  0.00    +0.000 A 
BRANCH  19  21
ATOM     21  N   UNL     1      48.801   5.473  16.645  0.00  0.00    +0.000 N 
ATOM     22  C   UNL     1      47.790   4.457  16.301  0.00  0.00    +0.000 C 
ATOM     23  C   UNL     1      47.251   3.846  17.607  0.00  0.00    +0.000 C 
ATOM     24  O   UNL     1      48.310   3.272  18.396  0.00  0.00    +0.000 OA
ATOM     25  C   UNL     1      49.290   4.273  18.726  0.00  0.00    +0.000 C 
ATOM     26  C   UNL     1      49.896   4.905  17.462  0.00  0.00    +0.000 C 
ENDBRANCH  19  21
ENDBRANCH  14  15
ENDBRANCH   1  14
TORSDOF 5
ENDMDL
