MODEL 1
REMARK VINA RESULT:    -7.951      0.000      0.000
REMARK INTER + INTRA:          -8.687
REMARK INTER:                  -9.345
REMARK INTRA:                   0.658
REMARK UNBOUND:                 0.658
REMARK  Name = 
REMARK  3 active torsions:
REMARK  status: ('A' for Active; 'I' for Inactive)
REMARK    1  A    between atoms: C_2  and  C_4
REMARK    2  A    between atoms: N_8  and  C_9
REMARK    3  A    between atoms: C_9  and  C_10
REMARK                            x       y       z     vdW  Elec       q    Type
REMARK                         _______ _______ _______ _____ _____    ______ ____
ROOT
ATOM      1  C   UNL     1      46.615   2.476   7.573  0.00  0.00    +0.000 A 
ATOM      2  C   UNL     1      46.612   3.837   7.286  0.00  0.00    +0.000 A 
ATOM      3  C   UNL     1      45.904   4.697   8.122  0.00  0.00    +0.000 A 
ATOM      4  C   UNL     1      45.236   4.198   9.243  0.00  0.00    +0.000 A 
ATOM      5  N   UNL     1      44.520   5.151  10.006  0.00  0.00    +0.000 N 
ATOM      6  N   UNL     1      45.247   2.885   9.548  0.00  0.00    +0.000 NA
ATOM      7  C   UNL     1      45.913   2.052   8.698  0.00  0.00    +0.000 A 
ATOM      8  H   UNL     1      43.724   5.446   9.435  0.00  0.00    +0.000 HD
ENDROOT
BRANCH   1  10
ATOM      9  N   UNL     1      48.232   1.941   5.834  0.00  0.00    +0.000 N 
ATOM     10  C   UNL     1      47.282   1.484   6.704  0.00  0.00    +0.000 C 
ATOM     11  O   UNL     1      47.000   0.295   6.759  0.00  0.00    +0.000 OA
ATOM     12  H   UNL     1      48.722   1.246   5.285  0.00  0.00    +0.000 HD
ATOM     13  H   UNL     1      48.655   2.857   5.906  0.00  0.00    +0.000 HD
ENDBRANCH   1  10
BRANCH   5  14
ATOM     14  C   UNL     1      44.059   4.849  11.394  0.00  0.00    +0.000 C 
ATOM     15  C   UNL     1      43.032   3.715  11.464  0.00  0.00    +0.000 C 
ATOM     16  C   UNL     1      42.626   5.110  11.810  0.00  0.00    +0.000 C 
BRANCH  14  17
ATOM     17  C   UNL     1      45.200   4.771  12.440  0.00  0.00    +0.000 A 
ATOM     18  N   UNL     1      45.672   3.572  12.854  0.00  0.00    +0.000 NA
ATOM     19  C   UNL     1      46.705   3.578  13.717  0.00  0.00    +0.000 A 
ATOM     20  C   UNL     1      47.300   4.723  14.186  0.00  0.00    +0.000 A 
ATOM     21  C   UNL     1      46.771   5.895  13.709  0.00  0.00    +0.000 A 
ATOM     22  N   UNL     1      45.742   5.951  12.846  0.00  0.00    +0.000 NA
ENDBRANCH  14  17
ENDBRANCH   5  14
TORSDOF 3
ENDMDL
MODEL 2
REMARK VINA RESULT:    -7.838      1.480      2.034
REMARK INTER + INTRA:          -8.554
REMARK INTER:                  -8.252
REMARK INTRA:                  -0.302
REMARK UNBOUND:                 0.658
REMARK  Name = 
REMARK  3 active torsions:
REMARK  status: ('A' for Active; 'I' for Inactive)
REMARK    1  A    between atoms: C_2  and  C_4
REMARK    2  A    between atoms: N_8  and  C_9
REMARK    3  A    between atoms: C_9  and  C_10
REMARK                            x       y       z     vdW  Elec       q    Type
REMARK                         _______ _______ _______ _____ _____    ______ ____
ROOT
ATOM      1  C   UNL     1      46.308   3.043   7.628  0.00  0.00    +0.000 A 
ATOM      2  C   UNL     1      45.713   2.014   8.350  0.00  0.00    +0.000 A 
ATOM      3  C   UNL     1      45.098   2.315   9.562  0.00  0.00    +0.000 A 
ATOM      4  C   UNL     1      45.056   3.633  10.024  0.00  0.00    +0.000 A 
ATOM      5  N   UNL     1      44.436   3.823  11.282  0.00  0.00    +0.000 N 
ATOM      6  N   UNL     1      45.608   4.644   9.326  0.00  0.00    +0.000 NA
ATOM      7  C   UNL     1      46.240   4.328   8.160  0.00  0.00    +0.000 A 
ATOM      8  H   UNL     1      45.055   3.405  11.981  0.00  0.00    +0.000 HD
ENDROOT
BRANCH   1  10
ATOM      9  N   UNL     1      48.395   2.629   6.444  0.00  0.00    +0.000 N 
ATOM     10  C   UNL     1      47.042   2.805   6.367  0.00  0.00    +0.000 C 
ATOM     11  O   UNL     1      46.462   2.763   5.290  0.00  0.00    +0.000 OA
ATOM     12  H   UNL     1      48.877   2.411   5.581  0.00  0.00    +0.000 HD
ATOM     13  H   UNL     1      48.880   2.433   7.310  0.00  0.00    +0.000 HD
ENDBRANCH   1  10
BRANCH   5  14
ATOM     14  C   UNL     1      44.005   5.178  11.739  0.00  0.00    +0.000 C 
ATOM     15  C   UNL     1      42.761   5.156  12.631  0.00  0.00    +0.000 C 
ATOM     16  C   UNL     1      42.692   5.774  11.273  0.00  0.00    +0.000 C 
BRANCH  14  17
ATOM     17  C   UNL     1      45.163   6.078  12.242  0.00  0.00    +0.000 A 
ATOM     18  N   UNL     1      46.170   5.553  12.978  0.00  0.00    +0.000 NA
ATOM     19  C   UNL     1      47.175   6.377  13.330  0.00  0.00    +0.000 A 
ATOM     20  C   UNL     1      47.231   7.703  12.976  0.00  0.00    +0.000 A 
ATOM     21  C   UNL     1      46.179   8.153  12.221  0.00  0.00    +0.000 A 
ATOM     22  N   UNL     1      45.150   7.377  11.839  0.00  0.00    +0.000 NA
ENDBRANCH  14  17
ENDBRANCH   5  14
TORSDOF 3
ENDMDL
MODEL 3
REMARK VINA RESULT:    -7.264      3.247      6.488
REMARK INTER + INTRA:          -7.879
REMARK INTER:                  -7.895
REMARK INTRA:                   0.015
REMARK UNBOUND:                 0.658
REMARK  Name = 
REMARK  3 active torsions:
REMARK  status: ('A' for Active; 'I' for Inactive)
REMARK    1  A    between atoms: C_2  and  C_4
REMARK    2  A    between atoms: N_8  and  C_9
REMARK    3  A    between atoms: C_9  and  C_10
REMARK                            x       y       z     vdW  Elec       q    Type
REMARK                         _______ _______ _______ _____ _____    ______ ____
ROOT
ATOM      1  C   UNL     1      47.088   8.043  13.355  0.00  0.00    +0.000 A 
ATOM      2  C   UNL     1      45.969   8.644  12.787  0.00  0.00    +0.000 A 
ATOM      3  C   UNL     1      45.150   7.885  11.956  0.00  0.00    +0.000 A 
ATOM      4  C   UNL     1      45.436   6.537  11.724  0.00  0.00    +0.000 A 
ATOM      5  N   UNL     1      44.560   5.867  10.838  0.00  0.00    +0.000 N 
ATOM      6  N   UNL     1      46.503   5.934  12.284  0.00  0.00    +0.000 NA
ATOM      7  C   UNL     1      47.317   6.701  13.065  0.00  0.00    +0.000 A 
ATOM      8  H   UNL     1      44.733   6.252   9.907  0.00  0.00    +0.000 HD
ENDROOT
BRANCH   1  10
ATOM      9  N   UNL     1      47.640   9.167  15.443  0.00  0.00    +0.000 N 
ATOM     10  C   UNL     1      48.049   8.790  14.194  0.00  0.00    +0.000 C 
ATOM     11  O   UNL     1      49.172   9.060  13.792  0.00  0.00    +0.000 OA
ATOM     12  H   UNL     1      48.325   9.629  16.028  0.00  0.00    +0.000 HD
ATOM     13  H   UNL     1      46.823   8.783  15.899  0.00  0.00    +0.000 HD
ENDBRANCH   1  10
BRANCH   5  14
ATOM     14  C   UNL     1      44.519   4.376  10.765  0.00  0.00    +0.000 C 
ATOM     15  C   UNL     1      43.155   3.783  11.130  0.00  0.00    +0.000 C 
ATOM     16  C   UNL     1      44.332   3.542  12.017  0.00  0.00    +0.000 C 
BRANCH  14  17
ATOM     17  C   UNL     1      45.178   3.782   9.494  0.00  0.00    +0.000 A 
ATOM     18  N   UNL     1      45.669   4.597   8.532  0.00  0.00    +0.000 NA
ATOM     19  C   UNL     1      46.284   4.017   7.483  0.00  0.00    +0.000 A 
ATOM     20  C   UNL     1      46.443   2.659   7.350  0.00  0.00    +0.000 A 
ATOM     21  C   UNL     1      45.928   1.906   8.373  0.00  0.00    +0.000 A 
ATOM     22  N   UNL     1      45.305   2.429   9.444  0.00  0.00    +0.000 NA
ENDBRANCH  14  17
ENDBRANCH   5  14
TORSDOF 3
ENDMDL
MODEL 4
REMARK VINA RESULT:    -7.081      3.318      6.160
REMARK INTER + INTRA:          -7.664
REMARK INTER:                  -7.402
REMARK INTRA:                  -0.263
REMARK UNBOUND:                 0.658
REMARK  Name = 
REMARK  3 active torsions:
REMARK  status: ('A' for Active; 'I' for Inactive)
REMARK    1  A    between atoms: C_2  and  C_4
REMARK    2  A    between atoms: N_8  and  C_9
REMARK    3  A    between atoms: C_9  and  C_10
REMARK                            x       y       z     vdW  Elec       q    Type
REMARK                         _______ _______ _______ _____ _____    ______ ____
ROOT
ATOM      1  C   UNL     1      48.109   7.006  14.134  0.00  0.00    +0.000 A 
ATOM      2  C   UNL     1      47.428   8.127  13.670  0.00  0.00    +0.000 A 
ATOM      3  C   UNL     1      46.297   7.944  12.879  0.00  0.00    +0.000 A 
ATOM      4  C   UNL     1      45.842   6.656  12.586  0.00  0.00    +0.000 A 
ATOM      5  N   UNL     1      44.705   6.582  11.747  0.00  0.00    +0.000 N 
ATOM      6  N   UNL     1      46.477   5.560  13.047  0.00  0.00    +0.000 NA
ATOM      7  C   UNL     1      47.605   5.756  13.788  0.00  0.00    +0.000 A 
ATOM      8  H   UNL     1      45.006   6.884  10.818  0.00  0.00    +0.000 HD
ENDROOT
BRANCH   1  10
ATOM      9  N   UNL     1      50.503   7.428  14.254  0.00  0.00    +0.000 N 
ATOM     10  C   UNL     1      49.355   7.106  14.922  0.00  0.00    +0.000 C 
ATOM     11  O   UNL     1      49.364   6.913  16.130  0.00  0.00    +0.000 OA
ATOM     12  H   UNL     1      51.339   7.548  14.813  0.00  0.00    +0.000 HD
ATOM     13  H   UNL     1      50.512   7.811  13.318  0.00  0.00    +0.000 HD
ENDBRANCH   1  10
BRANCH   5  14
ATOM     14  C   UNL     1      43.904   5.326  11.633  0.00  0.00    +0.000 C 
ATOM     15  C   UNL     1      42.392   5.559  11.688  0.00  0.00    +0.000 C 
ATOM     16  C   UNL     1      43.073   4.827  12.798  0.00  0.00    +0.000 C 
BRANCH  14  17
ATOM     17  C   UNL     1      44.385   4.365  10.516  0.00  0.00    +0.000 A 
ATOM     18  N   UNL     1      44.059   3.052  10.554  0.00  0.00    +0.000 NA
ATOM     19  C   UNL     1      44.456   2.285   9.521  0.00  0.00    +0.000 A 
ATOM     20  C   UNL     1      45.158   2.765   8.442  0.00  0.00    +0.000 A 
ATOM     21  C   UNL     1      45.437   4.107   8.475  0.00  0.00    +0.000 A 
ATOM     22  N   UNL     1      45.065   4.922   9.479  0.00  0.00    +0.000 NA
ENDBRANCH  14  17
ENDBRANCH   5  14
TORSDOF 3
ENDMDL
MODEL 5
REMARK VINA RESULT:    -6.842      3.082      6.557
REMARK INTER + INTRA:          -7.384
REMARK INTER:                  -7.357
REMARK INTRA:                  -0.027
REMARK UNBOUND:                 0.658
REMARK  Name = 
REMARK  3 active torsions:
REMARK  status: ('A' for Active; 'I' for Inactive)
REMARK    1  A    between atoms: C_2  and  C_4
REMARK    2  A    between atoms: N_8  and  C_9
REMARK    3  A    between atoms: C_9  and  C_10
REMARK                            x       y       z     vdW  Elec       q    Type
REMARK                         _______ _______ _______ _____ _____    ______ ____
ROOT
ATOM      1  C   UNL     1      47.846   5.488  15.309  0.00  0.00    +0.000 A 
ATOM      2  C   UNL     1      48.068   6.640  14.563  0.00  0.00    +0.000 A 
ATOM      3  C   UNL     1      47.427   6.776  13.334  0.00  0.00    +0.000 A 
ATOM      4  C   UNL     1      46.557   5.782  12.879  0.00  0.00    +0.000 A 
ATOM      5  N   UNL     1      45.985   6.004  11.603  0.00  0.00    +0.000 N 
ATOM      6  N   UNL     1      46.314   4.670  13.600  0.00  0.00    +0.000 NA
ATOM      7  C   UNL     1      46.978   4.535  14.783  0.00  0.00    +0.000 A 
ATOM      8  H   UNL     1      46.742   5.908  10.922  0.00  0.00    +0.000 HD
ENDROOT
BRANCH   1  10
ATOM      9  N   UNL     1      47.953   5.706  17.732  0.00  0.00    +0.000 N 
ATOM     10  C   UNL     1      48.535   5.230  16.591  0.00  0.00    +0.000 C 
ATOM     11  O   UNL     1      49.589   4.608  16.635  0.00  0.00    +0.000 OA
ATOM     12  H   UNL     1      48.405   5.474  18.607  0.00  0.00    +0.000 HD
ATOM     13  H   UNL     1      46.992   6.020  17.774  0.00  0.00    +0.000 HD
ENDBRANCH   1  10
BRANCH   5  14
ATOM     14  C   UNL     1      44.793   5.231  11.142  0.00  0.00    +0.000 C 
ATOM     15  C   UNL     1      43.522   6.078  11.031  0.00  0.00    +0.000 C 
ATOM     16  C   UNL     1      43.612   5.002  12.063  0.00  0.00    +0.000 C 
BRANCH  14  17
ATOM     17  C   UNL     1      45.069   4.293   9.939  0.00  0.00    +0.000 A 
ATOM     18  N   UNL     1      45.625   4.778   8.804  0.00  0.00    +0.000 NA
ATOM     19  C   UNL     1      45.895   3.897   7.822  0.00  0.00    +0.000 A 
ATOM     20  C   UNL     1      45.645   2.550   7.917  0.00  0.00    +0.000 A 
ATOM     21  C   UNL     1      45.092   2.139   9.103  0.00  0.00    +0.000 A 
ATOM     22  N   UNL     1      44.803   2.972  10.118  0.00  0.00    +0.000 NA
ENDBRANCH  14  17
ENDBRANCH   5  14
TORSDOF 3
ENDMDL
MODEL 6
REMARK VINA RESULT:    -6.414      5.927      8.928
REMARK INTER + INTRA:          -6.881
REMARK INTER:                  -6.793
REMARK INTRA:                  -0.088
REMARK UNBOUND:                 0.658
REMARK  Name = 
REMARK  3 active torsions:
REMARK  status: ('A' for Active; 'I' for Inactive)
REMARK    1  A    between atoms: C_2  and  C_4
REMARK    2  A    between atoms: N_8  and  C_9
REMARK    3  A    between atoms: C_9  and  C_10
REMARK                            x       y       z     vdW  Elec       q    Type
REMARK                         _______ _______ _______ _____ _____    ______ ____
ROOT
ATOM      1  C   UNL     1      52.449   1.653  17.758  0.00  0.00    +0.000 A 
ATOM      2  C   UNL     1      52.675   2.934  18.253  0.00  0.00    +0.000 A 
ATOM      3  C   UNL     1      51.690   3.903  18.080  0.00  0.00    +0.000 A 
ATOM      4  C   UNL     1      50.487   3.580  17.448  0.00  0.00    +0.000 A 
ATOM      5  N   UNL     1      49.569   4.646  17.294  0.00  0.00    +0.000 N 
ATOM      6  N   UNL     1      50.243   2.339  16.983  0.00  0.00    +0.000 NA
ATOM      7  C   UNL     1      51.233   1.412  17.126  0.00  0.00    +0.000 A 
ATOM      8  H   UNL     1      49.972   5.283  16.604  0.00  0.00    +0.000 HD
ENDROOT
BRANCH   1  10
ATOM      9  N   UNL     1      53.129  -0.562  18.503  0.00  0.00    +0.000 N 
ATOM     10  C   UNL     1      53.465   0.583  17.837  0.00  0.00    +0.000 C 
ATOM     11  O   UNL     1      54.567   0.711  17.322  0.00  0.00    +0.000 OA
ATOM     12  H   UNL     1      53.813  -1.309  18.501  0.00  0.00    +0.000 HD
ATOM     13  H   UNL     1      52.177  -0.804  18.745  0.00  0.00    +0.000 HD
ENDBRANCH   1  10
BRANCH   5  14
ATOM     14  C   UNL     1      48.133   4.394  16.968  0.00  0.00    +0.000 C 
ATOM     15  C   UNL     1      47.168   4.842  18.069  0.00  0.00    +0.000 C 
ATOM     16  C   UNL     1      47.322   3.388  17.760  0.00  0.00    +0.000 C 
BRANCH  14  17
ATOM     17  C   UNL     1      47.727   4.800  15.528  0.00  0.00    +0.000 A 
ATOM     18  N   UNL     1      46.779   4.104  14.860  0.00  0.00    +0.000 NA
ATOM     19  C   UNL     1      46.430   4.548  13.638  0.00  0.00    +0.000 A 
ATOM     20  C   UNL     1      46.975   5.662  13.048  0.00  0.00    +0.000 A 
ATOM     21  C   UNL     1      47.920   6.317  13.796  0.00  0.00    +0.000 A 
ATOM     22  N   UNL     1      48.307   5.921  15.021  0.00  0.00    +0.000 NA
ENDBRANCH  14  17
ENDBRANCH   5  14
TORSDOF 3
ENDMDL
MODEL 7
REMARK VINA RESULT:    -6.316      3.831      5.773
REMARK INTER + INTRA:          -6.766
REMARK INTER:                  -6.576
REMARK INTRA:                  -0.190
REMARK UNBOUND:                 0.658
REMARK  Name = 
REMARK  3 active torsions:
REMARK  status: ('A' for Active; 'I' for Inactive)
REMARK    1  A    between atoms: C_2  and  C_4
REMARK    2  A    between atoms: N_8  and  C_9
REMARK    3  A    between atoms: C_9  and  C_10
REMARK                            x       y       z     vdW  Elec       q    Type
REMARK                         _______ _______ _______ _____ _____    ______ ____
ROOT
ATOM      1  C   UNL     1      44.690   4.451  12.141  0.00  0.00    +0.000 A 
ATOM      2  C   UNL     1      44.251   5.769  12.067  0.00  0.00    +0.000 A 
ATOM      3  C   UNL     1      45.051   6.774  12.605  0.00  0.00    +0.000 A 
ATOM      4  C   UNL     1      46.284   6.460  13.181  0.00  0.00    +0.000 A 
ATOM      5  N   UNL     1      47.002   7.550  13.727  0.00  0.00    +0.000 N 
ATOM      6  N   UNL     1      46.734   5.191  13.241  0.00  0.00    +0.000 NA
ATOM      7  C   UNL     1      45.922   4.215  12.744  0.00  0.00    +0.000 A 
ATOM      8  H   UNL     1      46.486   7.855  14.556  0.00  0.00    +0.000 HD
ENDROOT
BRANCH   1  10
ATOM      9  N   UNL     1      43.679   2.268  12.511  0.00  0.00    +0.000 N 
ATOM     10  C   UNL     1      43.876   3.317  11.657  0.00  0.00    +0.000 C 
ATOM     11  O   UNL     1      43.390   3.313  10.535  0.00  0.00    +0.000 OA
ATOM     12  H   UNL     1      43.074   1.523  12.189  0.00  0.00    +0.000 HD
ATOM     13  H   UNL     1      43.863   2.319  13.504  0.00  0.00    +0.000 HD
ENDBRANCH   1  10
BRANCH   5  14
ATOM     14  C   UNL     1      48.455   7.439  14.052  0.00  0.00    +0.000 C 
ATOM     15  C   UNL     1      49.294   8.599  13.509  0.00  0.00    +0.000 C 
ATOM     16  C   UNL     1      49.481   7.224  12.958  0.00  0.00    +0.000 C 
BRANCH  14  17
ATOM     17  C   UNL     1      48.750   7.042  15.522  0.00  0.00    +0.000 A 
ATOM     18  N   UNL     1      48.656   7.960  16.512  0.00  0.00    +0.000 NA
ATOM     19  C   UNL     1      48.866   7.534  17.772  0.00  0.00    +0.000 A 
ATOM     20  C   UNL     1      49.156   6.231  18.097  0.00  0.00    +0.000 A 
ATOM     21  C   UNL     1      49.222   5.364  17.038  0.00  0.00    +0.000 A 
ATOM     22  N   UNL     1      49.021   5.731  15.760  0.00  0.00    +0.000 NA
ENDBRANCH  14  17
ENDBRANCH   5  14
TORSDOF 3
ENDMDL
MODEL 8
REMARK VINA RESULT:    -6.197      4.178      6.422
REMARK INTER + INTRA:          -6.626
REMARK INTER:                  -6.878
REMARK INTRA:                   0.252
REMARK UNBOUND:                 0.658
REMARK  Name = 
REMARK  3 active torsions:
REMARK  status: ('A' for Active; 'I' for Inactive)
REMARK    1  A    between atoms: C_2  and  C_4
REMARK    2  A    between atoms: N_8  and  C_9
REMARK    3  A    between atoms: C_9  and  C_10
REMARK                            x       y       z     vdW  Elec       q    Type
REMARK                         _______ _______ _______ _____ _____    ______ ____
ROOT
ATOM      1  C   UNL     1      46.006   5.400  12.242  0.00  0.00    +0.000 A 
ATOM      2  C   UNL     1      45.793   4.025  12.244  0.00  0.00    +0.000 A 
ATOM      3  C   UNL     1      46.342   3.263  13.272  0.00  0.00    +0.000 A 
ATOM      4  C   UNL     1      47.067   3.878  14.296  0.00  0.00    +0.000 A 
ATOM      5  N   UNL     1      47.609   3.008  15.272  0.00  0.00    +0.000 N 
ATOM      6  N   UNL     1      47.264   5.211  14.321  0.00  0.00    +0.000 NA
ATOM      7  C   UNL     1      46.753   5.938  13.287  0.00  0.00    +0.000 A 
ATOM      8  H   UNL     1      48.355   2.480  14.812  0.00  0.00    +0.000 HD
ENDROOT
BRANCH   1  10
ATOM      9  N   UNL     1      45.421   5.739   9.904  0.00  0.00    +0.000 N 
ATOM     10  C   UNL     1      45.519   6.276  11.156  0.00  0.00    +0.000 C 
ATOM     11  O   UNL     1      45.210   7.441  11.367  0.00  0.00    +0.000 OA
ATOM     12  H   UNL     1      45.034   6.332   9.181  0.00  0.00    +0.000 HD
ATOM     13  H   UNL     1      45.448   4.744   9.724  0.00  0.00    +0.000 HD
ENDBRANCH   1  10
BRANCH   5  14
ATOM     14  C   UNL     1      48.095   3.523  16.587  0.00  0.00    +0.000 C 
ATOM     15  C   UNL     1      47.052   3.424  17.705  0.00  0.00    +0.000 C 
ATOM     16  C   UNL     1      47.485   4.765  17.207  0.00  0.00    +0.000 C 
BRANCH  14  17
ATOM     17  C   UNL     1      49.520   3.048  16.970  0.00  0.00    +0.000 A 
ATOM     18  N   UNL     1      49.902   1.771  16.739  0.00  0.00    +0.000 NA
ATOM     19  C   UNL     1      51.174   1.442  17.039  0.00  0.00    +0.000 A 
ATOM     20  C   UNL     1      52.089   2.329  17.550  0.00  0.00    +0.000 A 
ATOM     21  C   UNL     1      51.625   3.604  17.743  0.00  0.00    +0.000 A 
ATOM     22  N   UNL     1      50.368   3.991  17.461  0.00  0.00    +0.000 NA
ENDBRANCH  14  17
ENDBRANCH   5  14
TORSDOF 3
ENDMDL
MODEL 9
REMARK VINA RESULT:    -5.810      2.970      4.322
REMARK INTER + INTRA:          -6.171
REMARK INTER:                  -5.863
REMARK INTRA:                  -0.308
REMARK UNBOUND:                 0.658
REMARK  Name = 
REMARK  3 active torsions:
REMARK  status: ('A' for Active; 'I' for Inactive)
REMARK    1  A    between atoms: C_2  and  C_4
REMARK    2  A    between atoms: N_8  and  C_9
REMARK    3  A    between atoms: C_9  and  C_10
REMARK                            x       y       z     vdW  Elec       q    Type
REMARK                         _______ _______ _______ _____ _____    ______ ____
ROOT
ATOM      1  C   UNL     1      44.662   4.174   9.751  0.00  0.00    +0.000 A 
ATOM      2  C   UNL     1      43.639   4.325  10.681  0.00  0.00    +0.000 A 
ATOM      3  C   UNL     1      43.631   5.457  11.491  0.00  0.00    +0.000 A 
ATOM      4  C   UNL     1      44.618   6.435  11.346  0.00  0.00    +0.000 A 
ATOM      5  N   UNL     1      44.535   7.528  12.241  0.00  0.00    +0.000 N 
ATOM      6  N   UNL     1      45.603   6.315  10.435  0.00  0.00    +0.000 NA
ATOM      7  C   UNL     1      45.619   5.183   9.676  0.00  0.00    +0.000 A 
ATOM      8  H   UNL     1      44.772   7.167  13.168  0.00  0.00    +0.000 HD
ENDROOT
BRANCH   1  10
ATOM      9  N   UNL     1      44.459   1.767   9.449  0.00  0.00    +0.000 N 
ATOM     10  C   UNL     1      44.787   2.974   8.898  0.00  0.00    +0.000 C 
ATOM     11  O   UNL     1      45.168   3.052   7.738  0.00  0.00    +0.000 OA
ATOM     12  H   UNL     1      44.495   0.960   8.839  0.00  0.00    +0.000 HD
ATOM     13  H   UNL     1      43.935   1.675  10.310  0.00  0.00    +0.000 HD
ENDBRANCH   1  10
BRANCH   5  14
ATOM     14  C   UNL     1      45.284   8.796  11.990  0.00  0.00    +0.000 C 
ATOM     15  C   UNL     1      44.477  10.057  12.313  0.00  0.00    +0.000 C 
ATOM     16  C   UNL     1      44.846   9.752  10.898  0.00  0.00    +0.000 C 
BRANCH  14  17
ATOM     17  C   UNL     1      46.741   8.790  12.519  0.00  0.00    +0.000 A 
ATOM     18  N   UNL     1      47.090   7.997  13.558  0.00  0.00    +0.000 NA
ATOM     19  C   UNL     1      48.386   7.995  13.927  0.00  0.00    +0.000 A 
ATOM     20  C   UNL     1      49.356   8.741  13.304  0.00  0.00    +0.000 A 
ATOM     21  C   UNL     1      48.921   9.508  12.253  0.00  0.00    +0.000 A 
ATOM     22  N   UNL     1      47.642   9.549  11.839  0.00  0.00    +0.000 NA
ENDBRANCH  14  17
ENDBRANCH   5  14
TORSDOF 3
ENDMDL
