MODEL 1
REMARK VINA RESULT:    -8.933      0.000      0.000
REMARK INTER + INTRA:         -13.212
REMARK INTER:                 -12.328
REMARK INTRA:                  -0.885
REMARK UNBOUND:                -0.885
REMARK  Name = 
REMARK  7 active torsions:
REMARK  status: ('A' for Active; 'I' for Inactive)
REMARK    1  A    between atoms: C_2  and  C_20
REMARK    2  A    between atoms: N_3  and  C_4
REMARK    3  A    between atoms: C_4  and  C_5
REMARK    4  A    between atoms: C_8  and  C_9
REMARK    5  A    between atoms: C_9  and  N_10
REMARK    6  A    between atoms: N_10  and  C_11
REMARK    7  A    between atoms: C_14  and  O_15
REMARK                            x       y       z     vdW  Elec       q    Type
REMARK                         _______ _______ _______ _____ _____    ______ ____
ROOT
ATOM      1  C   UNL     1      46.252   6.007  12.498  0.00  0.00    +0.000 A 
ATOM      2  C   UNL     1      45.583   6.259  11.299  0.00  0.00    +0.000 A 
ATOM      3  C   UNL     1      44.854   5.244  10.690  0.00  0.00    +0.000 A 
ATOM      4  C   UNL     1      44.800   3.994  11.300  0.00  0.00    +0.000 A 
ATOM      5  N   UNL     1      45.406   3.734  12.489  0.00  0.00    +0.000 NA
ATOM      6  C   UNL     1      46.107   4.743  13.057  0.00  0.00    +0.000 A 
ENDROOT
BRANCH   1   7
ATOM      7  C   UNL     1      47.070   7.072  13.164  0.00  0.00    +0.000 C 
BRANCH   7  10
ATOM      8  O   UNL     1      49.680   6.939  14.216  0.00  0.00    +0.000 OA
ATOM      9  C   UNL     1      48.725   6.715  14.953  0.00  0.00    +0.000 C 
ATOM     10  N   UNL     1      47.430   6.697  14.506  0.00  0.00    +0.000 N 
ATOM     11  H   UNL     1      46.677   6.699  15.185  0.00  0.00    +0.000 HD
BRANCH   9  12
ATOM     12  C   UNL     1      48.910   6.401  16.373  0.00  0.00    +0.000 A 
ATOM     13  C   UNL     1      49.405   7.364  17.242  0.00  0.00    +0.000 A 
ATOM     14  S   UNL     1      49.541   6.821  18.853  0.00  0.00    +0.000 S 
ATOM     15  C   UNL     1      48.909   5.292  18.448  0.00  0.00    +0.000 A 
ATOM     16  N   UNL     1      48.723   4.334  19.397  0.00  0.00    +0.000 NA
ATOM     17  C   UNL     1      48.200   3.239  18.956  0.00  0.00    +0.000 A 
ATOM     18  N   UNL     1      47.857   3.011  17.647  0.00  0.00    +0.000 N 
ATOM     19  C   UNL     1      48.106   3.915  16.647  0.00  0.00    +0.000 A 
ATOM     20  O   UNL     1      47.930   3.617  15.466  0.00  0.00    +0.000 OA
ATOM     21  C   UNL     1      48.634   5.185  17.099  0.00  0.00    +0.000 A 
ATOM     22  H   UNL     1      47.491   2.114  17.361  0.00  0.00    +0.000 HD
ENDBRANCH   9  12
ENDBRANCH   7  10
ENDBRANCH   1   7
BRANCH   4  23
ATOM     23  C   UNL     1      44.027   2.863  10.650  0.00  0.00    +0.000 C 
BRANCH  23  24
ATOM     24  N   UNL     1      44.117   2.831   9.180  0.00  0.00    +0.000 NA
ATOM     25  H   UNL     1      43.809   3.756   8.864  0.00  0.00    +0.000 HD
BRANCH  24  26
ATOM     26  C   UNL     1      45.473   2.595   8.663  0.00  0.00    +0.000 C 
ATOM     27  C   UNL     1      45.714   1.125   8.278  0.00  0.00    +0.000 C 
ATOM     28  C   UNL     1      47.083   0.930   7.630  0.00  0.00    +0.000 C 
ATOM     29  C   UNL     1      47.250   1.839   6.416  0.00  0.00    +0.000 C 
ATOM     30  C   UNL     1      47.049   3.302   6.801  0.00  0.00    +0.000 C 
ATOM     31  C   UNL     1      45.687   3.523   7.452  0.00  0.00    +0.000 C 
BRANCH  29  32
ATOM     32  O   UNL     1      48.547   1.663   5.859  0.00  0.00    +0.000 OA
ATOM     33  H   UNL     1      48.490   0.984   5.166  0.00  0.00    +0.000 HD
ENDBRANCH  29  32
ENDBRANCH  24  26
ENDBRANCH  23  24
ENDBRANCH   4  23
TORSDOF 7
ENDMDL
MODEL 2
REMARK VINA RESULT:    -8.434      2.101      3.784
REMARK INTER + INTRA:         -12.524
REMARK INTER:                 -11.364
REMARK INTRA:                  -1.160
REMARK UNBOUND:                -0.885
REMARK  Name = 
REMARK  7 active torsions:
REMARK  status: ('A' for Active; 'I' for Inactive)
REMARK    1  A    between atoms: C_2  and  C_20
REMARK    2  A    between atoms: N_3  and  C_4
REMARK    3  A    between atoms: C_4  and  C_5
REMARK    4  A    between atoms: C_8  and  C_9
REMARK    5  A    between atoms: C_9  and  N_10
REMARK    6  A    between atoms: N_10  and  C_11
REMARK    7  A    between atoms: C_14  and  O_15
REMARK                            x       y       z     vdW  Elec       q    Type
REMARK                         _______ _______ _______ _____ _____    ______ ____
ROOT
ATOM      1  C   UNL     1      46.206   4.675  13.216  0.00  0.00    +0.000 A 
ATOM      2  C   UNL     1      46.176   5.761  12.341  0.00  0.00    +0.000 A 
ATOM      3  C   UNL     1      45.554   5.634  11.104  0.00  0.00    +0.000 A 
ATOM      4  C   UNL     1      44.961   4.419  10.770  0.00  0.00    +0.000 A 
ATOM      5  N   UNL     1      44.938   3.360  11.620  0.00  0.00    +0.000 NA
ATOM      6  C   UNL     1      45.552   3.516  12.817  0.00  0.00    +0.000 A 
ENDROOT
BRANCH   1   7
ATOM      7  C   UNL     1      46.893   4.772  14.544  0.00  0.00    +0.000 C 
BRANCH   7  10
ATOM      8  O   UNL     1      49.071   5.327  16.244  0.00  0.00    +0.000 OA
ATOM      9  C   UNL     1      48.635   6.216  15.518  0.00  0.00    +0.000 C 
ATOM     10  N   UNL     1      47.541   6.045  14.711  0.00  0.00    +0.000 N 
ATOM     11  H   UNL     1      47.345   6.741  13.998  0.00  0.00    +0.000 HD
BRANCH   9  12
ATOM     12  C   UNL     1      49.235   7.553  15.500  0.00  0.00    +0.000 A 
ATOM     13  C   UNL     1      49.327   8.293  16.670  0.00  0.00    +0.000 A 
ATOM     14  S   UNL     1      50.063   9.816  16.456  0.00  0.00    +0.000 S 
ATOM     15  C   UNL     1      50.315   9.522  14.798  0.00  0.00    +0.000 A 
ATOM     16  N   UNL     1      50.947  10.434  14.010  0.00  0.00    +0.000 NA
ATOM     17  C   UNL     1      51.105  10.062  12.783  0.00  0.00    +0.000 A 
ATOM     18  N   UNL     1      50.677   8.864  12.270  0.00  0.00    +0.000 N 
ATOM     19  C   UNL     1      49.962   7.955  13.007  0.00  0.00    +0.000 A 
ATOM     20  O   UNL     1      49.459   6.965  12.476  0.00  0.00    +0.000 OA
ATOM     21  C   UNL     1      49.813   8.297  14.407  0.00  0.00    +0.000 A 
ATOM     22  H   UNL     1      50.794   8.654  11.289  0.00  0.00    +0.000 HD
ENDBRANCH   9  12
ENDBRANCH   7  10
ENDBRANCH   1   7
BRANCH   4  23
ATOM     23  C   UNL     1      44.291   4.246   9.421  0.00  0.00    +0.000 C 
BRANCH  23  24
ATOM     24  N   UNL     1      44.142   2.845   8.991  0.00  0.00    +0.000 NA
ATOM     25  H   UNL     1      43.171   2.755   8.679  0.00  0.00    +0.000 HD
BRANCH  24  26
ATOM     26  C   UNL     1      45.024   2.456   7.881  0.00  0.00    +0.000 C 
ATOM     27  C   UNL     1      45.792   3.650   7.287  0.00  0.00    +0.000 C 
ATOM     28  C   UNL     1      46.790   3.204   6.222  0.00  0.00    +0.000 C 
ATOM     29  C   UNL     1      47.758   2.164   6.777  0.00  0.00    +0.000 C 
ATOM     30  C   UNL     1      47.001   0.960   7.334  0.00  0.00    +0.000 C 
ATOM     31  C   UNL     1      45.996   1.382   8.402  0.00  0.00    +0.000 C 
BRANCH  29  32
ATOM     32  O   UNL     1      48.648   1.739   5.754  0.00  0.00    +0.000 OA
ATOM     33  H   UNL     1      49.142   2.514   5.438  0.00  0.00    +0.000 HD
ENDBRANCH  29  32
ENDBRANCH  24  26
ENDBRANCH  23  24
ENDBRANCH   4  23
TORSDOF 7
ENDMDL
MODEL 3
REMARK VINA RESULT:    -8.282      1.789      2.657
REMARK INTER + INTRA:         -12.313
REMARK INTER:                 -11.430
REMARK INTRA:                  -0.883
REMARK UNBOUND:                -0.885
REMARK  Name = 
REMARK  7 active torsions:
REMARK  status: ('A' for Active; 'I' for Inactive)
REMARK    1  A    between atoms: C_2  and  C_20
REMARK    2  A    between atoms: N_3  and  C_4
REMARK    3  A    between atoms: C_4  and  C_5
REMARK    4  A    between atoms: C_8  and  C_9
REMARK    5  A    between atoms: C_9  and  N_10
REMARK    6  A    between atoms: N_10  and  C_11
REMARK    7  A    between atoms: C_14  and  O_15
REMARK                            x       y       z     vdW  Elec       q    Type
REMARK                         _______ _______ _______ _____ _____    ______ ____
ROOT
ATOM      1  C   UNL     1      46.835   5.829  12.965  0.00  0.00    +0.000 A 
ATOM      2  C   UNL     1      46.577   4.531  13.410  0.00  0.00    +0.000 A 
ATOM      3  C   UNL     1      45.756   3.696  12.661  0.00  0.00    +0.000 A 
ATOM      4  C   UNL     1      45.215   4.173  11.470  0.00  0.00    +0.000 A 
ATOM      5  N   UNL     1      45.485   5.417  10.993  0.00  0.00    +0.000 NA
ATOM      6  C   UNL     1      46.288   6.206  11.745  0.00  0.00    +0.000 A 
ENDROOT
BRANCH   1   7
ATOM      7  C   UNL     1      47.692   6.763  13.764  0.00  0.00    +0.000 C 
BRANCH   7  10
ATOM      8  O   UNL     1      50.020   6.551  15.337  0.00  0.00    +0.000 OA
ATOM      9  C   UNL     1      48.927   6.348  15.855  0.00  0.00    +0.000 C 
ATOM     10  N   UNL     1      47.754   6.369  15.147  0.00  0.00    +0.000 N 
ATOM     11  H   UNL     1      46.875   6.385  15.654  0.00  0.00    +0.000 HD
BRANCH   9  12
ATOM     12  C   UNL     1      48.803   6.019  17.278  0.00  0.00    +0.000 A 
ATOM     13  C   UNL     1      49.113   4.743  17.729  0.00  0.00    +0.000 A 
ATOM     14  S   UNL     1      48.919   4.551  19.413  0.00  0.00    +0.000 S 
ATOM     15  C   UNL     1      48.448   6.177  19.599  0.00  0.00    +0.000 A 
ATOM     16  N   UNL     1      48.164   6.691  20.826  0.00  0.00    +0.000 NA
ATOM     17  C   UNL     1      47.859   7.946  20.823  0.00  0.00    +0.000 A 
ATOM     18  N   UNL     1      47.802   8.732  19.700  0.00  0.00    +0.000 N 
ATOM     19  C   UNL     1      47.998   8.235  18.437  0.00  0.00    +0.000 A 
ATOM     20  O   UNL     1      47.785   8.929  17.444  0.00  0.00    +0.000 OA
ATOM     21  C   UNL     1      48.403   6.845  18.391  0.00  0.00    +0.000 A 
ATOM     22  H   UNL     1      47.515   9.698  19.763  0.00  0.00    +0.000 HD
ENDBRANCH   9  12
ENDBRANCH   7  10
ENDBRANCH   1   7
BRANCH   4  23
ATOM     23  C   UNL     1      44.303   3.291  10.642  0.00  0.00    +0.000 C 
BRANCH  23  24
ATOM     24  N   UNL     1      44.044   3.792   9.281  0.00  0.00    +0.000 NA
ATOM     25  H   UNL     1      44.311   4.780   9.295  0.00  0.00    +0.000 HD
BRANCH  24  26
ATOM     26  C   UNL     1      44.820   3.117   8.230  0.00  0.00    +0.000 C 
ATOM     27  C   UNL     1      45.878   4.035   7.592  0.00  0.00    +0.000 C 
ATOM     28  C   UNL     1      46.752   3.279   6.595  0.00  0.00    +0.000 C 
ATOM     29  C   UNL     1      47.413   2.070   7.250  0.00  0.00    +0.000 C 
ATOM     30  C   UNL     1      46.364   1.137   7.851  0.00  0.00    +0.000 C 
ATOM     31  C   UNL     1      45.477   1.871   8.853  0.00  0.00    +0.000 C 
BRANCH  29  32
ATOM     32  O   UNL     1      48.187   1.365   6.288  0.00  0.00    +0.000 OA
ATOM     33  H   UNL     1      48.954   0.975   6.741  0.00  0.00    +0.000 HD
ENDBRANCH  29  32
ENDBRANCH  24  26
ENDBRANCH  23  24
ENDBRANCH   4  23
TORSDOF 7
ENDMDL
MODEL 4
REMARK VINA RESULT:    -8.070      2.276      3.400
REMARK INTER + INTRA:         -12.022
REMARK INTER:                 -11.169
REMARK INTRA:                  -0.853
REMARK UNBOUND:                -0.885
REMARK  Name = 
REMARK  7 active torsions:
REMARK  status: ('A' for Active; 'I' for Inactive)
REMARK    1  A    between atoms: C_2  and  C_20
REMARK    2  A    between atoms: N_3  and  C_4
REMARK    3  A    between atoms: C_4  and  C_5
REMARK    4  A    between atoms: C_8  and  C_9
REMARK    5  A    between atoms: C_9  and  N_10
REMARK    6  A    between atoms: N_10  and  C_11
REMARK    7  A    between atoms: C_14  and  O_15
REMARK                            x       y       z     vdW  Elec       q    Type
REMARK                         _______ _______ _______ _____ _____    ______ ____
ROOT
ATOM      1  C   UNL     1      46.218   4.660  13.234  0.00  0.00    +0.000 A 
ATOM      2  C   UNL     1      46.234   5.741  12.351  0.00  0.00    +0.000 A 
ATOM      3  C   UNL     1      45.620   5.627  11.109  0.00  0.00    +0.000 A 
ATOM      4  C   UNL     1      44.988   4.431  10.778  0.00  0.00    +0.000 A 
ATOM      5  N   UNL     1      44.920   3.379  11.635  0.00  0.00    +0.000 NA
ATOM      6  C   UNL     1      45.528   3.522  12.836  0.00  0.00    +0.000 A 
ENDROOT
BRANCH   1   7
ATOM      7  C   UNL     1      46.896   4.742  14.568  0.00  0.00    +0.000 C 
BRANCH   7  10
ATOM      8  O   UNL     1      49.066   5.300  16.277  0.00  0.00    +0.000 OA
ATOM      9  C   UNL     1      48.610   6.197  15.575  0.00  0.00    +0.000 C 
ATOM     10  N   UNL     1      47.518   6.025  14.765  0.00  0.00    +0.000 N 
ATOM     11  H   UNL     1      47.306   6.733  14.071  0.00  0.00    +0.000 HD
BRANCH   9  12
ATOM     12  C   UNL     1      49.183   7.547  15.589  0.00  0.00    +0.000 A 
ATOM     13  C   UNL     1      49.931   7.999  14.511  0.00  0.00    +0.000 A 
ATOM     14  S   UNL     1      50.504   9.594  14.702  0.00  0.00    +0.000 S 
ATOM     15  C   UNL     1      49.740   9.745  16.216  0.00  0.00    +0.000 A 
ATOM     16  N   UNL     1      49.805  10.906  16.923  0.00  0.00    +0.000 NA
ATOM     17  C   UNL     1      49.147  10.892  18.035  0.00  0.00    +0.000 A 
ATOM     18  N   UNL     1      48.439   9.816  18.509  0.00  0.00    +0.000 N 
ATOM     19  C   UNL     1      48.419   8.603  17.870  0.00  0.00    +0.000 A 
ATOM     20  O   UNL     1      47.907   7.617  18.400  0.00  0.00    +0.000 OA
ATOM     21  C   UNL     1      49.090   8.585  16.587  0.00  0.00    +0.000 A 
ATOM     22  H   UNL     1      47.982   9.858  19.408  0.00  0.00    +0.000 HD
ENDBRANCH   9  12
ENDBRANCH   7  10
ENDBRANCH   1   7
BRANCH   4  23
ATOM     23  C   UNL     1      44.324   4.272   9.424  0.00  0.00    +0.000 C 
BRANCH  23  24
ATOM     24  N   UNL     1      44.152   2.875   8.992  0.00  0.00    +0.000 NA
ATOM     25  H   UNL     1      43.178   2.800   8.682  0.00  0.00    +0.000 HD
BRANCH  24  26
ATOM     26  C   UNL     1      45.024   2.475   7.878  0.00  0.00    +0.000 C 
ATOM     27  C   UNL     1      45.812   3.657   7.286  0.00  0.00    +0.000 C 
ATOM     28  C   UNL     1      46.799   3.197   6.217  0.00  0.00    +0.000 C 
ATOM     29  C   UNL     1      47.750   2.138   6.767  0.00  0.00    +0.000 C 
ATOM     30  C   UNL     1      46.974   0.946   7.321  0.00  0.00    +0.000 C 
ATOM     31  C   UNL     1      45.979   1.381   8.393  0.00  0.00    +0.000 C 
BRANCH  29  32
ATOM     32  O   UNL     1      48.631   1.701   5.739  0.00  0.00    +0.000 OA
ATOM     33  H   UNL     1      48.577   0.733   5.683  0.00  0.00    +0.000 HD
ENDBRANCH  29  32
ENDBRANCH  24  26
ENDBRANCH  23  24
ENDBRANCH   4  23
TORSDOF 7
ENDMDL
MODEL 5
REMARK VINA RESULT:    -7.871      2.254      3.105
REMARK INTER + INTRA:         -11.747
REMARK INTER:                 -11.071
REMARK INTRA:                  -0.676
REMARK UNBOUND:                -0.885
REMARK  Name = 
REMARK  7 active torsions:
REMARK  status: ('A' for Active; 'I' for Inactive)
REMARK    1  A    between atoms: C_2  and  C_20
REMARK    2  A    between atoms: N_3  and  C_4
REMARK    3  A    between atoms: C_4  and  C_5
REMARK    4  A    between atoms: C_8  and  C_9
REMARK    5  A    between atoms: C_9  and  N_10
REMARK    6  A    between atoms: N_10  and  C_11
REMARK    7  A    between atoms: C_14  and  O_15
REMARK                            x       y       z     vdW  Elec       q    Type
REMARK                         _______ _______ _______ _____ _____    ______ ____
ROOT
ATOM      1  C   UNL     1      46.189   4.494  13.351  0.00  0.00    +0.000 A 
ATOM      2  C   UNL     1      46.152   5.646  12.564  0.00  0.00    +0.000 A 
ATOM      3  C   UNL     1      45.586   5.598  11.295  0.00  0.00    +0.000 A 
ATOM      4  C   UNL     1      45.054   4.393  10.840  0.00  0.00    +0.000 A 
ATOM      5  N   UNL     1      45.038   3.268  11.603  0.00  0.00    +0.000 NA
ATOM      6  C   UNL     1      45.597   3.348  12.833  0.00  0.00    +0.000 A 
ENDROOT
BRANCH   1   7
ATOM      7  C   UNL     1      46.818   4.507  14.710  0.00  0.00    +0.000 C 
BRANCH   7  10
ATOM      8  O   UNL     1      48.330   5.127  17.006  0.00  0.00    +0.000 OA
ATOM      9  C   UNL     1      48.456   5.820  16.001  0.00  0.00    +0.000 C 
ATOM     10  N   UNL     1      47.712   5.624  14.867  0.00  0.00    +0.000 N 
ATOM     11  H   UNL     1      47.989   6.095  14.012  0.00  0.00    +0.000 HD
BRANCH   9  12
ATOM     12  C   UNL     1      49.390   6.949  15.960  0.00  0.00    +0.000 A 
ATOM     13  C   UNL     1      48.967   8.188  15.498  0.00  0.00    +0.000 A 
ATOM     14  S   UNL     1      50.187   9.379  15.535  0.00  0.00    +0.000 S 
ATOM     15  C   UNL     1      51.309   8.288  16.203  0.00  0.00    +0.000 A 
ATOM     16  N   UNL     1      52.572   8.683  16.521  0.00  0.00    +0.000 NA
ATOM     17  C   UNL     1      53.302   7.763  17.057  0.00  0.00    +0.000 A 
ATOM     18  N   UNL     1      52.887   6.476  17.292  0.00  0.00    +0.000 N 
ATOM     19  C   UNL     1      51.654   6.014  16.909  0.00  0.00    +0.000 A 
ATOM     20  O   UNL     1      51.373   4.819  16.993  0.00  0.00    +0.000 OA
ATOM     21  C   UNL     1      50.774   7.025  16.361  0.00  0.00    +0.000 A 
ATOM     22  H   UNL     1      53.524   5.793  17.675  0.00  0.00    +0.000 HD
ENDBRANCH   9  12
ENDBRANCH   7  10
ENDBRANCH   1   7
BRANCH   4  23
ATOM     23  C   UNL     1      44.446   4.306   9.455  0.00  0.00    +0.000 C 
BRANCH  23  24
ATOM     24  N   UNL     1      44.203   2.932   8.983  0.00  0.00    +0.000 NA
ATOM     25  H   UNL     1      43.229   2.918   8.664  0.00  0.00    +0.000 HD
BRANCH  24  26
ATOM     26  C   UNL     1      45.062   2.517   7.864  0.00  0.00    +0.000 C 
ATOM     27  C   UNL     1      45.853   3.688   7.256  0.00  0.00    +0.000 C 
ATOM     28  C   UNL     1      46.828   3.212   6.182  0.00  0.00    +0.000 C 
ATOM     29  C   UNL     1      47.775   2.151   6.731  0.00  0.00    +0.000 C 
ATOM     30  C   UNL     1      46.995   0.969   7.302  0.00  0.00    +0.000 C 
ATOM     31  C   UNL     1      46.013   1.420   8.379  0.00  0.00    +0.000 C 
BRANCH  29  32
ATOM     32  O   UNL     1      48.643   1.699   5.699  0.00  0.00    +0.000 OA
ATOM     33  H   UNL     1      48.582   0.731   5.652  0.00  0.00    +0.000 HD
ENDBRANCH  29  32
ENDBRANCH  24  26
ENDBRANCH  23  24
ENDBRANCH   4  23
TORSDOF 7
ENDMDL
MODEL 6
REMARK VINA RESULT:    -7.602      3.175      4.368
REMARK INTER + INTRA:         -11.375
REMARK INTER:                 -10.146
REMARK INTRA:                  -1.229
REMARK UNBOUND:                -0.885
REMARK  Name = 
REMARK  7 active torsions:
REMARK  status: ('A' for Active; 'I' for Inactive)
REMARK    1  A    between atoms: C_2  and  C_20
REMARK    2  A    between atoms: N_3  and  C_4
REMARK    3  A    between atoms: C_4  and  C_5
REMARK    4  A    between atoms: C_8  and  C_9
REMARK    5  A    between atoms: C_9  and  N_10
REMARK    6  A    between atoms: N_10  and  C_11
REMARK    7  A    between atoms: C_14  and  O_15
REMARK                            x       y       z     vdW  Elec       q    Type
REMARK                         _______ _______ _______ _____ _____    ______ ____
ROOT
ATOM      1  C   UNL     1      45.890   7.036  12.574  0.00  0.00    +0.000 A 
ATOM      2  C   UNL     1      45.823   7.037  11.179  0.00  0.00    +0.000 A 
ATOM      3  C   UNL     1      45.529   5.860  10.501  0.00  0.00    +0.000 A 
ATOM      4  C   UNL     1      45.295   4.700  11.236  0.00  0.00    +0.000 A 
ATOM      5  N   UNL     1      45.311   4.681  12.594  0.00  0.00    +0.000 NA
ATOM      6  C   UNL     1      45.601   5.843  13.225  0.00  0.00    +0.000 A 
ENDROOT
BRANCH   1   7
ATOM      7  C   UNL     1      46.234   8.282  13.332  0.00  0.00    +0.000 C 
BRANCH   7  10
ATOM      8  O   UNL     1      48.185   7.557  15.231  0.00  0.00    +0.000 OA
ATOM      9  C   UNL     1      48.533   8.129  14.203  0.00  0.00    +0.000 C 
ATOM     10  N   UNL     1      47.642   8.571  13.260  0.00  0.00    +0.000 N 
ATOM     11  H   UNL     1      47.991   8.860  12.353  0.00  0.00    +0.000 HD
BRANCH   9  12
ATOM     12  C   UNL     1      49.943   8.425  13.931  0.00  0.00    +0.000 A 
ATOM     13  C   UNL     1      50.750   8.954  14.928  0.00  0.00    +0.000 A 
ATOM     14  S   UNL     1      52.359   9.221  14.430  0.00  0.00    +0.000 S 
ATOM     15  C   UNL     1      52.037   8.606  12.875  0.00  0.00    +0.000 A 
ATOM     16  N   UNL     1      53.019   8.517  11.937  0.00  0.00    +0.000 NA
ATOM     17  C   UNL     1      52.643   7.995  10.817  0.00  0.00    +0.000 A 
ATOM     18  N   UNL     1      51.369   7.565  10.546  0.00  0.00    +0.000 N 
ATOM     19  C   UNL     1      50.333   7.715  11.432  0.00  0.00    +0.000 A 
ATOM     20  O   UNL     1      49.175   7.463  11.098  0.00  0.00    +0.000 OA
ATOM     21  C   UNL     1      50.715   8.237  12.727  0.00  0.00    +0.000 A 
ATOM     22  H   UNL     1      51.131   7.205   9.633  0.00  0.00    +0.000 HD
ENDBRANCH   9  12
ENDBRANCH   7  10
ENDBRANCH   1   7
BRANCH   4  23
ATOM     23  C   UNL     1      44.988   3.398  10.522  0.00  0.00    +0.000 C 
BRANCH  23  24
ATOM     24  N   UNL     1      44.349   3.562   9.205  0.00  0.00    +0.000 NA
ATOM     25  H   UNL     1      44.274   4.574   9.059  0.00  0.00    +0.000 HD
BRANCH  24  26
ATOM     26  C   UNL     1      45.112   2.988   8.087  0.00  0.00    +0.000 C 
ATOM     27  C   UNL     1      46.077   4.000   7.445  0.00  0.00    +0.000 C 
ATOM     28  C   UNL     1      46.944   3.348   6.372  0.00  0.00    +0.000 C 
ATOM     29  C   UNL     1      47.711   2.156   6.935  0.00  0.00    +0.000 C 
ATOM     30  C   UNL     1      46.755   1.131   7.539  0.00  0.00    +0.000 C 
ATOM     31  C   UNL     1      45.876   1.760   8.616  0.00  0.00    +0.000 C 
BRANCH  29  32
ATOM     32  O   UNL     1      48.478   1.546   5.904  0.00  0.00    +0.000 OA
ATOM     33  H   UNL     1      48.304   2.021   5.074  0.00  0.00    +0.000 HD
ENDBRANCH  29  32
ENDBRANCH  24  26
ENDBRANCH  23  24
ENDBRANCH   4  23
TORSDOF 7
ENDMDL
MODEL 7
REMARK VINA RESULT:    -7.334      2.375      2.915
REMARK INTER + INTRA:         -11.005
REMARK INTER:                 -10.146
REMARK INTRA:                  -0.859
REMARK UNBOUND:                -0.885
REMARK  Name = 
REMARK  7 active torsions:
REMARK  status: ('A' for Active; 'I' for Inactive)
REMARK    1  A    between atoms: C_2  and  C_20
REMARK    2  A    between atoms: N_3  and  C_4
REMARK    3  A    between atoms: C_4  and  C_5
REMARK    4  A    between atoms: C_8  and  C_9
REMARK    5  A    between atoms: C_9  and  N_10
REMARK    6  A    between atoms: N_10  and  C_11
REMARK    7  A    between atoms: C_14  and  O_15
REMARK                            x       y       z     vdW  Elec       q    Type
REMARK                         _______ _______ _______ _____ _____    ______ ____
ROOT
ATOM      1  C   UNL     1      46.504   4.774  14.311  0.00  0.00    +0.000 A 
ATOM      2  C   UNL     1      47.350   5.745  13.773  0.00  0.00    +0.000 A 
ATOM      3  C   UNL     1      47.165   6.173  12.463  0.00  0.00    +0.000 A 
ATOM      4  C   UNL     1      46.124   5.625  11.716  0.00  0.00    +0.000 A 
ATOM      5  N   UNL     1      45.260   4.711  12.229  0.00  0.00    +0.000 NA
ATOM      6  C   UNL     1      45.467   4.315  13.507  0.00  0.00    +0.000 A 
ENDROOT
BRANCH   1   7
ATOM      7  C   UNL     1      46.696   4.272  15.709  0.00  0.00    +0.000 C 
BRANCH   7  10
ATOM      8  O   UNL     1      47.852   5.292  18.067  0.00  0.00    +0.000 OA
ATOM      9  C   UNL     1      48.560   4.694  17.263  0.00  0.00    +0.000 C 
ATOM     10  N   UNL     1      48.089   4.223  16.065  0.00  0.00    +0.000 N 
ATOM     11  H   UNL     1      48.662   3.577  15.533  0.00  0.00    +0.000 HD
BRANCH   9  12
ATOM     12  C   UNL     1      49.989   4.480  17.511  0.00  0.00    +0.000 A 
ATOM     13  C   UNL     1      50.797   5.540  17.897  0.00  0.00    +0.000 A 
ATOM     14  S   UNL     1      52.425   5.098  18.150  0.00  0.00    +0.000 S 
ATOM     15  C   UNL     1      52.095   3.467  17.786  0.00  0.00    +0.000 A 
ATOM     16  N   UNL     1      53.071   2.521  17.850  0.00  0.00    +0.000 NA
ATOM     17  C   UNL     1      52.671   1.321  17.588  0.00  0.00    +0.000 A 
ATOM     18  N   UNL     1      51.383   0.984  17.256  0.00  0.00    +0.000 N 
ATOM     19  C   UNL     1      50.390   1.917  17.098  0.00  0.00    +0.000 A 
ATOM     20  O   UNL     1      49.290   1.598  16.648  0.00  0.00    +0.000 OA
ATOM     21  C   UNL     1      50.772   3.270  17.441  0.00  0.00    +0.000 A 
ATOM     22  H   UNL     1      51.146   0.031  17.020  0.00  0.00    +0.000 HD
ENDBRANCH   9  12
ENDBRANCH   7  10
ENDBRANCH   1   7
BRANCH   4  23
ATOM     23  C   UNL     1      45.909   6.060  10.280  0.00  0.00    +0.000 C 
BRANCH  23  24
ATOM     24  N   UNL     1      45.156   5.096   9.459  0.00  0.00    +0.000 NA
ATOM     25  H   UNL     1      44.849   5.618   8.633  0.00  0.00    +0.000 HD
BRANCH  24  26
ATOM     26  C   UNL     1      45.945   3.940   9.009  0.00  0.00    +0.000 C 
ATOM     27  C   UNL     1      45.128   2.635   8.988  0.00  0.00    +0.000 C 
ATOM     28  C   UNL     1      45.931   1.477   8.402  0.00  0.00    +0.000 C 
ATOM     29  C   UNL     1      46.441   1.815   7.005  0.00  0.00    +0.000 C 
ATOM     30  C   UNL     1      47.284   3.088   7.027  0.00  0.00    +0.000 C 
ATOM     31  C   UNL     1      46.502   4.261   7.610  0.00  0.00    +0.000 C 
BRANCH  29  32
ATOM     32  O   UNL     1      47.216   0.735   6.501  0.00  0.00    +0.000 OA
ATOM     33  H   UNL     1      47.973   0.599   7.096  0.00  0.00    +0.000 HD
ENDBRANCH  29  32
ENDBRANCH  24  26
ENDBRANCH  23  24
ENDBRANCH   4  23
TORSDOF 7
ENDMDL
MODEL 8
REMARK VINA RESULT:    -7.159      3.493      4.404
REMARK INTER + INTRA:         -10.765
REMARK INTER:                  -9.963
REMARK INTRA:                  -0.801
REMARK UNBOUND:                -0.885
REMARK  Name = 
REMARK  7 active torsions:
REMARK  status: ('A' for Active; 'I' for Inactive)
REMARK    1  A    between atoms: C_2  and  C_20
REMARK    2  A    between atoms: N_3  and  C_4
REMARK    3  A    between atoms: C_4  and  C_5
REMARK    4  A    between atoms: C_8  and  C_9
REMARK    5  A    between atoms: C_9  and  N_10
REMARK    6  A    between atoms: N_10  and  C_11
REMARK    7  A    between atoms: C_14  and  O_15
REMARK                            x       y       z     vdW  Elec       q    Type
REMARK                         _______ _______ _______ _____ _____    ______ ____
ROOT
ATOM      1  C   UNL     1      46.084   6.771  12.555  0.00  0.00    +0.000 A 
ATOM      2  C   UNL     1      45.186   6.859  11.490  0.00  0.00    +0.000 A 
ATOM      3  C   UNL     1      44.623   5.701  10.965  0.00  0.00    +0.000 A 
ATOM      4  C   UNL     1      44.963   4.473  11.526  0.00  0.00    +0.000 A 
ATOM      5  N   UNL     1      45.800   4.363  12.590  0.00  0.00    +0.000 NA
ATOM      6  C   UNL     1      46.332   5.509  13.078  0.00  0.00    +0.000 A 
ENDROOT
BRANCH   1   7
ATOM      7  C   UNL     1      46.730   7.998  13.123  0.00  0.00    +0.000 C 
BRANCH   7  10
ATOM      8  O   UNL     1      48.671   9.784  14.114  0.00  0.00    +0.000 OA
ATOM      9  C   UNL     1      48.966   9.029  13.192  0.00  0.00    +0.000 C 
ATOM     10  N   UNL     1      48.063   8.177  12.612  0.00  0.00    +0.000 N 
ATOM     11  H   UNL     1      48.404   7.448  11.994  0.00  0.00    +0.000 HD
BRANCH   9  12
ATOM     12  C   UNL     1      50.311   9.021  12.609  0.00  0.00    +0.000 A 
ATOM     13  C   UNL     1      50.532   9.573  11.355  0.00  0.00    +0.000 A 
ATOM     14  S   UNL     1      52.158   9.481  10.847  0.00  0.00    +0.000 S 
ATOM     15  C   UNL     1      52.626   8.732  12.303  0.00  0.00    +0.000 A 
ATOM     16  N   UNL     1      53.926   8.406  12.540  0.00  0.00    +0.000 NA
ATOM     17  C   UNL     1      54.143   7.880  13.699  0.00  0.00    +0.000 A 
ATOM     18  N   UNL     1      53.174   7.640  14.640  0.00  0.00    +0.000 N 
ATOM     19  C   UNL     1      51.843   7.874  14.409  0.00  0.00    +0.000 A 
ATOM     20  O   UNL     1      50.987   7.501  15.211  0.00  0.00    +0.000 OA
ATOM     21  C   UNL     1      51.553   8.521  13.146  0.00  0.00    +0.000 A 
ATOM     22  H   UNL     1      53.406   7.186  15.511  0.00  0.00    +0.000 HD
ENDBRANCH   9  12
ENDBRANCH   7  10
ENDBRANCH   1   7
BRANCH   4  23
ATOM     23  C   UNL     1      44.377   3.193  10.963  0.00  0.00    +0.000 C 
BRANCH  23  24
ATOM     24  N   UNL     1      44.350   3.132   9.492  0.00  0.00    +0.000 NA
ATOM     25  H   UNL     1      44.111   4.078   9.181  0.00  0.00    +0.000 HD
BRANCH  24  26
ATOM     26  C   UNL     1      45.632   2.754   8.879  0.00  0.00    +0.000 C 
ATOM     27  C   UNL     1      45.653   1.293   8.397  0.00  0.00    +0.000 C 
ATOM     28  C   UNL     1      46.945   0.962   7.655  0.00  0.00    +0.000 C 
ATOM     29  C   UNL     1      47.167   1.917   6.487  0.00  0.00    +0.000 C 
ATOM     30  C   UNL     1      47.185   3.367   6.965  0.00  0.00    +0.000 C 
ATOM     31  C   UNL     1      45.902   3.721   7.711  0.00  0.00    +0.000 C 
BRANCH  29  32
ATOM     32  O   UNL     1      48.396   1.610   5.840  0.00  0.00    +0.000 OA
ATOM     33  H   UNL     1      48.930   2.420   5.800  0.00  0.00    +0.000 HD
ENDBRANCH  29  32
ENDBRANCH  24  26
ENDBRANCH  23  24
ENDBRANCH   4  23
TORSDOF 7
ENDMDL
MODEL 9
REMARK VINA RESULT:    -6.797      2.976      3.986
REMARK INTER + INTRA:         -10.265
REMARK INTER:                  -9.199
REMARK INTRA:                  -1.066
REMARK UNBOUND:                -0.885
REMARK  Name = 
REMARK  7 active torsions:
REMARK  status: ('A' for Active; 'I' for Inactive)
REMARK    1  A    between atoms: C_2  and  C_20
REMARK    2  A    between atoms: N_3  and  C_4
REMARK    3  A    between atoms: C_4  and  C_5
REMARK    4  A    between atoms: C_8  and  C_9
REMARK    5  A    between atoms: C_9  and  N_10
REMARK    6  A    between atoms: N_10  and  C_11
REMARK    7  A    between atoms: C_14  and  O_15
REMARK                            x       y       z     vdW  Elec       q    Type
REMARK                         _______ _______ _______ _____ _____    ______ ____
ROOT
ATOM      1  C   UNL     1      48.694   8.069  13.404  0.00  0.00    +0.000 A 
ATOM      2  C   UNL     1      48.503   7.351  12.223  0.00  0.00    +0.000 A 
ATOM      3  C   UNL     1      47.261   7.368  11.598  0.00  0.00    +0.000 A 
ATOM      4  C   UNL     1      46.232   8.115  12.165  0.00  0.00    +0.000 A 
ATOM      5  N   UNL     1      46.403   8.858  13.290  0.00  0.00    +0.000 NA
ATOM      6  C   UNL     1      47.624   8.821  13.874  0.00  0.00    +0.000 A 
ENDROOT
BRANCH   1   7
ATOM      7  C   UNL     1      50.012   8.048  14.116  0.00  0.00    +0.000 C 
BRANCH   7  10
ATOM      8  O   UNL     1      49.446   8.535  16.833  0.00  0.00    +0.000 OA
ATOM      9  C   UNL     1      49.678   7.387  16.466  0.00  0.00    +0.000 C 
ATOM     10  N   UNL     1      50.023   7.075  15.177  0.00  0.00    +0.000 N 
ATOM     11  H   UNL     1      50.014   6.103  14.888  0.00  0.00    +0.000 HD
BRANCH   9  12
ATOM     12  C   UNL     1      49.645   6.261  17.404  0.00  0.00    +0.000 A 
ATOM     13  C   UNL     1      50.416   6.291  18.557  0.00  0.00    +0.000 A 
ATOM     14  S   UNL     1      50.239   4.901  19.529  0.00  0.00    +0.000 S 
ATOM     15  C   UNL     1      49.100   4.229  18.457  0.00  0.00    +0.000 A 
ATOM     16  N   UNL     1      48.509   3.032  18.719  0.00  0.00    +0.000 NA
ATOM     17  C   UNL     1      47.636   2.663  17.841  0.00  0.00    +0.000 A 
ATOM     18  N   UNL     1      47.310   3.379  16.717  0.00  0.00    +0.000 N 
ATOM     19  C   UNL     1      47.943   4.546  16.373  0.00  0.00    +0.000 A 
ATOM     20  O   UNL     1      47.737   5.079  15.282  0.00  0.00    +0.000 OA
ATOM     21  C   UNL     1      48.886   5.035  17.357  0.00  0.00    +0.000 A 
ATOM     22  H   UNL     1      46.649   3.012  16.048  0.00  0.00    +0.000 HD
ENDBRANCH   9  12
ENDBRANCH   7  10
ENDBRANCH   1   7
BRANCH   4  23
ATOM     23  C   UNL     1      44.863   8.138  11.516  0.00  0.00    +0.000 C 
BRANCH  23  24
ATOM     24  N   UNL     1      44.574   6.971  10.664  0.00  0.00    +0.000 NA
ATOM     25  H   UNL     1      45.306   6.964   9.948  0.00  0.00    +0.000 HD
BRANCH  24  26
ATOM     26  C   UNL     1      44.607   5.683  11.373  0.00  0.00    +0.000 C 
ATOM     27  C   UNL     1      43.426   5.509  12.344  0.00  0.00    +0.000 C 
ATOM     28  C   UNL     1      43.415   4.118  12.972  0.00  0.00    +0.000 C 
ATOM     29  C   UNL     1      43.396   3.031  11.902  0.00  0.00    +0.000 C 
ATOM     30  C   UNL     1      44.587   3.178  10.958  0.00  0.00    +0.000 C 
ATOM     31  C   UNL     1      44.620   4.562  10.317  0.00  0.00    +0.000 C 
BRANCH  29  32
ATOM     32  O   UNL     1      43.426   1.749  12.516  0.00  0.00    +0.000 OA
ATOM     33  H   UNL     1      42.541   1.562  12.872  0.00  0.00    +0.000 HD
ENDBRANCH  29  32
ENDBRANCH  24  26
ENDBRANCH  23  24
ENDBRANCH   4  23
TORSDOF 7
ENDMDL
