MODEL 1
REMARK VINA RESULT:    -8.048      0.000      0.000
REMARK INTER + INTRA:         -11.814
REMARK INTER:                 -10.871
REMARK INTRA:                  -0.943
REMARK UNBOUND:                -0.943
REMARK  Name = 
REMARK  7 active torsions:
REMARK  status: ('A' for Active; 'I' for Inactive)
REMARK    1  A    between atoms: C_1  and  C_2
REMARK    2  A    between atoms: C_5  and  C_6
REMARK    3  A    between atoms: N_8  and  C_9
REMARK    4  A    between atoms: C_9  and  C_10
REMARK    5  A    between atoms: C_13  and  C_14
REMARK    6  A    between atoms: C_14  and  N_15
REMARK    7  A    between atoms: C_16  and  C_18
REMARK                            x       y       z     vdW  Elec       q    Type
REMARK                         _______ _______ _______ _____ _____    ______ ____
ROOT
ATOM      1  C   UNL     1      44.901   6.268  11.367  0.00  0.00    +0.000 A 
ATOM      2  C   UNL     1      44.546   7.583  11.698  0.00  0.00    +0.000 A 
ATOM      3  C   UNL     1      45.368   8.360  12.526  0.00  0.00    +0.000 A 
ATOM      4  C   UNL     1      46.576   7.849  13.022  0.00  0.00    +0.000 A 
ATOM      5  C   UNL     1      46.932   6.537  12.684  0.00  0.00    +0.000 A 
ATOM      6  C   UNL     1      46.111   5.760  11.856  0.00  0.00    +0.000 A 
ENDROOT
BRANCH   1   7
ATOM      7  C   UNL     1      44.012   5.426  10.483  0.00  0.00    +0.000 C 
BRANCH   7  10
ATOM      8  C   UNL     1      44.681   3.256   9.491  0.00  0.00    +0.000 C 
ATOM      9  O   UNL     1      43.901   2.628  10.208  0.00  0.00    +0.000 OA
ATOM     10  N   UNL     1      44.786   4.628   9.567  0.00  0.00    +0.000 N 
ATOM     11  H   UNL     1      45.406   5.094   8.915  0.00  0.00    +0.000 HD
BRANCH   8  16
ATOM     12  C   UNL     1      47.938   2.308   5.399  0.00  0.00    +0.000 C 
ATOM     13  C   UNL     1      47.077   2.155   6.605  0.00  0.00    +0.000 A 
ATOM     14  C   UNL     1      46.808   1.021   7.342  0.00  0.00    +0.000 A 
ATOM     15  C   UNL     1      45.929   1.289   8.436  0.00  0.00    +0.000 A 
ATOM     16  C   UNL     1      45.551   2.620   8.507  0.00  0.00    +0.000 A 
ATOM     17  S   UNL     1      46.270   3.521   7.234  0.00  0.00    +0.000 S 
ENDBRANCH   8  16
ENDBRANCH   7  10
ENDBRANCH   1   7
BRANCH   4  18
ATOM     18  C   UNL     1      47.460   8.675  13.924  0.00  0.00    +0.000 C 
BRANCH  18  19
ATOM     19  N   UNL     1      47.871   7.933  15.092  0.00  0.00    +0.000 N 
ATOM     20  C   UNL     1      49.122   7.376  15.186  0.00  0.00    +0.000 C 
ATOM     21  O   UNL     1      49.965   7.515  14.303  0.00  0.00    +0.000 OA
ATOM     22  H   UNL     1      47.135   7.609  15.713  0.00  0.00    +0.000 HD
BRANCH  20  23
ATOM     23  C   UNL     1      49.429   6.655  16.430  0.00  0.00    +0.000 A 
ATOM     24  C   UNL     1      50.392   7.154  17.299  0.00  0.00    +0.000 A 
ATOM     25  S   UNL     1      50.587   6.225  18.716  0.00  0.00    +0.000 S 
ATOM     26  C   UNL     1      49.432   5.090  18.196  0.00  0.00    +0.000 A 
ATOM     27  N   UNL     1      49.135   3.997  18.949  0.00  0.00    +0.000 NA
ATOM     28  C   UNL     1      48.267   3.202  18.419  0.00  0.00    +0.000 A 
ATOM     29  N   UNL     1      47.662   3.405  17.205  0.00  0.00    +0.000 N 
ATOM     30  C   UNL     1      47.903   4.513  16.426  0.00  0.00    +0.000 A 
ATOM     31  O   UNL     1      47.305   4.692  15.370  0.00  0.00    +0.000 OA
ATOM     32  C   UNL     1      48.888   5.429  16.968  0.00  0.00    +0.000 A 
ATOM     33  H   UNL     1      46.981   2.751  16.849  0.00  0.00    +0.000 HD
ENDBRANCH  20  23
ENDBRANCH  18  19
ENDBRANCH   4  18
TORSDOF 6
ENDMDL
MODEL 2
REMARK VINA RESULT:    -7.515      1.912      2.277
REMARK INTER + INTRA:         -11.094
REMARK INTER:                 -10.231
REMARK INTRA:                  -0.864
REMARK UNBOUND:                -0.943
REMARK  Name = 
REMARK  7 active torsions:
REMARK  status: ('A' for Active; 'I' for Inactive)
REMARK    1  A    between atoms: C_1  and  C_2
REMARK    2  A    between atoms: C_5  and  C_6
REMARK    3  A    between atoms: N_8  and  C_9
REMARK    4  A    between atoms: C_9  and  C_10
REMARK    5  A    between atoms: C_13  and  C_14
REMARK    6  A    between atoms: C_14  and  N_15
REMARK    7  A    between atoms: C_16  and  C_18
REMARK                            x       y       z     vdW  Elec       q    Type
REMARK                         _______ _______ _______ _____ _____    ______ ____
ROOT
ATOM      1  C   UNL     1      45.232   6.247  11.532  0.00  0.00    +0.000 A 
ATOM      2  C   UNL     1      44.988   7.570  11.923  0.00  0.00    +0.000 A 
ATOM      3  C   UNL     1      45.869   8.237  12.785  0.00  0.00    +0.000 A 
ATOM      4  C   UNL     1      47.028   7.605  13.256  0.00  0.00    +0.000 A 
ATOM      5  C   UNL     1      47.275   6.285  12.858  0.00  0.00    +0.000 A 
ATOM      6  C   UNL     1      46.394   5.618  11.996  0.00  0.00    +0.000 A 
ENDROOT
BRANCH   1   7
ATOM      7  C   UNL     1      44.279   5.524  10.610  0.00  0.00    +0.000 C 
BRANCH   7  10
ATOM      8  C   UNL     1      44.769   3.347   9.533  0.00  0.00    +0.000 C 
ATOM      9  O   UNL     1      43.939   2.757  10.227  0.00  0.00    +0.000 OA
ATOM     10  N   UNL     1      44.986   4.702   9.663  0.00  0.00    +0.000 N 
ATOM     11  H   UNL     1      45.643   5.140   9.028  0.00  0.00    +0.000 HD
BRANCH   8  16
ATOM     12  C   UNL     1      47.874   2.286   5.352  0.00  0.00    +0.000 C 
ATOM     13  C   UNL     1      47.039   2.162   6.580  0.00  0.00    +0.000 A 
ATOM     14  C   UNL     1      46.743   1.037   7.319  0.00  0.00    +0.000 A 
ATOM     15  C   UNL     1      45.905   1.335   8.437  0.00  0.00    +0.000 A 
ATOM     16  C   UNL     1      45.585   2.680   8.524  0.00  0.00    +0.000 A 
ATOM     17  S   UNL     1      46.307   3.557   7.236  0.00  0.00    +0.000 S 
ENDBRANCH   8  16
ENDBRANCH   7  10
ENDBRANCH   1   7
BRANCH   4  18
ATOM     18  C   UNL     1      47.975   8.312  14.195  0.00  0.00    +0.000 C 
BRANCH  18  19
ATOM     19  N   UNL     1      47.927   7.751  15.523  0.00  0.00    +0.000 N 
ATOM     20  C   UNL     1      48.909   6.910  15.986  0.00  0.00    +0.000 C 
ATOM     21  O   UNL     1      49.894   6.628  15.309  0.00  0.00    +0.000 OA
ATOM     22  H   UNL     1      47.029   7.776  16.000  0.00  0.00    +0.000 HD
BRANCH  20  23
ATOM     23  C   UNL     1      48.755   6.413  17.361  0.00  0.00    +0.000 A 
ATOM     24  C   UNL     1      49.033   5.083  17.649  0.00  0.00    +0.000 A 
ATOM     25  S   UNL     1      48.854   4.686  19.299  0.00  0.00    +0.000 S 
ATOM     26  C   UNL     1      48.344   6.264  19.679  0.00  0.00    +0.000 A 
ATOM     27  N   UNL     1      47.995   6.601  20.950  0.00  0.00    +0.000 NA
ATOM     28  C   UNL     1      47.596   7.820  21.089  0.00  0.00    +0.000 A 
ATOM     29  N   UNL     1      47.519   8.737  20.073  0.00  0.00    +0.000 N 
ATOM     30  C   UNL     1      47.895   8.454  18.781  0.00  0.00    +0.000 A 
ATOM     31  O   UNL     1      47.867   9.312  17.906  0.00  0.00    +0.000 OA
ATOM     32  C   UNL     1      48.334   7.088  18.566  0.00  0.00    +0.000 A 
ATOM     33  H   UNL     1      47.209   9.681  20.249  0.00  0.00    +0.000 HD
ENDBRANCH  20  23
ENDBRANCH  18  19
ENDBRANCH   4  18
TORSDOF 6
ENDMDL
MODEL 3
REMARK VINA RESULT:    -7.344      4.990      9.509
REMARK INTER + INTRA:         -10.864
REMARK INTER:                 -10.069
REMARK INTRA:                  -0.795
REMARK UNBOUND:                -0.943
REMARK  Name = 
REMARK  7 active torsions:
REMARK  status: ('A' for Active; 'I' for Inactive)
REMARK    1  A    between atoms: C_1  and  C_2
REMARK    2  A    between atoms: C_5  and  C_6
REMARK    3  A    between atoms: N_8  and  C_9
REMARK    4  A    between atoms: C_9  and  C_10
REMARK    5  A    between atoms: C_13  and  C_14
REMARK    6  A    between atoms: C_14  and  N_15
REMARK    7  A    between atoms: C_16  and  C_18
REMARK                            x       y       z     vdW  Elec       q    Type
REMARK                         _______ _______ _______ _____ _____    ______ ____
ROOT
ATOM      1  C   UNL     1      51.413   3.205  17.678  0.00  0.00    +0.000 A 
ATOM      2  C   UNL     1      50.719   4.397  17.923  0.00  0.00    +0.000 A 
ATOM      3  C   UNL     1      49.337   4.480  17.701  0.00  0.00    +0.000 A 
ATOM      4  C   UNL     1      48.614   3.366  17.252  0.00  0.00    +0.000 A 
ATOM      5  C   UNL     1      49.309   2.173  17.014  0.00  0.00    +0.000 A 
ATOM      6  C   UNL     1      50.690   2.089  17.236  0.00  0.00    +0.000 A 
ENDROOT
BRANCH   1   7
ATOM      7  C   UNL     1      52.903   3.115  17.908  0.00  0.00    +0.000 C 
BRANCH   7  10
ATOM      8  C   UNL     1      54.092   0.973  18.279  0.00  0.00    +0.000 C 
ATOM      9  O   UNL     1      54.264   1.215  19.475  0.00  0.00    +0.000 OA
ATOM     10  N   UNL     1      53.431   1.855  17.452  0.00  0.00    +0.000 N 
ATOM     11  H   UNL     1      53.274   1.578  16.490  0.00  0.00    +0.000 HD
BRANCH   8  16
ATOM     12  C   UNL     1      55.505  -4.047  17.252  0.00  0.00    +0.000 C 
ATOM     13  C   UNL     1      55.224  -2.588  17.132  0.00  0.00    +0.000 A 
ATOM     14  C   UNL     1      55.364  -1.764  16.037  0.00  0.00    +0.000 A 
ATOM     15  C   UNL     1      54.984  -0.417  16.327  0.00  0.00    +0.000 A 
ATOM     16  C   UNL     1      54.562  -0.249  17.635  0.00  0.00    +0.000 A 
ATOM     17  S   UNL     1      54.641  -1.736  18.492  0.00  0.00    +0.000 S 
ENDBRANCH   8  16
ENDBRANCH   7  10
ENDBRANCH   1   7
BRANCH   4  18
ATOM     18  C   UNL     1      47.129   3.452  16.998  0.00  0.00    +0.000 C 
BRANCH  18  19
ATOM     19  N   UNL     1      46.817   4.435  15.988  0.00  0.00    +0.000 N 
ATOM     20  C   UNL     1      46.950   4.158  14.650  0.00  0.00    +0.000 C 
ATOM     21  O   UNL     1      47.300   3.053  14.246  0.00  0.00    +0.000 OA
ATOM     22  H   UNL     1      46.758   5.402  16.292  0.00  0.00    +0.000 HD
BRANCH  20  23
ATOM     23  C   UNL     1      46.588   5.236  13.717  0.00  0.00    +0.000 A 
ATOM     24  C   UNL     1      47.491   6.260  13.462  0.00  0.00    +0.000 A 
ATOM     25  S   UNL     1      46.933   7.397  12.318  0.00  0.00    +0.000 S 
ATOM     26  C   UNL     1      45.442   6.593  12.165  0.00  0.00    +0.000 A 
ATOM     27  N   UNL     1      44.469   7.072  11.344  0.00  0.00    +0.000 NA
ATOM     28  C   UNL     1      43.378   6.383  11.350  0.00  0.00    +0.000 A 
ATOM     29  N   UNL     1      43.173   5.252  12.097  0.00  0.00    +0.000 N 
ATOM     30  C   UNL     1      44.140   4.710  12.912  0.00  0.00    +0.000 A 
ATOM     31  O   UNL     1      43.944   3.666  13.525  0.00  0.00    +0.000 OA
ATOM     32  C   UNL     1      45.380   5.459  12.957  0.00  0.00    +0.000 A 
ATOM     33  H   UNL     1      42.299   4.750  12.048  0.00  0.00    +0.000 HD
ENDBRANCH  20  23
ENDBRANCH  18  19
ENDBRANCH   4  18
TORSDOF 6
ENDMDL
MODEL 4
REMARK VINA RESULT:    -7.289      1.714      2.125
REMARK INTER + INTRA:         -10.789
REMARK INTER:                 -10.022
REMARK INTRA:                  -0.767
REMARK UNBOUND:                -0.943
REMARK  Name = 
REMARK  7 active torsions:
REMARK  status: ('A' for Active; 'I' for Inactive)
REMARK    1  A    between atoms: C_1  and  C_2
REMARK    2  A    between atoms: C_5  and  C_6
REMARK    3  A    between atoms: N_8  and  C_9
REMARK    4  A    between atoms: C_9  and  C_10
REMARK    5  A    between atoms: C_13  and  C_14
REMARK    6  A    between atoms: C_14  and  N_15
REMARK    7  A    between atoms: C_16  and  C_18
REMARK                            x       y       z     vdW  Elec       q    Type
REMARK                         _______ _______ _______ _____ _____    ______ ____
ROOT
ATOM      1  C   UNL     1      44.842   4.890  12.108  0.00  0.00    +0.000 A 
ATOM      2  C   UNL     1      44.282   6.069  11.598  0.00  0.00    +0.000 A 
ATOM      3  C   UNL     1      44.775   7.322  11.986  0.00  0.00    +0.000 A 
ATOM      4  C   UNL     1      45.856   7.425  12.872  0.00  0.00    +0.000 A 
ATOM      5  C   UNL     1      46.419   6.245  13.376  0.00  0.00    +0.000 A 
ATOM      6  C   UNL     1      45.926   4.992  12.989  0.00  0.00    +0.000 A 
ENDROOT
BRANCH   1   7
ATOM      7  C   UNL     1      44.305   3.538  11.699  0.00  0.00    +0.000 C 
BRANCH   7  10
ATOM      8  C   UNL     1      44.837   3.335   9.287  0.00  0.00    +0.000 C 
ATOM      9  O   UNL     1      43.977   4.159   8.974  0.00  0.00    +0.000 OA
ATOM     10  N   UNL     1      45.057   2.985  10.602  0.00  0.00    +0.000 N 
ATOM     11  H   UNL     1      45.813   2.341  10.802  0.00  0.00    +0.000 HD
BRANCH   8  16
ATOM     12  C   UNL     1      48.025   2.238   5.178  0.00  0.00    +0.000 C 
ATOM     13  C   UNL     1      47.184   2.129   6.404  0.00  0.00    +0.000 A 
ATOM     14  C   UNL     1      46.931   1.024   7.188  0.00  0.00    +0.000 A 
ATOM     15  C   UNL     1      46.070   1.331   8.286  0.00  0.00    +0.000 A 
ATOM     16  C   UNL     1      45.691   2.663   8.313  0.00  0.00    +0.000 A 
ATOM     17  S   UNL     1      46.386   3.517   6.995  0.00  0.00    +0.000 S 
ENDBRANCH   8  16
ENDBRANCH   7  10
ENDBRANCH   1   7
BRANCH   4  18
ATOM     18  C   UNL     1      46.384   8.771  13.305  0.00  0.00    +0.000 C 
BRANCH  18  19
ATOM     19  N   UNL     1      47.120   8.683  14.543  0.00  0.00    +0.000 N 
ATOM     20  C   UNL     1      48.372   9.231  14.677  0.00  0.00    +0.000 C 
ATOM     21  O   UNL     1      48.909   9.857  13.767  0.00  0.00    +0.000 OA
ATOM     22  H   UNL     1      46.809   7.985  15.213  0.00  0.00    +0.000 HD
BRANCH  20  23
ATOM     23  C   UNL     1      49.015   9.088  15.992  0.00  0.00    +0.000 A 
ATOM     24  C   UNL     1      49.237  10.211  16.779  0.00  0.00    +0.000 A 
ATOM     25  S   UNL     1      49.943   9.861  18.292  0.00  0.00    +0.000 S 
ATOM     26  C   UNL     1      50.032   8.201  17.927  0.00  0.00    +0.000 A 
ATOM     27  N   UNL     1      50.575   7.319  18.808  0.00  0.00    +0.000 NA
ATOM     28  C   UNL     1      50.608   6.098  18.390  0.00  0.00    +0.000 A 
ATOM     29  N   UNL     1      50.141   5.678  17.171  0.00  0.00    +0.000 N 
ATOM     30  C   UNL     1      49.550   6.527  16.264  0.00  0.00    +0.000 A 
ATOM     31  O   UNL     1      49.093   6.110  15.206  0.00  0.00    +0.000 OA
ATOM     32  C   UNL     1      49.506   7.916  16.678  0.00  0.00    +0.000 A 
ATOM     33  H   UNL     1      50.185   4.705  16.907  0.00  0.00    +0.000 HD
ENDBRANCH  20  23
ENDBRANCH  18  19
ENDBRANCH   4  18
TORSDOF 6
ENDMDL
MODEL 5
REMARK VINA RESULT:    -7.056      3.628      4.793
REMARK INTER + INTRA:         -10.474
REMARK INTER:                  -9.377
REMARK INTRA:                  -1.097
REMARK UNBOUND:                -0.943
REMARK  Name = 
REMARK  7 active torsions:
REMARK  status: ('A' for Active; 'I' for Inactive)
REMARK    1  A    between atoms: C_1  and  C_2
REMARK    2  A    between atoms: C_5  and  C_6
REMARK    3  A    between atoms: N_8  and  C_9
REMARK    4  A    between atoms: C_9  and  C_10
REMARK    5  A    between atoms: C_13  and  C_14
REMARK    6  A    between atoms: C_14  and  N_15
REMARK    7  A    between atoms: C_16  and  C_18
REMARK                            x       y       z     vdW  Elec       q    Type
REMARK                         _______ _______ _______ _____ _____    ______ ____
ROOT
ATOM      1  C   UNL     1      44.672   6.232  11.367  0.00  0.00    +0.000 A 
ATOM      2  C   UNL     1      44.530   7.625  11.335  0.00  0.00    +0.000 A 
ATOM      3  C   UNL     1      45.321   8.446  12.150  0.00  0.00    +0.000 A 
ATOM      4  C   UNL     1      46.291   7.893  12.999  0.00  0.00    +0.000 A 
ATOM      5  C   UNL     1      46.436   6.500  13.026  0.00  0.00    +0.000 A 
ATOM      6  C   UNL     1      45.646   5.679  12.211  0.00  0.00    +0.000 A 
ENDROOT
BRANCH   1   7
ATOM      7  C   UNL     1      43.814   5.345  10.496  0.00  0.00    +0.000 C 
BRANCH   7  10
ATOM      8  C   UNL     1      44.587   3.193   9.541  0.00  0.00    +0.000 C 
ATOM      9  O   UNL     1      43.858   2.540  10.288  0.00  0.00    +0.000 OA
ATOM     10  N   UNL     1      44.615   4.571   9.584  0.00  0.00    +0.000 N 
ATOM     11  H   UNL     1      45.195   5.055   8.909  0.00  0.00    +0.000 HD
BRANCH   8  16
ATOM     12  C   UNL     1      47.893   2.352   5.465  0.00  0.00    +0.000 C 
ATOM     13  C   UNL     1      47.022   2.168   6.661  0.00  0.00    +0.000 A 
ATOM     14  C   UNL     1      46.761   1.020   7.377  0.00  0.00    +0.000 A 
ATOM     15  C   UNL     1      45.869   1.259   8.467  0.00  0.00    +0.000 A 
ATOM     16  C   UNL     1      45.474   2.584   8.556  0.00  0.00    +0.000 A 
ATOM     17  S   UNL     1      46.193   3.514   7.304  0.00  0.00    +0.000 S 
ENDBRANCH   8  16
ENDBRANCH   7  10
ENDBRANCH   1   7
BRANCH   4  18
ATOM     18  C   UNL     1      47.137   8.769  13.890  0.00  0.00    +0.000 C 
BRANCH  18  19
ATOM     19  N   UNL     1      48.456   8.973  13.340  0.00  0.00    +0.000 N 
ATOM     20  C   UNL     1      48.730  10.023  12.498  0.00  0.00    +0.000 C 
ATOM     21  O   UNL     1      47.881  10.860  12.205  0.00  0.00    +0.000 OA
ATOM     22  H   UNL     1      49.094   8.184  13.373  0.00  0.00    +0.000 HD
BRANCH  20  23
ATOM     23  C   UNL     1      50.113  10.133  12.013  0.00  0.00    +0.000 A 
ATOM     24  C   UNL     1      50.744  11.370  12.000  0.00  0.00    +0.000 A 
ATOM     25  S   UNL     1      52.361  11.311  11.457  0.00  0.00    +0.000 S 
ATOM     26  C   UNL     1      52.259   9.639  11.166  0.00  0.00    +0.000 A 
ATOM     27  N   UNL     1      53.315   8.951  10.654  0.00  0.00    +0.000 NA
ATOM     28  C   UNL     1      53.089   7.697  10.452  0.00  0.00    +0.000 A 
ATOM     29  N   UNL     1      51.902   7.064  10.721  0.00  0.00    +0.000 N 
ATOM     30  C   UNL     1      50.820   7.710  11.272  0.00  0.00    +0.000 A 
ATOM     31  O   UNL     1      49.791   7.104  11.552  0.00  0.00    +0.000 OA
ATOM     32  C   UNL     1      51.016   9.128  11.501  0.00  0.00    +0.000 A 
ATOM     33  H   UNL     1      51.792   6.076  10.551  0.00  0.00    +0.000 HD
ENDBRANCH  20  23
ENDBRANCH  18  19
ENDBRANCH   4  18
TORSDOF 6
ENDMDL
MODEL 6
REMARK VINA RESULT:    -6.899      2.957      8.465
REMARK INTER + INTRA:         -10.262
REMARK INTER:                  -9.408
REMARK INTRA:                  -0.854
REMARK UNBOUND:                -0.943
REMARK  Name = 
REMARK  7 active torsions:
REMARK  status: ('A' for Active; 'I' for Inactive)
REMARK    1  A    between atoms: C_1  and  C_2
REMARK    2  A    between atoms: C_5  and  C_6
REMARK    3  A    between atoms: N_8  and  C_9
REMARK    4  A    between atoms: C_9  and  C_10
REMARK    5  A    between atoms: C_13  and  C_14
REMARK    6  A    between atoms: C_14  and  N_15
REMARK    7  A    between atoms: C_16  and  C_18
REMARK                            x       y       z     vdW  Elec       q    Type
REMARK                         _______ _______ _______ _____ _____    ______ ____
ROOT
ATOM      1  C   UNL     1      49.837   7.109  15.914  0.00  0.00    +0.000 A 
ATOM      2  C   UNL     1      50.586   7.909  15.042  0.00  0.00    +0.000 A 
ATOM      3  C   UNL     1      50.118   8.198  13.753  0.00  0.00    +0.000 A 
ATOM      4  C   UNL     1      48.877   7.715  13.315  0.00  0.00    +0.000 A 
ATOM      5  C   UNL     1      48.126   6.920  14.191  0.00  0.00    +0.000 A 
ATOM      6  C   UNL     1      48.593   6.631  15.480  0.00  0.00    +0.000 A 
ENDROOT
BRANCH   1   7
ATOM      7  C   UNL     1      50.344   6.789  17.300  0.00  0.00    +0.000 C 
BRANCH   7  10
ATOM      8  C   UNL     1      50.455   4.377  17.860  0.00  0.00    +0.000 C 
ATOM      9  O   UNL     1      49.319   4.382  18.336  0.00  0.00    +0.000 OA
ATOM     10  N   UNL     1      51.021   5.518  17.332  0.00  0.00    +0.000 N 
ATOM     11  H   UNL     1      51.938   5.440  16.908  0.00  0.00    +0.000 HD
BRANCH   8  16
ATOM     12  C   UNL     1      54.489   0.944  18.299  0.00  0.00    +0.000 C 
ATOM     13  C   UNL     1      53.165   1.564  18.010  0.00  0.00    +0.000 A 
ATOM     14  C   UNL     1      52.037   0.989  17.465  0.00  0.00    +0.000 A 
ATOM     15  C   UNL     1      50.962   1.924  17.349  0.00  0.00    +0.000 A 
ATOM     16  C   UNL     1      51.297   3.186  17.811  0.00  0.00    +0.000 A 
ATOM     17  S   UNL     1      52.919   3.214  18.372  0.00  0.00    +0.000 S 
ENDBRANCH   8  16
ENDBRANCH   7  10
ENDBRANCH   1   7
BRANCH   4  18
ATOM     18  C   UNL     1      48.372   8.011  11.924  0.00  0.00    +0.000 C 
BRANCH  18  19
ATOM     19  N   UNL     1      47.630   6.899  11.379  0.00  0.00    +0.000 N 
ATOM     20  C   UNL     1      46.257   6.891  11.357  0.00  0.00    +0.000 C 
ATOM     21  O   UNL     1      45.595   7.844  11.761  0.00  0.00    +0.000 OA
ATOM     22  H   UNL     1      48.134   6.024  11.262  0.00  0.00    +0.000 HD
BRANCH  20  23
ATOM     23  C   UNL     1      45.616   5.709  10.763  0.00  0.00    +0.000 A 
ATOM     24  C   UNL     1      45.722   5.478   9.397  0.00  0.00    +0.000 A 
ATOM     25  S   UNL     1      44.965   4.038   8.884  0.00  0.00    +0.000 S 
ATOM     26  C   UNL     1      44.418   3.700  10.458  0.00  0.00    +0.000 A 
ATOM     27  N   UNL     1      43.663   2.598  10.716  0.00  0.00    +0.000 NA
ATOM     28  C   UNL     1      43.289   2.482  11.946  0.00  0.00    +0.000 A 
ATOM     29  N   UNL     1      43.607   3.366  12.945  0.00  0.00    +0.000 N 
ATOM     30  C   UNL     1      44.398   4.473  12.740  0.00  0.00    +0.000 A 
ATOM     31  O   UNL     1      44.709   5.214  13.666  0.00  0.00    +0.000 OA
ATOM     32  C   UNL     1      44.828   4.660  11.368  0.00  0.00    +0.000 A 
ATOM     33  H   UNL     1      43.293   3.213  13.892  0.00  0.00    +0.000 HD
ENDBRANCH  20  23
ENDBRANCH  18  19
ENDBRANCH   4  18
TORSDOF 6
ENDMDL
MODEL 7
REMARK VINA RESULT:    -6.877      2.141      2.824
REMARK INTER + INTRA:         -10.232
REMARK INTER:                  -9.388
REMARK INTRA:                  -0.845
REMARK UNBOUND:                -0.943
REMARK  Name = 
REMARK  7 active torsions:
REMARK  status: ('A' for Active; 'I' for Inactive)
REMARK    1  A    between atoms: C_1  and  C_2
REMARK    2  A    between atoms: C_5  and  C_6
REMARK    3  A    between atoms: N_8  and  C_9
REMARK    4  A    between atoms: C_9  and  C_10
REMARK    5  A    between atoms: C_13  and  C_14
REMARK    6  A    between atoms: C_14  and  N_15
REMARK    7  A    between atoms: C_16  and  C_18
REMARK                            x       y       z     vdW  Elec       q    Type
REMARK                         _______ _______ _______ _____ _____    ______ ____
ROOT
ATOM      1  C   UNL     1      45.528   6.000  11.869  0.00  0.00    +0.000 A 
ATOM      2  C   UNL     1      45.773   7.373  11.729  0.00  0.00    +0.000 A 
ATOM      3  C   UNL     1      46.690   8.026  12.565  0.00  0.00    +0.000 A 
ATOM      4  C   UNL     1      47.401   7.316  13.543  0.00  0.00    +0.000 A 
ATOM      5  C   UNL     1      47.159   5.943  13.676  0.00  0.00    +0.000 A 
ATOM      6  C   UNL     1      46.244   5.289  12.841  0.00  0.00    +0.000 A 
ENDROOT
BRANCH   1   7
ATOM      7  C   UNL     1      44.534   5.297  10.975  0.00  0.00    +0.000 C 
BRANCH   7  10
ATOM      8  C   UNL     1      44.831   3.253   9.606  0.00  0.00    +0.000 C 
ATOM      9  O   UNL     1      43.897   2.678  10.167  0.00  0.00    +0.000 OA
ATOM     10  N   UNL     1      45.197   4.537   9.947  0.00  0.00    +0.000 N 
ATOM     11  H   UNL     1      45.938   4.976   9.414  0.00  0.00    +0.000 HD
BRANCH   8  16
ATOM     12  C   UNL     1      47.782   2.408   5.267  0.00  0.00    +0.000 C 
ATOM     13  C   UNL     1      47.007   2.224   6.527  0.00  0.00    +0.000 A 
ATOM     14  C   UNL     1      46.784   1.071   7.248  0.00  0.00    +0.000 A 
ATOM     15  C   UNL     1      45.987   1.311   8.409  0.00  0.00    +0.000 A 
ATOM     16  C   UNL     1      45.625   2.641   8.545  0.00  0.00    +0.000 A 
ATOM     17  S   UNL     1      46.258   3.575   7.251  0.00  0.00    +0.000 S 
ENDBRANCH   8  16
ENDBRANCH   7  10
ENDBRANCH   1   7
BRANCH   4  18
ATOM     18  C   UNL     1      48.379   8.014  14.455  0.00  0.00    +0.000 C 
BRANCH  18  19
ATOM     19  N   UNL     1      49.271   7.079  15.097  0.00  0.00    +0.000 N 
ATOM     20  C   UNL     1      49.517   7.128  16.446  0.00  0.00    +0.000 C 
ATOM     21  O   UNL     1      48.962   7.943  17.179  0.00  0.00    +0.000 OA
ATOM     22  H   UNL     1      49.908   6.565  14.494  0.00  0.00    +0.000 HD
BRANCH  20  23
ATOM     23  C   UNL     1      50.434   6.113  16.986  0.00  0.00    +0.000 A 
ATOM     24  C   UNL     1      49.942   5.105  17.805  0.00  0.00    +0.000 A 
ATOM     25  S   UNL     1      51.129   3.983  18.301  0.00  0.00    +0.000 S 
ATOM     26  C   UNL     1      52.354   4.836  17.485  0.00  0.00    +0.000 A 
ATOM     27  N   UNL     1      53.647   4.417  17.528  0.00  0.00    +0.000 NA
ATOM     28  C   UNL     1      54.476   5.176  16.894  0.00  0.00    +0.000 A 
ATOM     29  N   UNL     1      54.128   6.314  16.213  0.00  0.00    +0.000 N 
ATOM     30  C   UNL     1      52.829   6.755  16.110  0.00  0.00    +0.000 A 
ATOM     31  O   UNL     1      52.544   7.747  15.447  0.00  0.00    +0.000 OA
ATOM     32  C   UNL     1      51.859   5.948  16.824  0.00  0.00    +0.000 A 
ATOM     33  H   UNL     1      54.823   6.859  15.725  0.00  0.00    +0.000 HD
ENDBRANCH  20  23
ENDBRANCH  18  19
ENDBRANCH   4  18
TORSDOF 6
ENDMDL
MODEL 8
REMARK VINA RESULT:    -6.812      3.008      8.868
REMARK INTER + INTRA:         -10.145
REMARK INTER:                  -9.261
REMARK INTRA:                  -0.884
REMARK UNBOUND:                -0.943
REMARK  Name = 
REMARK  7 active torsions:
REMARK  status: ('A' for Active; 'I' for Inactive)
REMARK    1  A    between atoms: C_1  and  C_2
REMARK    2  A    between atoms: C_5  and  C_6
REMARK    3  A    between atoms: N_8  and  C_9
REMARK    4  A    between atoms: C_9  and  C_10
REMARK    5  A    between atoms: C_13  and  C_14
REMARK    6  A    between atoms: C_14  and  N_15
REMARK    7  A    between atoms: C_16  and  C_18
REMARK                            x       y       z     vdW  Elec       q    Type
REMARK                         _______ _______ _______ _____ _____    ______ ____
ROOT
ATOM      1  C   UNL     1      50.133   7.331  15.497  0.00  0.00    +0.000 A 
ATOM      2  C   UNL     1      49.011   6.502  15.366  0.00  0.00    +0.000 A 
ATOM      3  C   UNL     1      48.144   6.637  14.272  0.00  0.00    +0.000 A 
ATOM      4  C   UNL     1      48.394   7.587  13.272  0.00  0.00    +0.000 A 
ATOM      5  C   UNL     1      49.520   8.410  13.402  0.00  0.00    +0.000 A 
ATOM      6  C   UNL     1      50.387   8.276  14.494  0.00  0.00    +0.000 A 
ENDROOT
BRANCH   1   7
ATOM      7  C   UNL     1      51.063   7.193  16.680  0.00  0.00    +0.000 C 
BRANCH   7  10
ATOM      8  C   UNL     1      50.971   4.962  17.754  0.00  0.00    +0.000 C 
ATOM      9  O   UNL     1      50.047   5.298  18.495  0.00  0.00    +0.000 OA
ATOM     10  N   UNL     1      51.516   5.835  16.837  0.00  0.00    +0.000 N 
ATOM     11  H   UNL     1      52.238   5.485  16.219  0.00  0.00    +0.000 HD
BRANCH   8  16
ATOM     12  C   UNL     1      54.273   0.845  18.388  0.00  0.00    +0.000 C 
ATOM     13  C   UNL     1      53.090   1.692  18.064  0.00  0.00    +0.000 A 
ATOM     14  C   UNL     1      51.866   1.315  17.555  0.00  0.00    +0.000 A 
ATOM     15  C   UNL     1      50.990   2.431  17.386  0.00  0.00    +0.000 A 
ATOM     16  C   UNL     1      51.567   3.629  17.773  0.00  0.00    +0.000 A 
ATOM     17  S   UNL     1      53.171   3.375  18.331  0.00  0.00    +0.000 S 
ENDBRANCH   8  16
ENDBRANCH   7  10
ENDBRANCH   1   7
BRANCH   4  18
ATOM     18  C   UNL     1      47.458   7.747  12.099  0.00  0.00    +0.000 C 
BRANCH  18  19
ATOM     19  N   UNL     1      46.779   6.513  11.787  0.00  0.00    +0.000 N 
ATOM     20  C   UNL     1      45.409   6.423  11.794  0.00  0.00    +0.000 C 
ATOM     21  O   UNL     1      44.695   7.396  12.026  0.00  0.00    +0.000 OA
ATOM     22  H   UNL     1      47.332   5.661  11.826  0.00  0.00    +0.000 HD
BRANCH  20  23
ATOM     23  C   UNL     1      44.833   5.116  11.446  0.00  0.00    +0.000 A 
ATOM     24  C   UNL     1      44.064   4.430  12.377  0.00  0.00    +0.000 A 
ATOM     25  S   UNL     1      43.431   2.957  11.794  0.00  0.00    +0.000 S 
ATOM     26  C   UNL     1      44.208   3.155  10.293  0.00  0.00    +0.000 A 
ATOM     27  N   UNL     1      44.101   2.212   9.319  0.00  0.00    +0.000 NA
ATOM     28  C   UNL     1      44.768   2.474   8.246  0.00  0.00    +0.000 A 
ATOM     29  N   UNL     1      45.528   3.599   8.055  0.00  0.00    +0.000 N 
ATOM     30  C   UNL     1      45.636   4.596   8.995  0.00  0.00    +0.000 A 
ATOM     31  O   UNL     1      46.280   5.616   8.772  0.00  0.00    +0.000 OA
ATOM     32  C   UNL     1      44.921   4.341  10.231  0.00  0.00    +0.000 A 
ATOM     33  H   UNL     1      46.018   3.752   7.185  0.00  0.00    +0.000 HD
ENDBRANCH  20  23
ENDBRANCH  18  19
ENDBRANCH   4  18
TORSDOF 6
ENDMDL
MODEL 9
REMARK VINA RESULT:    -6.627      4.539      7.756
REMARK INTER + INTRA:          -9.895
REMARK INTER:                  -9.062
REMARK INTRA:                  -0.833
REMARK UNBOUND:                -0.943
REMARK  Name = 
REMARK  7 active torsions:
REMARK  status: ('A' for Active; 'I' for Inactive)
REMARK    1  A    between atoms: C_1  and  C_2
REMARK    2  A    between atoms: C_5  and  C_6
REMARK    3  A    between atoms: N_8  and  C_9
REMARK    4  A    between atoms: C_9  and  C_10
REMARK    5  A    between atoms: C_13  and  C_14
REMARK    6  A    between atoms: C_14  and  N_15
REMARK    7  A    between atoms: C_16  and  C_18
REMARK                            x       y       z     vdW  Elec       q    Type
REMARK                         _______ _______ _______ _____ _____    ______ ____
ROOT
ATOM      1  C   UNL     1      50.340   9.134  11.291  0.00  0.00    +0.000 A 
ATOM      2  C   UNL     1      49.937   7.812  11.526  0.00  0.00    +0.000 A 
ATOM      3  C   UNL     1      48.630   7.524  11.942  0.00  0.00    +0.000 A 
ATOM      4  C   UNL     1      47.688   8.549  12.108  0.00  0.00    +0.000 A 
ATOM      5  C   UNL     1      48.090   9.869  11.867  0.00  0.00    +0.000 A 
ATOM      6  C   UNL     1      49.397  10.158  11.451  0.00  0.00    +0.000 A 
ENDROOT
BRANCH   1   7
ATOM      7  C   UNL     1      51.751   9.447  10.852  0.00  0.00    +0.000 C 
BRANCH   7  10
ATOM      8  C   UNL     1      53.301   7.540  10.537  0.00  0.00    +0.000 C 
ATOM      9  O   UNL     1      53.769   7.665  11.670  0.00  0.00    +0.000 OA
ATOM     10  N   UNL     1      52.308   8.374  10.070  0.00  0.00    +0.000 N 
ATOM     11  H   UNL     1      51.927   8.189   9.149  0.00  0.00    +0.000 HD
BRANCH   8  16
ATOM     12  C   UNL     1      53.823   4.355   6.313  0.00  0.00    +0.000 C 
ATOM     13  C   UNL     1      54.010   5.020   7.634  0.00  0.00    +0.000 A 
ATOM     14  C   UNL     1      54.955   4.771   8.606  0.00  0.00    +0.000 A 
ATOM     15  C   UNL     1      54.802   5.631   9.736  0.00  0.00    +0.000 A 
ATOM     16  C   UNL     1      53.745   6.515   9.598  0.00  0.00    +0.000 A 
ATOM     17  S   UNL     1      52.953   6.279   8.093  0.00  0.00    +0.000 S 
ENDBRANCH   8  16
ENDBRANCH   7  10
ENDBRANCH   1   7
BRANCH   4  18
ATOM     18  C   UNL     1      46.282   8.248  12.569  0.00  0.00    +0.000 C 
BRANCH  18  19
ATOM     19  N   UNL     1      45.903   6.888  12.269  0.00  0.00    +0.000 N 
ATOM     20  C   UNL     1      44.728   6.595  11.622  0.00  0.00    +0.000 C 
ATOM     21  O   UNL     1      43.964   7.473  11.232  0.00  0.00    +0.000 OA
ATOM     22  H   UNL     1      46.387   6.154  12.778  0.00  0.00    +0.000 HD
BRANCH  20  23
ATOM     23  C   UNL     1      44.459   5.173  11.360  0.00  0.00    +0.000 A 
ATOM     24  C   UNL     1      43.728   4.428  12.277  0.00  0.00    +0.000 A 
ATOM     25  S   UNL     1      43.464   2.813  11.795  0.00  0.00    +0.000 S 
ATOM     26  C   UNL     1      44.364   3.034  10.369  0.00  0.00    +0.000 A 
ATOM     27  N   UNL     1      44.558   2.009   9.496  0.00  0.00    +0.000 NA
ATOM     28  C   UNL     1      45.287   2.307   8.474  0.00  0.00    +0.000 A 
ATOM     29  N   UNL     1      45.836   3.542   8.241  0.00  0.00    +0.000 N 
ATOM     30  C   UNL     1      45.637   4.618   9.075  0.00  0.00    +0.000 A 
ATOM     31  O   UNL     1      46.097   5.723   8.809  0.00  0.00    +0.000 OA
ATOM     32  C   UNL     1      44.840   4.330  10.251  0.00  0.00    +0.000 A 
ATOM     33  H   UNL     1      46.389   3.716   7.415  0.00  0.00    +0.000 HD
ENDBRANCH  20  23
ENDBRANCH  18  19
ENDBRANCH   4  18
TORSDOF 6
ENDMDL
