MODEL 1
REMARK VINA RESULT:    -7.754      0.000      0.000
REMARK INTER + INTRA:         -12.434
REMARK INTER:                 -11.607
REMARK INTRA:                  -0.826
REMARK UNBOUND:                -0.826
REMARK  Name = 
REMARK  10 active torsions:
REMARK  status: ('A' for Active; 'I' for Inactive)
REMARK    1  A    between atoms: C_1  and  O_2
REMARK    2  A    between atoms: O_2  and  C_3
REMARK    3  A    between atoms: C_5  and  C_6
REMARK    4  A    between atoms: C_6  and  O_7
REMARK    5  A    between atoms: O_7  and  C_8
REMARK    6  A    between atoms: C_8  and  C_9
REMARK    7  A    between atoms: C_12  and  C_13
REMARK    8  A    between atoms: C_13  and  N_14
REMARK    9  A    between atoms: C_13  and  C_15
REMARK   10  A    between atoms: C_15  and  C_16
REMARK                            x       y       z     vdW  Elec       q    Type
REMARK                         _______ _______ _______ _____ _____    ______ ____
ROOT
ATOM      1  C   UNL     1      46.574   4.663  13.740  0.00  0.00    +0.000 A 
ATOM      2  C   UNL     1      46.551   5.791  12.912  0.00  0.00    +0.000 A 
ATOM      3  C   UNL     1      45.960   5.737  11.648  0.00  0.00    +0.000 A 
ATOM      4  C   UNL     1      45.370   4.553  11.182  0.00  0.00    +0.000 A 
ATOM      5  C   UNL     1      45.406   3.424  12.022  0.00  0.00    +0.000 A 
ATOM      6  C   UNL     1      46.004   3.474  13.282  0.00  0.00    +0.000 A 
ENDROOT
BRANCH   1   7
ATOM      7  C   UNL     1      47.193   4.749  15.106  0.00  0.00    +0.000 C 
BRANCH   7   8
ATOM      8  O   UNL     1      47.657   3.449  15.461  0.00  0.00    +0.000 OA
BRANCH   8   9
ATOM      9  C   UNL     1      47.451   3.197  16.845  0.00  0.00    +0.000 C 
BRANCH   9  12
ATOM     10  C   UNL     1      49.737   5.195  19.123  0.00  0.00    +0.000 C 
ATOM     11  C   UNL     1      48.444   4.946  18.519  0.00  0.00    +0.000 C 
ATOM     12  C   UNL     1      48.556   3.795  17.638  0.00  0.00    +0.000 C 
ATOM     13  C   UNL     1      49.843   3.413  17.709  0.00  0.00    +0.000 A 
ATOM     14  C   UNL     1      50.518   2.289  17.053  0.00  0.00    +0.000 A 
ATOM     15  O   UNL     1      49.964   1.497  16.302  0.00  0.00    +0.000 OA
ATOM     16  N   UNL     1      51.843   2.197  17.385  0.00  0.00    +0.000 N 
ATOM     17  C   UNL     1      52.464   3.053  18.256  0.00  0.00    +0.000 A 
ATOM     18  N   UNL     1      51.912   4.050  18.866  0.00  0.00    +0.000 NA
ATOM     19  C   UNL     1      50.586   4.270  18.625  0.00  0.00    +0.000 A 
ATOM     20  H   UNL     1      52.349   1.434  16.961  0.00  0.00    +0.000 HD
BRANCH  10  22
ATOM     21  C   UNL     1      50.264   7.464  19.459  0.00  0.00    +0.000 C 
ATOM     22  O   UNL     1      49.849   6.219  20.006  0.00  0.00    +0.000 OA
ENDBRANCH  10  22
ENDBRANCH   9  12
ENDBRANCH   8   9
ENDBRANCH   7   8
ENDBRANCH   1   7
BRANCH   4  23
ATOM     23  C   UNL     1      44.679   4.433   9.829  0.00  0.00    +0.000 C 
BRANCH  23  24
ATOM     24  N   UNL     1      43.380   5.137   9.880  0.00  0.00    +0.000 NA
ATOM     25  H   UNL     1      42.959   4.951  10.790  0.00  0.00    +0.000 HD
ATOM     26  H   UNL     1      42.751   4.668   9.218  0.00  0.00    +0.000 HD
ENDBRANCH  23  24
BRANCH  23  27
ATOM     27  C   UNL     1      44.523   2.985   9.297  0.00  0.00    +0.000 C 
BRANCH  27  28
ATOM     28  C   UNL     1      45.640   2.587   8.390  0.00  0.00    +0.000 A 
ATOM     29  C   UNL     1      46.320   3.341   7.459  0.00  0.00    +0.000 A 
ATOM     30  N   UNL     1      47.194   2.473   6.864  0.00  0.00    +0.000 N 
ATOM     31  C   UNL     1      47.023   1.251   7.449  0.00  0.00    +0.000 A 
ATOM     32  N   UNL     1      46.091   1.286   8.373  0.00  0.00    +0.000 NA
ATOM     33  H   UNL     1      47.839   2.687   6.118  0.00  0.00    +0.000 HD
ENDBRANCH  27  28
ENDBRANCH  23  27
ENDBRANCH   4  23
TORSDOF 9
ENDMDL
MODEL 2
REMARK VINA RESULT:    -7.688      0.875      1.263
REMARK INTER + INTRA:         -12.335
REMARK INTER:                 -11.607
REMARK INTRA:                  -0.728
REMARK UNBOUND:                -0.826
REMARK  Name = 
REMARK  10 active torsions:
REMARK  status: ('A' for Active; 'I' for Inactive)
REMARK    1  A    between atoms: C_1  and  O_2
REMARK    2  A    between atoms: O_2  and  C_3
REMARK    3  A    between atoms: C_5  and  C_6
REMARK    4  A    between atoms: C_6  and  O_7
REMARK    5  A    between atoms: O_7  and  C_8
REMARK    6  A    between atoms: C_8  and  C_9
REMARK    7  A    between atoms: C_12  and  C_13
REMARK    8  A    between atoms: C_13  and  N_14
REMARK    9  A    between atoms: C_13  and  C_15
REMARK   10  A    between atoms: C_15  and  C_16
REMARK                            x       y       z     vdW  Elec       q    Type
REMARK                         _______ _______ _______ _____ _____    ______ ____
ROOT
ATOM      1  C   UNL     1      46.818   5.257  13.603  0.00  0.00    +0.000 A 
ATOM      2  C   UNL     1      46.199   4.017  13.413  0.00  0.00    +0.000 A 
ATOM      3  C   UNL     1      45.505   3.738  12.233  0.00  0.00    +0.000 A 
ATOM      4  C   UNL     1      45.418   4.692  11.210  0.00  0.00    +0.000 A 
ATOM      5  C   UNL     1      46.038   5.939  11.416  0.00  0.00    +0.000 A 
ATOM      6  C   UNL     1      46.724   6.222  12.598  0.00  0.00    +0.000 A 
ENDROOT
BRANCH   1   7
ATOM      7  C   UNL     1      47.579   5.528  14.868  0.00  0.00    +0.000 C 
BRANCH   7   8
ATOM      8  O   UNL     1      47.988   4.276  15.413  0.00  0.00    +0.000 OA
BRANCH   8   9
ATOM      9  C   UNL     1      47.854   4.271  16.829  0.00  0.00    +0.000 C 
BRANCH   9  12
ATOM     10  C   UNL     1      51.060   5.024  18.715  0.00  0.00    +0.000 C 
ATOM     11  C   UNL     1      49.737   5.393  18.258  0.00  0.00    +0.000 C 
ATOM     12  C   UNL     1      49.197   4.302  17.463  0.00  0.00    +0.000 C 
ATOM     13  C   UNL     1      50.160   3.365  17.441  0.00  0.00    +0.000 A 
ATOM     14  C   UNL     1      50.156   2.040  16.813  0.00  0.00    +0.000 A 
ATOM     15  O   UNL     1      49.213   1.580  16.182  0.00  0.00    +0.000 OA
ATOM     16  N   UNL     1      51.317   1.348  17.024  0.00  0.00    +0.000 N 
ATOM     17  C   UNL     1      52.364   1.835  17.761  0.00  0.00    +0.000 A 
ATOM     18  N   UNL     1      52.413   2.989  18.342  0.00  0.00    +0.000 NA
ATOM     19  C   UNL     1      51.320   3.797  18.212  0.00  0.00    +0.000 A 
ATOM     20  H   UNL     1      51.359   0.426  16.614  0.00  0.00    +0.000 HD
BRANCH  10  22
ATOM     21  C   UNL     1      52.177   7.090  18.863  0.00  0.00    +0.000 C 
ATOM     22  O   UNL     1      51.738   5.897  19.501  0.00  0.00    +0.000 OA
ENDBRANCH  10  22
ENDBRANCH   9  12
ENDBRANCH   8   9
ENDBRANCH   7   8
ENDBRANCH   1   7
BRANCH   4  23
ATOM     23  C   UNL     1      44.706   4.442   9.886  0.00  0.00    +0.000 C 
BRANCH  23  24
ATOM     24  N   UNL     1      43.379   5.093   9.915  0.00  0.00    +0.000 NA
ATOM     25  H   UNL     1      43.502   6.039  10.274  0.00  0.00    +0.000 HD
ATOM     26  H   UNL     1      42.824   4.624  10.640  0.00  0.00    +0.000 HD
ENDBRANCH  23  24
BRANCH  23  27
ATOM     27  C   UNL     1      44.603   2.953   9.465  0.00  0.00    +0.000 C 
BRANCH  27  28
ATOM     28  C   UNL     1      45.660   2.562   8.487  0.00  0.00    +0.000 A 
ATOM     29  C   UNL     1      46.312   3.334   7.551  0.00  0.00    +0.000 A 
ATOM     30  N   UNL     1      47.129   2.467   6.879  0.00  0.00    +0.000 N 
ATOM     31  C   UNL     1      46.954   1.228   7.426  0.00  0.00    +0.000 A 
ATOM     32  N   UNL     1      46.073   1.251   8.398  0.00  0.00    +0.000 NA
ATOM     33  H   UNL     1      47.741   2.692   6.108  0.00  0.00    +0.000 HD
ENDBRANCH  27  28
ENDBRANCH  23  27
ENDBRANCH   4  23
TORSDOF 9
ENDMDL
MODEL 3
REMARK VINA RESULT:    -7.356      1.462      2.740
REMARK INTER + INTRA:         -11.837
REMARK INTER:                 -10.911
REMARK INTRA:                  -0.925
REMARK UNBOUND:                -0.826
REMARK  Name = 
REMARK  10 active torsions:
REMARK  status: ('A' for Active; 'I' for Inactive)
REMARK    1  A    between atoms: C_1  and  O_2
REMARK    2  A    between atoms: O_2  and  C_3
REMARK    3  A    between atoms: C_5  and  C_6
REMARK    4  A    between atoms: C_6  and  O_7
REMARK    5  A    between atoms: O_7  and  C_8
REMARK    6  A    between atoms: C_8  and  C_9
REMARK    7  A    between atoms: C_12  and  C_13
REMARK    8  A    between atoms: C_13  and  N_14
REMARK    9  A    between atoms: C_13  and  C_15
REMARK   10  A    between atoms: C_15  and  C_16
REMARK                            x       y       z     vdW  Elec       q    Type
REMARK                         _______ _______ _______ _____ _____    ______ ____
ROOT
ATOM      1  C   UNL     1      46.535   4.519  13.797  0.00  0.00    +0.000 A 
ATOM      2  C   UNL     1      45.983   3.332  13.302  0.00  0.00    +0.000 A 
ATOM      3  C   UNL     1      45.357   3.302  12.054  0.00  0.00    +0.000 A 
ATOM      4  C   UNL     1      45.275   4.457  11.265  0.00  0.00    +0.000 A 
ATOM      5  C   UNL     1      45.829   5.646  11.776  0.00  0.00    +0.000 A 
ATOM      6  C   UNL     1      46.445   5.680  13.028  0.00  0.00    +0.000 A 
ENDROOT
BRANCH   1   7
ATOM      7  C   UNL     1      47.224   4.525  15.131  0.00  0.00    +0.000 C 
BRANCH   7   8
ATOM      8  O   UNL     1      47.728   3.213  15.372  0.00  0.00    +0.000 OA
BRANCH   8   9
ATOM      9  C   UNL     1      47.695   2.904  16.760  0.00  0.00    +0.000 C 
BRANCH   9  12
ATOM     10  C   UNL     1      51.134   3.860  18.052  0.00  0.00    +0.000 C 
ATOM     11  C   UNL     1      50.265   3.039  17.234  0.00  0.00    +0.000 C 
ATOM     12  C   UNL     1      48.892   3.473  17.432  0.00  0.00    +0.000 C 
ATOM     13  C   UNL     1      48.958   4.471  18.331  0.00  0.00    +0.000 A 
ATOM     14  C   UNL     1      47.881   5.300  18.881  0.00  0.00    +0.000 A 
ATOM     15  O   UNL     1      46.701   5.186  18.579  0.00  0.00    +0.000 OA
ATOM     16  N   UNL     1      48.335   6.244  19.763  0.00  0.00    +0.000 N 
ATOM     17  C   UNL     1      49.658   6.408  20.079  0.00  0.00    +0.000 A 
ATOM     18  N   UNL     1      50.643   5.712  19.615  0.00  0.00    +0.000 NA
ATOM     19  C   UNL     1      50.339   4.723  18.723  0.00  0.00    +0.000 A 
ATOM     20  H   UNL     1      47.630   6.843  20.165  0.00  0.00    +0.000 HD
BRANCH  10  22
ATOM     21  C   UNL     1      52.894   2.327  18.352  0.00  0.00    +0.000 C 
ATOM     22  O   UNL     1      52.471   3.637  17.998  0.00  0.00    +0.000 OA
ENDBRANCH  10  22
ENDBRANCH   9  12
ENDBRANCH   8   9
ENDBRANCH   7   8
ENDBRANCH   1   7
BRANCH   4  23
ATOM     23  C   UNL     1      44.638   4.488   9.880  0.00  0.00    +0.000 C 
BRANCH  23  24
ATOM     24  N   UNL     1      43.344   5.198   9.955  0.00  0.00    +0.000 NA
ATOM     25  H   UNL     1      43.449   5.974  10.607  0.00  0.00    +0.000 HD
ATOM     26  H   UNL     1      42.677   4.572  10.421  0.00  0.00    +0.000 HD
ENDBRANCH  23  24
BRANCH  23  27
ATOM     27  C   UNL     1      44.491   3.104   9.194  0.00  0.00    +0.000 C 
BRANCH  27  28
ATOM     28  C   UNL     1      45.635   2.794   8.287  0.00  0.00    +0.000 A 
ATOM     29  C   UNL     1      46.292   1.600   8.088  0.00  0.00    +0.000 A 
ATOM     30  N   UNL     1      47.298   1.888   7.206  0.00  0.00    +0.000 N 
ATOM     31  C   UNL     1      47.211   3.216   6.902  0.00  0.00    +0.000 A 
ATOM     32  N   UNL     1      46.219   3.792   7.539  0.00  0.00    +0.000 NA
ATOM     33  H   UNL     1      47.991   1.244   6.853  0.00  0.00    +0.000 HD
ENDBRANCH  27  28
ENDBRANCH  23  27
ENDBRANCH   4  23
TORSDOF 9
ENDMDL
MODEL 4
REMARK VINA RESULT:    -7.275      2.330      3.096
REMARK INTER + INTRA:         -11.716
REMARK INTER:                 -10.805
REMARK INTRA:                  -0.911
REMARK UNBOUND:                -0.826
REMARK  Name = 
REMARK  10 active torsions:
REMARK  status: ('A' for Active; 'I' for Inactive)
REMARK    1  A    between atoms: C_1  and  O_2
REMARK    2  A    between atoms: O_2  and  C_3
REMARK    3  A    between atoms: C_5  and  C_6
REMARK    4  A    between atoms: C_6  and  O_7
REMARK    5  A    between atoms: O_7  and  C_8
REMARK    6  A    between atoms: C_8  and  C_9
REMARK    7  A    between atoms: C_12  and  C_13
REMARK    8  A    between atoms: C_13  and  N_14
REMARK    9  A    between atoms: C_13  and  C_15
REMARK   10  A    between atoms: C_15  and  C_16
REMARK                            x       y       z     vdW  Elec       q    Type
REMARK                         _______ _______ _______ _____ _____    ______ ____
ROOT
ATOM      1  C   UNL     1      45.452   5.543  11.859  0.00  0.00    +0.000 A 
ATOM      2  C   UNL     1      45.653   5.835  10.505  0.00  0.00    +0.000 A 
ATOM      3  C   UNL     1      45.478   4.851   9.529  0.00  0.00    +0.000 A 
ATOM      4  C   UNL     1      45.091   3.552   9.883  0.00  0.00    +0.000 A 
ATOM      5  C   UNL     1      44.899   3.268  11.249  0.00  0.00    +0.000 A 
ATOM      6  C   UNL     1      45.082   4.248  12.226  0.00  0.00    +0.000 A 
ENDROOT
BRANCH   1   7
ATOM      7  C   UNL     1      45.622   6.621  12.891  0.00  0.00    +0.000 C 
BRANCH   7   8
ATOM      8  O   UNL     1      46.975   7.068  12.842  0.00  0.00    +0.000 OA
BRANCH   8   9
ATOM      9  C   UNL     1      47.866   6.028  13.226  0.00  0.00    +0.000 C 
BRANCH   9  12
ATOM     10  C   UNL     1      48.690   6.950  16.815  0.00  0.00    +0.000 C 
ATOM     11  C   UNL     1      48.571   7.284  15.411  0.00  0.00    +0.000 C 
ATOM     12  C   UNL     1      48.132   6.103  14.686  0.00  0.00    +0.000 C 
ATOM     13  C   UNL     1      48.025   5.134  15.611  0.00  0.00    +0.000 A 
ATOM     14  C   UNL     1      47.591   3.742  15.456  0.00  0.00    +0.000 A 
ATOM     15  O   UNL     1      47.248   3.242  14.393  0.00  0.00    +0.000 OA
ATOM     16  N   UNL     1      47.586   3.052  16.638  0.00  0.00    +0.000 N 
ATOM     17  C   UNL     1      47.928   3.611  17.841  0.00  0.00    +0.000 A 
ATOM     18  N   UNL     1      48.306   4.832  18.032  0.00  0.00    +0.000 NA
ATOM     19  C   UNL     1      48.366   5.643  16.935  0.00  0.00    +0.000 A 
ATOM     20  H   UNL     1      47.289   2.089  16.582  0.00  0.00    +0.000 HD
BRANCH  10  22
ATOM     21  C   UNL     1      48.201   9.049  17.758  0.00  0.00    +0.000 C 
ATOM     22  O   UNL     1      49.066   7.924  17.680  0.00  0.00    +0.000 OA
ENDBRANCH  10  22
ENDBRANCH   9  12
ENDBRANCH   8   9
ENDBRANCH   7   8
ENDBRANCH   1   7
BRANCH   4  23
ATOM     23  C   UNL     1      44.849   2.440   8.868  0.00  0.00    +0.000 C 
BRANCH  23  24
ATOM     24  N   UNL     1      43.778   1.551   9.364  0.00  0.00    +0.000 NA
ATOM     25  H   UNL     1      43.754   0.725   8.766  0.00  0.00    +0.000 HD
ATOM     26  H   UNL     1      42.882   2.016   9.177  0.00  0.00    +0.000 HD
ENDBRANCH  23  24
BRANCH  23  27
ATOM     27  C   UNL     1      46.113   1.638   8.459  0.00  0.00    +0.000 C 
BRANCH  27  28
ATOM     28  C   UNL     1      46.743   2.165   7.213  0.00  0.00    +0.000 A 
ATOM     29  C   UNL     1      46.354   3.218   6.415  0.00  0.00    +0.000 A 
ATOM     30  N   UNL     1      47.240   3.224   5.373  0.00  0.00    +0.000 N 
ATOM     31  C   UNL     1      48.123   2.203   5.577  0.00  0.00    +0.000 A 
ATOM     32  N   UNL     1      47.849   1.543   6.678  0.00  0.00    +0.000 NA
ATOM     33  H   UNL     1      47.239   3.857   4.586  0.00  0.00    +0.000 HD
ENDBRANCH  27  28
ENDBRANCH  23  27
ENDBRANCH   4  23
TORSDOF 9
ENDMDL
MODEL 5
REMARK VINA RESULT:    -7.215      2.011      2.641
REMARK INTER + INTRA:         -11.626
REMARK INTER:                 -10.731
REMARK INTRA:                  -0.896
REMARK UNBOUND:                -0.826
REMARK  Name = 
REMARK  10 active torsions:
REMARK  status: ('A' for Active; 'I' for Inactive)
REMARK    1  A    between atoms: C_1  and  O_2
REMARK    2  A    between atoms: O_2  and  C_3
REMARK    3  A    between atoms: C_5  and  C_6
REMARK    4  A    between atoms: C_6  and  O_7
REMARK    5  A    between atoms: O_7  and  C_8
REMARK    6  A    between atoms: C_8  and  C_9
REMARK    7  A    between atoms: C_12  and  C_13
REMARK    8  A    between atoms: C_13  and  N_14
REMARK    9  A    between atoms: C_13  and  C_15
REMARK   10  A    between atoms: C_15  and  C_16
REMARK                            x       y       z     vdW  Elec       q    Type
REMARK                         _______ _______ _______ _____ _____    ______ ____
ROOT
ATOM      1  C   UNL     1      46.977   6.052  12.950  0.00  0.00    +0.000 A 
ATOM      2  C   UNL     1      46.502   4.821  13.418  0.00  0.00    +0.000 A 
ATOM      3  C   UNL     1      45.554   4.099  12.690  0.00  0.00    +0.000 A 
ATOM      4  C   UNL     1      45.062   4.586  11.471  0.00  0.00    +0.000 A 
ATOM      5  C   UNL     1      45.543   5.828  11.015  0.00  0.00    +0.000 A 
ATOM      6  C   UNL     1      46.483   6.556  11.746  0.00  0.00    +0.000 A 
ENDROOT
BRANCH   1   7
ATOM      7  C   UNL     1      48.014   6.802  13.735  0.00  0.00    +0.000 C 
BRANCH   7   8
ATOM      8  O   UNL     1      48.366   6.010  14.868  0.00  0.00    +0.000 OA
BRANCH   8   9
ATOM      9  C   UNL     1      49.358   6.660  15.653  0.00  0.00    +0.000 C 
BRANCH   9  12
ATOM     10  C   UNL     1      47.957   7.633  19.043  0.00  0.00    +0.000 C 
ATOM     11  C   UNL     1      48.283   7.940  17.666  0.00  0.00    +0.000 C 
ATOM     12  C   UNL     1      48.898   6.770  17.061  0.00  0.00    +0.000 C 
ATOM     13  C   UNL     1      48.948   5.847  18.037  0.00  0.00    +0.000 A 
ATOM     14  C   UNL     1      49.440   4.466  17.988  0.00  0.00    +0.000 A 
ATOM     15  O   UNL     1      49.905   3.936  16.987  0.00  0.00    +0.000 OA
ATOM     16  N   UNL     1      49.308   3.812  19.183  0.00  0.00    +0.000 N 
ATOM     17  C   UNL     1      48.753   4.382  20.298  0.00  0.00    +0.000 A 
ATOM     18  N   UNL     1      48.296   5.587  20.389  0.00  0.00    +0.000 NA
ATOM     19  C   UNL     1      48.368   6.366  19.270  0.00  0.00    +0.000 A 
ATOM     20  H   UNL     1      49.629   2.856  19.197  0.00  0.00    +0.000 HD
BRANCH  10  22
ATOM     21  C   UNL     1      47.339   9.896  19.233  0.00  0.00    +0.000 C 
ATOM     22  O   UNL     1      47.347   8.587  19.790  0.00  0.00    +0.000 OA
ENDBRANCH  10  22
ENDBRANCH   9  12
ENDBRANCH   8   9
ENDBRANCH   7   8
ENDBRANCH   1   7
BRANCH   4  23
ATOM     23  C   UNL     1      44.054   3.834  10.610  0.00  0.00    +0.000 C 
BRANCH  23  24
ATOM     24  N   UNL     1      42.778   3.712  11.347  0.00  0.00    +0.000 NA
ATOM     25  H   UNL     1      42.928   3.075  12.129  0.00  0.00    +0.000 HD
ATOM     26  H   UNL     1      42.121   3.207  10.741  0.00  0.00    +0.000 HD
ENDBRANCH  23  24
BRANCH  23  27
ATOM     27  C   UNL     1      44.538   2.460  10.078  0.00  0.00    +0.000 C 
BRANCH  27  28
ATOM     28  C   UNL     1      45.382   2.589   8.854  0.00  0.00    +0.000 A 
ATOM     29  C   UNL     1      45.492   3.645   7.975  0.00  0.00    +0.000 A 
ATOM     30  N   UNL     1      46.348   3.212   7.000  0.00  0.00    +0.000 N 
ATOM     31  C   UNL     1      46.726   1.939   7.320  0.00  0.00    +0.000 A 
ATOM     32  N   UNL     1      46.160   1.534   8.432  0.00  0.00    +0.000 NA
ATOM     33  H   UNL     1      46.638   3.728   6.183  0.00  0.00    +0.000 HD
ENDBRANCH  27  28
ENDBRANCH  23  27
ENDBRANCH   4  23
TORSDOF 9
ENDMDL
MODEL 6
REMARK VINA RESULT:    -6.880      3.019      4.369
REMARK INTER + INTRA:         -11.125
REMARK INTER:                  -9.409
REMARK INTRA:                  -1.716
REMARK UNBOUND:                -0.826
REMARK  Name = 
REMARK  10 active torsions:
REMARK  status: ('A' for Active; 'I' for Inactive)
REMARK    1  A    between atoms: C_1  and  O_2
REMARK    2  A    between atoms: O_2  and  C_3
REMARK    3  A    between atoms: C_5  and  C_6
REMARK    4  A    between atoms: C_6  and  O_7
REMARK    5  A    between atoms: O_7  and  C_8
REMARK    6  A    between atoms: C_8  and  C_9
REMARK    7  A    between atoms: C_12  and  C_13
REMARK    8  A    between atoms: C_13  and  N_14
REMARK    9  A    between atoms: C_13  and  C_15
REMARK   10  A    between atoms: C_15  and  C_16
REMARK                            x       y       z     vdW  Elec       q    Type
REMARK                         _______ _______ _______ _____ _____    ______ ____
ROOT
ATOM      1  C   UNL     1      47.439   7.069  13.013  0.00  0.00    +0.000 A 
ATOM      2  C   UNL     1      47.344   5.717  13.362  0.00  0.00    +0.000 A 
ATOM      3  C   UNL     1      46.123   5.043  13.285  0.00  0.00    +0.000 A 
ATOM      4  C   UNL     1      44.966   5.704  12.849  0.00  0.00    +0.000 A 
ATOM      5  C   UNL     1      45.073   7.065  12.507  0.00  0.00    +0.000 A 
ATOM      6  C   UNL     1      46.290   7.742  12.593  0.00  0.00    +0.000 A 
ENDROOT
BRANCH   1   7
ATOM      7  C   UNL     1      48.765   7.769  13.081  0.00  0.00    +0.000 C 
BRANCH   7   8
ATOM      8  O   UNL     1      49.676   6.920  13.775  0.00  0.00    +0.000 OA
BRANCH   8   9
ATOM      9  C   UNL     1      50.267   7.601  14.875  0.00  0.00    +0.000 C 
BRANCH   9  12
ATOM     10  C   UNL     1      49.223   5.702  17.991  0.00  0.00    +0.000 C 
ATOM     11  C   UNL     1      49.950   5.795  16.742  0.00  0.00    +0.000 C 
ATOM     12  C   UNL     1      49.692   7.097  16.149  0.00  0.00    +0.000 C 
ATOM     13  C   UNL     1      48.846   7.713  16.993  0.00  0.00    +0.000 A 
ATOM     14  C   UNL     1      48.273   9.061  16.916  0.00  0.00    +0.000 A 
ATOM     15  O   UNL     1      48.500   9.856  16.014  0.00  0.00    +0.000 OA
ATOM     16  N   UNL     1      47.464   9.355  17.981  0.00  0.00    +0.000 N 
ATOM     17  C   UNL     1      47.233   8.489  19.017  0.00  0.00    +0.000 A 
ATOM     18  N   UNL     1      47.722   7.298  19.135  0.00  0.00    +0.000 NA
ATOM     19  C   UNL     1      48.548   6.863  18.139  0.00  0.00    +0.000 A 
ATOM     20  H   UNL     1      47.049  10.275  17.975  0.00  0.00    +0.000 HD
BRANCH  10  22
ATOM     21  C   UNL     1      48.551   3.468  18.301  0.00  0.00    +0.000 C 
ATOM     22  O   UNL     1      49.346   4.568  18.726  0.00  0.00    +0.000 OA
ENDBRANCH  10  22
ENDBRANCH   9  12
ENDBRANCH   8   9
ENDBRANCH   7   8
ENDBRANCH   1   7
BRANCH   4  23
ATOM     23  C   UNL     1      43.611   5.022  12.708  0.00  0.00    +0.000 C 
BRANCH  23  24
ATOM     24  N   UNL     1      43.680   3.671  13.303  0.00  0.00    +0.000 NA
ATOM     25  H   UNL     1      43.565   3.766  14.312  0.00  0.00    +0.000 HD
ATOM     26  H   UNL     1      44.645   3.337  13.196  0.00  0.00    +0.000 HD
ENDBRANCH  23  24
BRANCH  23  27
ATOM     27  C   UNL     1      43.042   4.981  11.266  0.00  0.00    +0.000 C 
BRANCH  27  28
ATOM     28  C   UNL     1      43.866   4.138  10.351  0.00  0.00    +0.000 A 
ATOM     29  C   UNL     1      44.696   4.520   9.321  0.00  0.00    +0.000 A 
ATOM     30  N   UNL     1      45.150   3.351   8.774  0.00  0.00    +0.000 N 
ATOM     31  C   UNL     1      44.598   2.323   9.483  0.00  0.00    +0.000 A 
ATOM     32  N   UNL     1      43.817   2.764  10.441  0.00  0.00    +0.000 NA
ATOM     33  H   UNL     1      45.768   3.258   7.981  0.00  0.00    +0.000 HD
ENDBRANCH  27  28
ENDBRANCH  23  27
ENDBRANCH   4  23
TORSDOF 9
ENDMDL
MODEL 7
REMARK VINA RESULT:    -6.674      2.547      4.088
REMARK INTER + INTRA:         -10.816
REMARK INTER:                 -10.230
REMARK INTRA:                  -0.587
REMARK UNBOUND:                -0.826
REMARK  Name = 
REMARK  10 active torsions:
REMARK  status: ('A' for Active; 'I' for Inactive)
REMARK    1  A    between atoms: C_1  and  O_2
REMARK    2  A    between atoms: O_2  and  C_3
REMARK    3  A    between atoms: C_5  and  C_6
REMARK    4  A    between atoms: C_6  and  O_7
REMARK    5  A    between atoms: O_7  and  C_8
REMARK    6  A    between atoms: C_8  and  C_9
REMARK    7  A    between atoms: C_12  and  C_13
REMARK    8  A    between atoms: C_13  and  N_14
REMARK    9  A    between atoms: C_13  and  C_15
REMARK   10  A    between atoms: C_15  and  C_16
REMARK                            x       y       z     vdW  Elec       q    Type
REMARK                         _______ _______ _______ _____ _____    ______ ____
ROOT
ATOM      1  C   UNL     1      44.690   6.031  11.021  0.00  0.00    +0.000 A 
ATOM      2  C   UNL     1      45.599   5.883   9.968  0.00  0.00    +0.000 A 
ATOM      3  C   UNL     1      45.651   4.699   9.230  0.00  0.00    +0.000 A 
ATOM      4  C   UNL     1      44.788   3.634   9.522  0.00  0.00    +0.000 A 
ATOM      5  C   UNL     1      43.882   3.792  10.588  0.00  0.00    +0.000 A 
ATOM      6  C   UNL     1      43.836   4.972  11.332  0.00  0.00    +0.000 A 
ENDROOT
BRANCH   1   7
ATOM      7  C   UNL     1      44.634   7.322  11.787  0.00  0.00    +0.000 C 
BRANCH   7   8
ATOM      8  O   UNL     1      45.279   7.117  13.042  0.00  0.00    +0.000 OA
BRANCH   8   9
ATOM      9  C   UNL     1      46.689   7.030  12.879  0.00  0.00    +0.000 C 
BRANCH   9  12
ATOM     10  C   UNL     1      47.629   4.425  15.476  0.00  0.00    +0.000 C 
ATOM     11  C   UNL     1      46.767   4.917  14.421  0.00  0.00    +0.000 C 
ATOM     12  C   UNL     1      47.273   6.201  13.966  0.00  0.00    +0.000 C 
ATOM     13  C   UNL     1      48.351   6.451  14.728  0.00  0.00    +0.000 A 
ATOM     14  C   UNL     1      49.274   7.591  14.690  0.00  0.00    +0.000 A 
ATOM     15  O   UNL     1      49.178   8.529  13.909  0.00  0.00    +0.000 OA
ATOM     16  N   UNL     1      50.282   7.489  15.611  0.00  0.00    +0.000 N 
ATOM     17  C   UNL     1      50.423   6.425  16.462  0.00  0.00    +0.000 A 
ATOM     18  N   UNL     1      49.645   5.395  16.527  0.00  0.00    +0.000 NA
ATOM     19  C   UNL     1      48.586   5.361  15.667  0.00  0.00    +0.000 A 
ATOM     20  H   UNL     1      50.946   8.249  15.619  0.00  0.00    +0.000 HD
BRANCH  10  22
ATOM     21  C   UNL     1      47.107   3.222  17.430  0.00  0.00    +0.000 C 
ATOM     22  O   UNL     1      47.349   3.219  16.028  0.00  0.00    +0.000 OA
ENDBRANCH  10  22
ENDBRANCH   9  12
ENDBRANCH   8   9
ENDBRANCH   7   8
ENDBRANCH   1   7
BRANCH   4  23
ATOM     23  C   UNL     1      44.767   2.328   8.736  0.00  0.00    +0.000 C 
BRANCH  23  24
ATOM     24  N   UNL     1      43.845   1.378   9.394  0.00  0.00    +0.000 NA
ATOM     25  H   UNL     1      42.929   1.478   8.958  0.00  0.00    +0.000 HD
ATOM     26  H   UNL     1      43.698   1.708  10.355  0.00  0.00    +0.000 HD
ENDBRANCH  23  24
BRANCH  23  27
ATOM     27  C   UNL     1      46.158   1.691   8.484  0.00  0.00    +0.000 C 
BRANCH  27  28
ATOM     28  C   UNL     1      46.777   2.159   7.209  0.00  0.00    +0.000 A 
ATOM     29  C   UNL     1      46.370   3.164   6.358  0.00  0.00    +0.000 A 
ATOM     30  N   UNL     1      47.253   3.127   5.314  0.00  0.00    +0.000 N 
ATOM     31  C   UNL     1      48.150   2.129   5.567  0.00  0.00    +0.000 A 
ATOM     32  N   UNL     1      47.889   1.524   6.702  0.00  0.00    +0.000 NA
ATOM     33  H   UNL     1      47.240   3.717   4.494  0.00  0.00    +0.000 HD
ENDBRANCH  27  28
ENDBRANCH  23  27
ENDBRANCH   4  23
TORSDOF 9
ENDMDL
MODEL 8
REMARK VINA RESULT:    -6.553      2.530      2.855
REMARK INTER + INTRA:         -10.635
REMARK INTER:                  -9.828
REMARK INTRA:                  -0.807
REMARK UNBOUND:                -0.826
REMARK  Name = 
REMARK  10 active torsions:
REMARK  status: ('A' for Active; 'I' for Inactive)
REMARK    1  A    between atoms: C_1  and  O_2
REMARK    2  A    between atoms: O_2  and  C_3
REMARK    3  A    between atoms: C_5  and  C_6
REMARK    4  A    between atoms: C_6  and  O_7
REMARK    5  A    between atoms: O_7  and  C_8
REMARK    6  A    between atoms: C_8  and  C_9
REMARK    7  A    between atoms: C_12  and  C_13
REMARK    8  A    between atoms: C_13  and  N_14
REMARK    9  A    between atoms: C_13  and  C_15
REMARK   10  A    between atoms: C_15  and  C_16
REMARK                            x       y       z     vdW  Elec       q    Type
REMARK                         _______ _______ _______ _____ _____    ______ ____
ROOT
ATOM      1  C   UNL     1      46.616   4.711  13.767  0.00  0.00    +0.000 A 
ATOM      2  C   UNL     1      46.140   3.471  13.327  0.00  0.00    +0.000 A 
ATOM      3  C   UNL     1      45.493   3.349  12.096  0.00  0.00    +0.000 A 
ATOM      4  C   UNL     1      45.312   4.466  11.268  0.00  0.00    +0.000 A 
ATOM      5  C   UNL     1      45.788   5.710  11.724  0.00  0.00    +0.000 A 
ATOM      6  C   UNL     1      46.427   5.834  12.959  0.00  0.00    +0.000 A 
ENDROOT
BRANCH   1   7
ATOM      7  C   UNL     1      47.330   4.816  15.083  0.00  0.00    +0.000 C 
BRANCH   7   8
ATOM      8  O   UNL     1      48.277   5.877  14.987  0.00  0.00    +0.000 OA
BRANCH   8   9
ATOM      9  C   UNL     1      48.775   6.231  16.271  0.00  0.00    +0.000 C 
BRANCH   9  12
ATOM     10  C   UNL     1      52.309   7.488  15.691  0.00  0.00    +0.000 C 
ATOM     11  C   UNL     1      50.877   7.590  15.506  0.00  0.00    +0.000 C 
ATOM     12  C   UNL     1      50.237   6.481  16.195  0.00  0.00    +0.000 C 
ATOM     13  C   UNL     1      51.242   5.765  16.728  0.00  0.00    +0.000 A 
ATOM     14  C   UNL     1      51.186   4.555  17.556  0.00  0.00    +0.000 A 
ATOM     15  O   UNL     1      50.149   3.999  17.893  0.00  0.00    +0.000 OA
ATOM     16  N   UNL     1      52.424   4.116  17.940  0.00  0.00    +0.000 N 
ATOM     17  C   UNL     1      53.590   4.753  17.604  0.00  0.00    +0.000 A 
ATOM     18  N   UNL     1      53.691   5.824  16.887  0.00  0.00    +0.000 NA
ATOM     19  C   UNL     1      52.531   6.376  16.425  0.00  0.00    +0.000 A 
ATOM     20  H   UNL     1      52.437   3.288  18.517  0.00  0.00    +0.000 HD
BRANCH  10  22
ATOM     21  C   UNL     1      53.787   8.077  13.956  0.00  0.00    +0.000 C 
ATOM     22  O   UNL     1      53.100   8.446  15.145  0.00  0.00    +0.000 OA
ENDBRANCH  10  22
ENDBRANCH   9  12
ENDBRANCH   8   9
ENDBRANCH   7   8
ENDBRANCH   1   7
BRANCH   4  23
ATOM     23  C   UNL     1      44.645   4.399   9.899  0.00  0.00    +0.000 C 
BRANCH  23  24
ATOM     24  N   UNL     1      43.372   5.150   9.939  0.00  0.00    +0.000 NA
ATOM     25  H   UNL     1      43.225   5.467  10.897  0.00  0.00    +0.000 HD
ATOM     26  H   UNL     1      42.613   4.476   9.784  0.00  0.00    +0.000 HD
ENDBRANCH  23  24
BRANCH  23  27
ATOM     27  C   UNL     1      44.446   2.968   9.334  0.00  0.00    +0.000 C 
BRANCH  27  28
ATOM     28  C   UNL     1      45.563   2.549   8.438  0.00  0.00    +0.000 A 
ATOM     29  C   UNL     1      46.278   3.294   7.526  0.00  0.00    +0.000 A 
ATOM     30  N   UNL     1      47.134   2.408   6.932  0.00  0.00    +0.000 N 
ATOM     31  C   UNL     1      46.920   1.185   7.500  0.00  0.00    +0.000 A 
ATOM     32  N   UNL     1      45.977   1.236   8.412  0.00  0.00    +0.000 NA
ATOM     33  H   UNL     1      47.796   2.611   6.197  0.00  0.00    +0.000 HD
ENDBRANCH  27  28
ENDBRANCH  23  27
ENDBRANCH   4  23
TORSDOF 9
ENDMDL
MODEL 9
REMARK VINA RESULT:    -6.489      2.705      3.450
REMARK INTER + INTRA:         -10.539
REMARK INTER:                  -9.034
REMARK INTRA:                  -1.505
REMARK UNBOUND:                -0.826
REMARK  Name = 
REMARK  10 active torsions:
REMARK  status: ('A' for Active; 'I' for Inactive)
REMARK    1  A    between atoms: C_1  and  O_2
REMARK    2  A    between atoms: O_2  and  C_3
REMARK    3  A    between atoms: C_5  and  C_6
REMARK    4  A    between atoms: C_6  and  O_7
REMARK    5  A    between atoms: O_7  and  C_8
REMARK    6  A    between atoms: C_8  and  C_9
REMARK    7  A    between atoms: C_12  and  C_13
REMARK    8  A    between atoms: C_13  and  N_14
REMARK    9  A    between atoms: C_13  and  C_15
REMARK   10  A    between atoms: C_15  and  C_16
REMARK                            x       y       z     vdW  Elec       q    Type
REMARK                         _______ _______ _______ _____ _____    ______ ____
ROOT
ATOM      1  C   UNL     1      47.287   7.387  13.221  0.00  0.00    +0.000 A 
ATOM      2  C   UNL     1      47.667   6.049  13.375  0.00  0.00    +0.000 A 
ATOM      3  C   UNL     1      46.739   5.019  13.207  0.00  0.00    +0.000 A 
ATOM      4  C   UNL     1      45.408   5.302  12.871  0.00  0.00    +0.000 A 
ATOM      5  C   UNL     1      45.036   6.652  12.725  0.00  0.00    +0.000 A 
ATOM      6  C   UNL     1      45.960   7.683  12.903  0.00  0.00    +0.000 A 
ENDROOT
BRANCH   1   7
ATOM      7  C   UNL     1      48.306   8.479  13.383  0.00  0.00    +0.000 C 
BRANCH   7   8
ATOM      8  O   UNL     1      49.458   7.917  14.007  0.00  0.00    +0.000 OA
BRANCH   8   9
ATOM      9  C   UNL     1      49.512   8.269  15.383  0.00  0.00    +0.000 C 
BRANCH   9  12
ATOM     10  C   UNL     1      49.575   5.149  17.544  0.00  0.00    +0.000 C 
ATOM     11  C   UNL     1      48.865   6.224  16.883  0.00  0.00    +0.000 C 
ATOM     12  C   UNL     1      49.831   7.069  16.200  0.00  0.00    +0.000 C 
ATOM     13  C   UNL     1      51.032   6.530  16.469  0.00  0.00    +0.000 A 
ATOM     14  C   UNL     1      52.363   6.947  16.016  0.00  0.00    +0.000 A 
ATOM     15  O   UNL     1      52.572   7.907  15.286  0.00  0.00    +0.000 OA
ATOM     16  N   UNL     1      53.362   6.133  16.478  0.00  0.00    +0.000 N 
ATOM     17  C   UNL     1      53.137   5.032  17.262  0.00  0.00    +0.000 A 
ATOM     18  N   UNL     1      51.986   4.617  17.678  0.00  0.00    +0.000 NA
ATOM     19  C   UNL     1      50.890   5.339  17.299  0.00  0.00    +0.000 A 
ATOM     20  H   UNL     1      54.296   6.378  16.188  0.00  0.00    +0.000 HD
BRANCH  10  22
ATOM     21  C   UNL     1      48.726   4.446  19.623  0.00  0.00    +0.000 C 
ATOM     22  O   UNL     1      48.854   4.223  18.225  0.00  0.00    +0.000 OA
ENDBRANCH  10  22
ENDBRANCH   9  12
ENDBRANCH   8   9
ENDBRANCH   7   8
ENDBRANCH   1   7
BRANCH   4  23
ATOM     23  C   UNL     1      44.353   4.227  12.639  0.00  0.00    +0.000 C 
BRANCH  23  24
ATOM     24  N   UNL     1      44.992   2.895  12.695  0.00  0.00    +0.000 NA
ATOM     25  H   UNL     1      45.964   3.026  12.972  0.00  0.00    +0.000 HD
ATOM     26  H   UNL     1      45.055   2.545  11.732  0.00  0.00    +0.000 HD
ENDBRANCH  23  24
BRANCH  23  27
ATOM     27  C   UNL     1      43.509   4.401  11.349  0.00  0.00    +0.000 C 
BRANCH  27  28
ATOM     28  C   UNL     1      44.164   3.793  10.154  0.00  0.00    +0.000 A 
ATOM     29  C   UNL     1      44.873   4.402   9.142  0.00  0.00    +0.000 A 
ATOM     30  N   UNL     1      45.191   3.396   8.272  0.00  0.00    +0.000 N 
ATOM     31  C   UNL     1      44.682   2.235   8.781  0.00  0.00    +0.000 A 
ATOM     32  N   UNL     1      44.055   2.441   9.915  0.00  0.00    +0.000 NA
ATOM     33  H   UNL     1      45.696   3.489   7.402  0.00  0.00    +0.000 HD
ENDBRANCH  27  28
ENDBRANCH  23  27
ENDBRANCH   4  23
TORSDOF 9
ENDMDL
