MODEL 1
REMARK VINA RESULT:    -8.472      0.000      0.000
REMARK INTER + INTRA:         -13.868
REMARK INTER:                 -12.434
REMARK INTRA:                  -1.434
REMARK UNBOUND:                -1.434
REMARK  Name = 
REMARK  9 active torsions:
REMARK  status: ('A' for Active; 'I' for Inactive)
REMARK    1  A    between atoms: C_1  and  O_2
REMARK    2  A    between atoms: O_2  and  C_3
REMARK    3  A    between atoms: C_10  and  C_11
REMARK    4  A    between atoms: N_13  and  C_14
REMARK    5  A    between atoms: C_14  and  C_15
REMARK    6  A    between atoms: C_18  and  C_19
REMARK    7  A    between atoms: C_19  and  N_20
REMARK    8  A    between atoms: N_20  and  C_21
REMARK    9  A    between atoms: C_21  and  C_22
REMARK                            x       y       z     vdW  Elec       q    Type
REMARK                         _______ _______ _______ _____ _____    ______ ____
ROOT
ATOM      1  C   UNL     1      47.049   8.205  13.033  0.00  0.00    +0.000 C 
ENDROOT
BRANCH   1   2
ATOM      2  C   UNL     1      46.122   7.243  12.325  0.00  0.00    +0.000 A 
ATOM      3  C   UNL     1      44.885   6.906  12.890  0.00  0.00    +0.000 A 
ATOM      4  C   UNL     1      44.032   5.991  12.258  0.00  0.00    +0.000 A 
ATOM      5  C   UNL     1      44.401   5.380  11.051  0.00  0.00    +0.000 A 
ATOM      6  C   UNL     1      45.642   5.712  10.491  0.00  0.00    +0.000 A 
ATOM      7  C   UNL     1      46.492   6.632  11.119  0.00  0.00    +0.000 A 
BRANCH   5   8
ATOM      8  C   UNL     1      43.484   4.384  10.367  0.00  0.00    +0.000 C 
BRANCH   8   9
ATOM      9  N   UNL     1      44.019   3.991   9.068  0.00  0.00    +0.000 NA
ATOM     10  H   UNL     1      44.780   4.621   8.817  0.00  0.00    +0.000 HD
BRANCH   9  11
ATOM     11  C   UNL     1      44.526   2.620   9.060  0.00  0.00    +0.000 C 
BRANCH  11  12
ATOM     12  C   UNL     1      45.678   2.483   8.088  0.00  0.00    +0.000 A 
ATOM     13  C   UNL     1      46.061   3.546   7.258  0.00  0.00    +0.000 A 
ATOM     14  C   UNL     1      47.156   3.416   6.398  0.00  0.00    +0.000 A 
ATOM     15  C   UNL     1      47.873   2.221   6.353  0.00  0.00    +0.000 A 
ATOM     16  C   UNL     1      47.488   1.150   7.155  0.00  0.00    +0.000 A 
ATOM     17  C   UNL     1      46.400   1.280   8.017  0.00  0.00    +0.000 A 
ENDBRANCH  11  12
ENDBRANCH   9  11
ENDBRANCH   8   9
ENDBRANCH   5   8
ENDBRANCH   1   2
BRANCH   1  20
ATOM     18  C   UNL     1      48.656   6.882  14.366  0.00  0.00    +0.000 C 
ATOM     19  O   UNL     1      49.349   6.642  13.376  0.00  0.00    +0.000 OA
ATOM     20  N   UNL     1      47.529   7.648  14.275  0.00  0.00    +0.000 N 
ATOM     21  H   UNL     1      46.996   7.862  15.107  0.00  0.00    +0.000 HD
BRANCH  18  29
ATOM     22  C   UNL     1      47.408   4.297  16.263  0.00  0.00    +0.000 A 
ATOM     23  N   UNL     1      47.162   3.320  17.155  0.00  0.00    +0.000 NA
ATOM     24  C   UNL     1      47.931   3.259  18.248  0.00  0.00    +0.000 A 
ATOM     25  N   UNL     1      48.922   4.085  18.574  0.00  0.00    +0.000 NA
ATOM     26  C   UNL     1      49.138   5.039  17.651  0.00  0.00    +0.000 A 
ATOM     27  S   UNL     1      50.360   6.189  17.904  0.00  0.00    +0.000 S 
ATOM     28  C   UNL     1      50.030   6.943  16.416  0.00  0.00    +0.000 A 
ATOM     29  C   UNL     1      49.003   6.342  15.694  0.00  0.00    +0.000 A 
ATOM     30  C   UNL     1      48.452   5.219  16.454  0.00  0.00    +0.000 A 
BRANCH  22  32
ATOM     31  C   UNL     1      47.148   3.570  14.055  0.00  0.00    +0.000 C 
ATOM     32  O   UNL     1      46.626   4.348  15.129  0.00  0.00    +0.000 OA
ENDBRANCH  22  32
ENDBRANCH  18  29
ENDBRANCH   1  20
TORSDOF 8
ENDMDL
MODEL 2
REMARK VINA RESULT:    -8.244      1.486      1.718
REMARK INTER + INTRA:         -13.534
REMARK INTER:                 -12.217
REMARK INTRA:                  -1.317
REMARK UNBOUND:                -1.434
REMARK  Name = 
REMARK  9 active torsions:
REMARK  status: ('A' for Active; 'I' for Inactive)
REMARK    1  A    between atoms: C_1  and  O_2
REMARK    2  A    between atoms: O_2  and  C_3
REMARK    3  A    between atoms: C_10  and  C_11
REMARK    4  A    between atoms: N_13  and  C_14
REMARK    5  A    between atoms: C_14  and  C_15
REMARK    6  A    between atoms: C_18  and  C_19
REMARK    7  A    between atoms: C_19  and  N_20
REMARK    8  A    between atoms: N_20  and  C_21
REMARK    9  A    between atoms: C_21  and  C_22
REMARK                            x       y       z     vdW  Elec       q    Type
REMARK                         _______ _______ _______ _____ _____    ______ ____
ROOT
ATOM      1  C   UNL     1      48.073   6.675  13.235  0.00  0.00    +0.000 C 
ENDROOT
BRANCH   1   2
ATOM      2  C   UNL     1      46.867   5.970  12.658  0.00  0.00    +0.000 A 
ATOM      3  C   UNL     1      46.234   4.946  13.376  0.00  0.00    +0.000 A 
ATOM      4  C   UNL     1      45.135   4.264  12.836  0.00  0.00    +0.000 A 
ATOM      5  C   UNL     1      44.649   4.581  11.559  0.00  0.00    +0.000 A 
ATOM      6  C   UNL     1      45.287   5.600  10.840  0.00  0.00    +0.000 A 
ATOM      7  C   UNL     1      46.382   6.286  11.382  0.00  0.00    +0.000 A 
BRANCH   5   8
ATOM      8  C   UNL     1      43.464   3.840  10.968  0.00  0.00    +0.000 C 
BRANCH   8   9
ATOM      9  N   UNL     1      43.759   3.383   9.615  0.00  0.00    +0.000 NA
ATOM     10  H   UNL     1      44.194   4.144   9.094  0.00  0.00    +0.000 HD
BRANCH   9  11
ATOM     11  C   UNL     1      44.658   2.231   9.594  0.00  0.00    +0.000 C 
BRANCH  11  12
ATOM     12  C   UNL     1      45.621   2.326   8.431  0.00  0.00    +0.000 A 
ATOM     13  C   UNL     1      45.793   3.525   7.723  0.00  0.00    +0.000 A 
ATOM     14  C   UNL     1      46.719   3.607   6.679  0.00  0.00    +0.000 A 
ATOM     15  C   UNL     1      47.478   2.492   6.327  0.00  0.00    +0.000 A 
ATOM     16  C   UNL     1      47.301   1.289   7.006  0.00  0.00    +0.000 A 
ATOM     17  C   UNL     1      46.381   1.207   8.052  0.00  0.00    +0.000 A 
ENDBRANCH  11  12
ENDBRANCH   9  11
ENDBRANCH   8   9
ENDBRANCH   5   8
ENDBRANCH   1   2
BRANCH   1  20
ATOM     18  C   UNL     1      49.053   7.054  15.473  0.00  0.00    +0.000 C 
ATOM     19  O   UNL     1      50.170   7.266  14.997  0.00  0.00    +0.000 OA
ATOM     20  N   UNL     1      47.981   6.774  14.673  0.00  0.00    +0.000 N 
ATOM     21  H   UNL     1      47.067   6.639  15.082  0.00  0.00    +0.000 HD
BRANCH  18  29
ATOM     22  C   UNL     1      48.870   4.599  17.877  0.00  0.00    +0.000 A 
ATOM     23  N   UNL     1      48.826   3.859  19.000  0.00  0.00    +0.000 NA
ATOM     24  C   UNL     1      48.669   4.496  20.166  0.00  0.00    +0.000 A 
ATOM     25  N   UNL     1      48.526   5.806  20.348  0.00  0.00    +0.000 NA
ATOM     26  C   UNL     1      48.585   6.507  19.201  0.00  0.00    +0.000 A 
ATOM     27  S   UNL     1      48.413   8.194  19.240  0.00  0.00    +0.000 S 
ATOM     28  C   UNL     1      48.613   8.305  17.555  0.00  0.00    +0.000 A 
ATOM     29  C   UNL     1      48.822   7.080  16.930  0.00  0.00    +0.000 A 
ATOM     30  C   UNL     1      48.774   6.002  17.918  0.00  0.00    +0.000 A 
BRANCH  22  32
ATOM     31  C   UNL     1      47.894   3.224  16.257  0.00  0.00    +0.000 C 
ATOM     32  O   UNL     1      49.050   3.944  16.678  0.00  0.00    +0.000 OA
ENDBRANCH  22  32
ENDBRANCH  18  29
ENDBRANCH   1  20
TORSDOF 8
ENDMDL
MODEL 3
REMARK VINA RESULT:    -7.822      2.080      2.551
REMARK INTER + INTRA:         -12.914
REMARK INTER:                 -11.873
REMARK INTRA:                  -1.041
REMARK UNBOUND:                -1.434
REMARK  Name = 
REMARK  9 active torsions:
REMARK  status: ('A' for Active; 'I' for Inactive)
REMARK    1  A    between atoms: C_1  and  O_2
REMARK    2  A    between atoms: O_2  and  C_3
REMARK    3  A    between atoms: C_10  and  C_11
REMARK    4  A    between atoms: N_13  and  C_14
REMARK    5  A    between atoms: C_14  and  C_15
REMARK    6  A    between atoms: C_18  and  C_19
REMARK    7  A    between atoms: C_19  and  N_20
REMARK    8  A    between atoms: N_20  and  C_21
REMARK    9  A    between atoms: C_21  and  C_22
REMARK                            x       y       z     vdW  Elec       q    Type
REMARK                         _______ _______ _______ _____ _____    ______ ____
ROOT
ATOM      1  C   UNL     1      48.531   7.491  14.863  0.00  0.00    +0.000 C 
ENDROOT
BRANCH   1   2
ATOM      2  C   UNL     1      47.617   6.728  13.932  0.00  0.00    +0.000 A 
ATOM      3  C   UNL     1      47.242   5.410  14.230  0.00  0.00    +0.000 A 
ATOM      4  C   UNL     1      46.420   4.683  13.359  0.00  0.00    +0.000 A 
ATOM      5  C   UNL     1      45.963   5.250  12.160  0.00  0.00    +0.000 A 
ATOM      6  C   UNL     1      46.345   6.565  11.859  0.00  0.00    +0.000 A 
ATOM      7  C   UNL     1      47.161   7.295  12.734  0.00  0.00    +0.000 A 
BRANCH   5   8
ATOM      8  C   UNL     1      45.080   4.463  11.210  0.00  0.00    +0.000 C 
BRANCH   8   9
ATOM      9  N   UNL     1      45.220   4.954   9.843  0.00  0.00    +0.000 NA
ATOM     10  H   UNL     1      46.210   5.005   9.607  0.00  0.00    +0.000 HD
BRANCH   9  11
ATOM     11  C   UNL     1      44.551   4.095   8.867  0.00  0.00    +0.000 C 
BRANCH  11  12
ATOM     12  C   UNL     1      45.551   3.193   8.178  0.00  0.00    +0.000 A 
ATOM     13  C   UNL     1      46.416   3.685   7.190  0.00  0.00    +0.000 A 
ATOM     14  C   UNL     1      47.364   2.846   6.595  0.00  0.00    +0.000 A 
ATOM     15  C   UNL     1      47.453   1.508   6.975  0.00  0.00    +0.000 A 
ATOM     16  C   UNL     1      46.584   1.001   7.939  0.00  0.00    +0.000 A 
ATOM     17  C   UNL     1      45.642   1.838   8.537  0.00  0.00    +0.000 A 
ENDBRANCH  11  12
ENDBRANCH   9  11
ENDBRANCH   8   9
ENDBRANCH   5   8
ENDBRANCH   1   2
BRANCH   1  20
ATOM     18  C   UNL     1      49.427   6.186  16.761  0.00  0.00    +0.000 C 
ATOM     19  O   UNL     1      48.484   6.506  17.485  0.00  0.00    +0.000 OA
ATOM     20  N   UNL     1      49.508   6.618  15.467  0.00  0.00    +0.000 N 
ATOM     21  H   UNL     1      50.272   6.313  14.880  0.00  0.00    +0.000 HD
BRANCH  18  29
ATOM     22  C   UNL     1      49.870   2.778  16.935  0.00  0.00    +0.000 A 
ATOM     23  N   UNL     1      50.318   1.515  17.052  0.00  0.00    +0.000 NA
ATOM     24  C   UNL     1      51.551   1.327  17.537  0.00  0.00    +0.000 A 
ATOM     25  N   UNL     1      52.398   2.267  17.950  0.00  0.00    +0.000 NA
ATOM     26  C   UNL     1      51.913   3.513  17.807  0.00  0.00    +0.000 A 
ATOM     27  S   UNL     1      52.855   4.839  18.290  0.00  0.00    +0.000 S 
ATOM     28  C   UNL     1      51.651   5.937  17.803  0.00  0.00    +0.000 A 
ATOM     29  C   UNL     1      50.522   5.332  17.260  0.00  0.00    +0.000 A 
ATOM     30  C   UNL     1      50.672   3.876  17.293  0.00  0.00    +0.000 A 
BRANCH  22  32
ATOM     31  C   UNL     1      47.588   2.955  17.415  0.00  0.00    +0.000 C 
ATOM     32  O   UNL     1      48.607   2.970  16.419  0.00  0.00    +0.000 OA
ENDBRANCH  22  32
ENDBRANCH  18  29
ENDBRANCH   1  20
TORSDOF 8
ENDMDL
MODEL 4
REMARK VINA RESULT:    -7.767      2.602      3.352
REMARK INTER + INTRA:         -12.834
REMARK INTER:                 -11.533
REMARK INTRA:                  -1.300
REMARK UNBOUND:                -1.434
REMARK  Name = 
REMARK  9 active torsions:
REMARK  status: ('A' for Active; 'I' for Inactive)
REMARK    1  A    between atoms: C_1  and  O_2
REMARK    2  A    between atoms: O_2  and  C_3
REMARK    3  A    between atoms: C_10  and  C_11
REMARK    4  A    between atoms: N_13  and  C_14
REMARK    5  A    between atoms: C_14  and  C_15
REMARK    6  A    between atoms: C_18  and  C_19
REMARK    7  A    between atoms: C_19  and  N_20
REMARK    8  A    between atoms: N_20  and  C_21
REMARK    9  A    between atoms: C_21  and  C_22
REMARK                            x       y       z     vdW  Elec       q    Type
REMARK                         _______ _______ _______ _____ _____    ______ ____
ROOT
ATOM      1  C   UNL     1      48.498   7.014  13.962  0.00  0.00    +0.000 C 
ENDROOT
BRANCH   1   2
ATOM      2  C   UNL     1      47.419   6.244  13.237  0.00  0.00    +0.000 A 
ATOM      3  C   UNL     1      46.886   5.074  13.796  0.00  0.00    +0.000 A 
ATOM      4  C   UNL     1      45.908   4.334  13.117  0.00  0.00    +0.000 A 
ATOM      5  C   UNL     1      45.447   4.739  11.856  0.00  0.00    +0.000 A 
ATOM      6  C   UNL     1      45.985   5.905  11.295  0.00  0.00    +0.000 A 
ATOM      7  C   UNL     1      46.959   6.649  11.976  0.00  0.00    +0.000 A 
BRANCH   5   8
ATOM      8  C   UNL     1      44.393   3.938  11.115  0.00  0.00    +0.000 C 
BRANCH   8   9
ATOM      9  N   UNL     1      44.917   2.636  10.714  0.00  0.00    +0.000 NA
ATOM     10  H   UNL     1      44.633   1.938  11.401  0.00  0.00    +0.000 HD
BRANCH   9  11
ATOM     11  C   UNL     1      44.437   2.219   9.398  0.00  0.00    +0.000 C 
BRANCH  11  12
ATOM     12  C   UNL     1      45.545   2.315   8.371  0.00  0.00    +0.000 A 
ATOM     13  C   UNL     1      45.844   3.527   7.734  0.00  0.00    +0.000 A 
ATOM     14  C   UNL     1      46.900   3.607   6.820  0.00  0.00    +0.000 A 
ATOM     15  C   UNL     1      47.662   2.477   6.530  0.00  0.00    +0.000 A 
ATOM     16  C   UNL     1      47.361   1.261   7.138  0.00  0.00    +0.000 A 
ATOM     17  C   UNL     1      46.311   1.181   8.054  0.00  0.00    +0.000 A 
ENDBRANCH  11  12
ENDBRANCH   9  11
ENDBRANCH   8   9
ENDBRANCH   5   8
ENDBRANCH   1   2
BRANCH   1  20
ATOM     18  C   UNL     1      49.061   6.627  16.337  0.00  0.00    +0.000 C 
ATOM     19  O   UNL     1      50.140   6.109  16.044  0.00  0.00    +0.000 OA
ATOM     20  N   UNL     1      48.216   7.103  15.375  0.00  0.00    +0.000 N 
ATOM     21  H   UNL     1      47.353   7.557  15.641  0.00  0.00    +0.000 HD
BRANCH  18  29
ATOM     22  C   UNL     1      47.831   9.235  18.215  0.00  0.00    +0.000 A 
ATOM     23  N   UNL     1      47.275  10.047  19.132  0.00  0.00    +0.000 NA
ATOM     24  C   UNL     1      46.982   9.532  20.332  0.00  0.00    +0.000 A 
ATOM     25  N   UNL     1      47.204   8.286  20.741  0.00  0.00    +0.000 NA
ATOM     26  C   UNL     1      47.752   7.508  19.791  0.00  0.00    +0.000 A 
ATOM     27  S   UNL     1      48.113   5.887  20.139  0.00  0.00    +0.000 S 
ATOM     28  C   UNL     1      48.696   5.625  18.564  0.00  0.00    +0.000 A 
ATOM     29  C   UNL     1      48.624   6.745  17.741  0.00  0.00    +0.000 A 
ATOM     30  C   UNL     1      48.085   7.880  18.492  0.00  0.00    +0.000 A 
BRANCH  22  32
ATOM     31  C   UNL     1      49.424  10.322  16.891  0.00  0.00    +0.000 C 
ATOM     32  O   UNL     1      48.116   9.762  16.974  0.00  0.00    +0.000 OA
ENDBRANCH  22  32
ENDBRANCH  18  29
ENDBRANCH   1  20
TORSDOF 8
ENDMDL
MODEL 5
REMARK VINA RESULT:    -7.495      2.277      3.535
REMARK INTER + INTRA:         -12.434
REMARK INTER:                 -11.145
REMARK INTRA:                  -1.290
REMARK UNBOUND:                -1.434
REMARK  Name = 
REMARK  9 active torsions:
REMARK  status: ('A' for Active; 'I' for Inactive)
REMARK    1  A    between atoms: C_1  and  O_2
REMARK    2  A    between atoms: O_2  and  C_3
REMARK    3  A    between atoms: C_10  and  C_11
REMARK    4  A    between atoms: N_13  and  C_14
REMARK    5  A    between atoms: C_14  and  C_15
REMARK    6  A    between atoms: C_18  and  C_19
REMARK    7  A    between atoms: C_19  and  N_20
REMARK    8  A    between atoms: N_20  and  C_21
REMARK    9  A    between atoms: C_21  and  C_22
REMARK                            x       y       z     vdW  Elec       q    Type
REMARK                         _______ _______ _______ _____ _____    ______ ____
ROOT
ATOM      1  C   UNL     1      47.471   3.872  15.257  0.00  0.00    +0.000 C 
ENDROOT
BRANCH   1   2
ATOM      2  C   UNL     1      46.798   4.331  13.985  0.00  0.00    +0.000 A 
ATOM      3  C   UNL     1      46.874   5.673  13.587  0.00  0.00    +0.000 A 
ATOM      4  C   UNL     1      46.227   6.116  12.425  0.00  0.00    +0.000 A 
ATOM      5  C   UNL     1      45.476   5.230  11.639  0.00  0.00    +0.000 A 
ATOM      6  C   UNL     1      45.394   3.890  12.042  0.00  0.00    +0.000 A 
ATOM      7  C   UNL     1      46.047   3.446  13.200  0.00  0.00    +0.000 A 
BRANCH   5   8
ATOM      8  C   UNL     1      44.768   5.707  10.385  0.00  0.00    +0.000 C 
BRANCH   8   9
ATOM      9  N   UNL     1      45.441   5.214   9.188  0.00  0.00    +0.000 NA
ATOM     10  H   UNL     1      46.370   4.879   9.443  0.00  0.00    +0.000 HD
BRANCH   9  11
ATOM     11  C   UNL     1      44.713   4.123   8.543  0.00  0.00    +0.000 C 
BRANCH  11  12
ATOM     12  C   UNL     1      45.675   3.146   7.901  0.00  0.00    +0.000 A 
ATOM     13  C   UNL     1      46.488   3.526   6.825  0.00  0.00    +0.000 A 
ATOM     14  C   UNL     1      47.403   2.623   6.273  0.00  0.00    +0.000 A 
ATOM     15  C   UNL     1      47.508   1.331   6.786  0.00  0.00    +0.000 A 
ATOM     16  C   UNL     1      46.690   0.933   7.840  0.00  0.00    +0.000 A 
ATOM     17  C   UNL     1      45.781   1.835   8.395  0.00  0.00    +0.000 A 
ENDBRANCH  11  12
ENDBRANCH   9  11
ENDBRANCH   8   9
ENDBRANCH   5   8
ENDBRANCH   1   2
BRANCH   1  20
ATOM     18  C   UNL     1      48.173   4.821  17.429  0.00  0.00    +0.000 C 
ATOM     19  O   UNL     1      48.781   3.793  17.733  0.00  0.00    +0.000 OA
ATOM     20  N   UNL     1      47.523   4.935  16.233  0.00  0.00    +0.000 N 
ATOM     21  H   UNL     1      47.061   5.801  15.990  0.00  0.00    +0.000 HD
BRANCH  18  29
ATOM     22  C   UNL     1      48.638   8.205  17.013  0.00  0.00    +0.000 A 
ATOM     23  N   UNL     1      48.693   9.546  17.107  0.00  0.00    +0.000 NA
ATOM     24  C   UNL     1      48.426  10.104  18.293  0.00  0.00    +0.000 A 
ATOM     25  N   UNL     1      48.127   9.470  19.425  0.00  0.00    +0.000 NA
ATOM     26  C   UNL     1      48.074   8.134  19.282  0.00  0.00    +0.000 A 
ATOM     27  S   UNL     1      47.714   7.161  20.625  0.00  0.00    +0.000 S 
ATOM     28  C   UNL     1      47.810   5.745  19.690  0.00  0.00    +0.000 A 
ATOM     29  C   UNL     1      48.106   5.972  18.349  0.00  0.00    +0.000 A 
ATOM     30  C   UNL     1      48.293   7.405  18.117  0.00  0.00    +0.000 A 
BRANCH  22  32
ATOM     31  C   UNL     1      50.276   7.330  15.590  0.00  0.00    +0.000 C 
ATOM     32  O   UNL     1      48.896   7.633  15.786  0.00  0.00    +0.000 OA
ENDBRANCH  22  32
ENDBRANCH  18  29
ENDBRANCH   1  20
TORSDOF 8
ENDMDL
MODEL 6
REMARK VINA RESULT:    -7.486      1.509      2.110
REMARK INTER + INTRA:         -12.421
REMARK INTER:                 -11.105
REMARK INTRA:                  -1.316
REMARK UNBOUND:                -1.434
REMARK  Name = 
REMARK  9 active torsions:
REMARK  status: ('A' for Active; 'I' for Inactive)
REMARK    1  A    between atoms: C_1  and  O_2
REMARK    2  A    between atoms: O_2  and  C_3
REMARK    3  A    between atoms: C_10  and  C_11
REMARK    4  A    between atoms: N_13  and  C_14
REMARK    5  A    between atoms: C_14  and  C_15
REMARK    6  A    between atoms: C_18  and  C_19
REMARK    7  A    between atoms: C_19  and  N_20
REMARK    8  A    between atoms: N_20  and  C_21
REMARK    9  A    between atoms: C_21  and  C_22
REMARK                            x       y       z     vdW  Elec       q    Type
REMARK                         _______ _______ _______ _____ _____    ______ ____
ROOT
ATOM      1  C   UNL     1      47.020   7.503  13.559  0.00  0.00    +0.000 C 
ENDROOT
BRANCH   1   2
ATOM      2  C   UNL     1      46.240   6.350  12.971  0.00  0.00    +0.000 A 
ATOM      3  C   UNL     1      45.255   6.582  12.001  0.00  0.00    +0.000 A 
ATOM      4  C   UNL     1      44.504   5.524  11.472  0.00  0.00    +0.000 A 
ATOM      5  C   UNL     1      44.709   4.207  11.911  0.00  0.00    +0.000 A 
ATOM      6  C   UNL     1      45.688   3.978  12.887  0.00  0.00    +0.000 A 
ATOM      7  C   UNL     1      46.444   5.035  13.410  0.00  0.00    +0.000 A 
BRANCH   5   8
ATOM      8  C   UNL     1      43.893   3.060  11.346  0.00  0.00    +0.000 C 
BRANCH   8   9
ATOM      9  N   UNL     1      43.851   3.119   9.889  0.00  0.00    +0.000 NA
ATOM     10  H   UNL     1      44.421   3.903   9.571  0.00  0.00    +0.000 HD
BRANCH   9  11
ATOM     11  C   UNL     1      44.350   1.896   9.263  0.00  0.00    +0.000 C 
BRANCH  11  12
ATOM     12  C   UNL     1      45.537   2.198   8.374  0.00  0.00    +0.000 A 
ATOM     13  C   UNL     1      46.466   1.203   8.036  0.00  0.00    +0.000 A 
ATOM     14  C   UNL     1      47.532   1.489   7.178  0.00  0.00    +0.000 A 
ATOM     15  C   UNL     1      47.685   2.772   6.655  0.00  0.00    +0.000 A 
ATOM     16  C   UNL     1      46.784   3.776   7.001  0.00  0.00    +0.000 A 
ATOM     17  C   UNL     1      45.716   3.490   7.853  0.00  0.00    +0.000 A 
ENDBRANCH  11  12
ENDBRANCH   9  11
ENDBRANCH   8   9
ENDBRANCH   5   8
ENDBRANCH   1   2
BRANCH   1  20
ATOM     18  C   UNL     1      49.112   7.857  14.827  0.00  0.00    +0.000 C 
ATOM     19  O   UNL     1      49.075   9.073  14.636  0.00  0.00    +0.000 OA
ATOM     20  N   UNL     1      48.136   7.032  14.344  0.00  0.00    +0.000 N 
ATOM     21  H   UNL     1      48.168   6.041  14.544  0.00  0.00    +0.000 HD
BRANCH  18  29
ATOM     22  C   UNL     1      49.278   5.214  17.026  0.00  0.00    +0.000 A 
ATOM     23  N   UNL     1      49.626   4.199  17.836  0.00  0.00    +0.000 NA
ATOM     24  C   UNL     1      50.921   4.049  18.137  0.00  0.00    +0.000 A 
ATOM     25  N   UNL     1      51.928   4.821  17.734  0.00  0.00    +0.000 NA
ATOM     26  C   UNL     1      51.536   5.817  16.920  0.00  0.00    +0.000 A 
ATOM     27  S   UNL     1      52.688   6.907  16.315  0.00  0.00    +0.000 S 
ATOM     28  C   UNL     1      51.501   7.754  15.440  0.00  0.00    +0.000 A 
ATOM     29  C   UNL     1      50.218   7.231  15.576  0.00  0.00    +0.000 A 
ATOM     30  C   UNL     1      50.241   6.087  16.489  0.00  0.00    +0.000 A 
BRANCH  22  32
ATOM     31  C   UNL     1      47.167   4.208  17.031  0.00  0.00    +0.000 C 
ATOM     32  O   UNL     1      47.946   5.356  16.703  0.00  0.00    +0.000 OA
ENDBRANCH  22  32
ENDBRANCH  18  29
ENDBRANCH   1  20
TORSDOF 8
ENDMDL
MODEL 7
REMARK VINA RESULT:    -7.407      2.288      3.034
REMARK INTER + INTRA:         -12.306
REMARK INTER:                 -10.903
REMARK INTRA:                  -1.402
REMARK UNBOUND:                -1.434
REMARK  Name = 
REMARK  9 active torsions:
REMARK  status: ('A' for Active; 'I' for Inactive)
REMARK    1  A    between atoms: C_1  and  O_2
REMARK    2  A    between atoms: O_2  and  C_3
REMARK    3  A    between atoms: C_10  and  C_11
REMARK    4  A    between atoms: N_13  and  C_14
REMARK    5  A    between atoms: C_14  and  C_15
REMARK    6  A    between atoms: C_18  and  C_19
REMARK    7  A    between atoms: C_19  and  N_20
REMARK    8  A    between atoms: N_20  and  C_21
REMARK    9  A    between atoms: C_21  and  C_22
REMARK                            x       y       z     vdW  Elec       q    Type
REMARK                         _______ _______ _______ _____ _____    ______ ____
ROOT
ATOM      1  C   UNL     1      47.587   4.287  14.795  0.00  0.00    +0.000 C 
ENDROOT
BRANCH   1   2
ATOM      2  C   UNL     1      46.592   4.468  13.673  0.00  0.00    +0.000 A 
ATOM      3  C   UNL     1      46.216   5.753  13.259  0.00  0.00    +0.000 A 
ATOM      4  C   UNL     1      45.270   5.932  12.240  0.00  0.00    +0.000 A 
ATOM      5  C   UNL     1      44.666   4.829  11.618  0.00  0.00    +0.000 A 
ATOM      6  C   UNL     1      45.037   3.544  12.038  0.00  0.00    +0.000 A 
ATOM      7  C   UNL     1      45.988   3.365  13.053  0.00  0.00    +0.000 A 
BRANCH   5   8
ATOM      8  C   UNL     1      43.636   5.018  10.521  0.00  0.00    +0.000 C 
BRANCH   8   9
ATOM      9  N   UNL     1      43.980   4.227   9.343  0.00  0.00    +0.000 NA
ATOM     10  H   UNL     1      43.244   4.333   8.645  0.00  0.00    +0.000 HD
BRANCH   9  11
ATOM     11  C   UNL     1      45.251   4.632   8.746  0.00  0.00    +0.000 C 
BRANCH  11  12
ATOM     12  C   UNL     1      45.963   3.439   8.147  0.00  0.00    +0.000 A 
ATOM     13  C   UNL     1      45.760   2.144   8.645  0.00  0.00    +0.000 A 
ATOM     14  C   UNL     1      46.392   1.047   8.050  0.00  0.00    +0.000 A 
ATOM     15  C   UNL     1      47.238   1.234   6.958  0.00  0.00    +0.000 A 
ATOM     16  C   UNL     1      47.466   2.517   6.468  0.00  0.00    +0.000 A 
ATOM     17  C   UNL     1      46.832   3.612   7.057  0.00  0.00    +0.000 A 
ENDBRANCH  11  12
ENDBRANCH   9  11
ENDBRANCH   8   9
ENDBRANCH   5   8
ENDBRANCH   1   2
BRANCH   1  20
ATOM     18  C   UNL     1      48.559   6.310  15.831  0.00  0.00    +0.000 C 
ATOM     19  O   UNL     1      49.569   6.239  15.129  0.00  0.00    +0.000 OA
ATOM     20  N   UNL     1      47.546   5.401  15.713  0.00  0.00    +0.000 N 
ATOM     21  H   UNL     1      46.712   5.500  16.274  0.00  0.00    +0.000 HD
BRANCH  18  29
ATOM     22  C   UNL     1      47.663   6.291  19.153  0.00  0.00    +0.000 A 
ATOM     23  N   UNL     1      47.418   6.551  20.450  0.00  0.00    +0.000 NA
ATOM     24  C   UNL     1      47.521   7.818  20.868  0.00  0.00    +0.000 A 
ATOM     25  N   UNL     1      47.824   8.881  20.126  0.00  0.00    +0.000 NA
ATOM     26  C   UNL     1      48.070   8.574  18.840  0.00  0.00    +0.000 A 
ATOM     27  S   UNL     1      48.466   9.808  17.744  0.00  0.00    +0.000 S 
ATOM     28  C   UNL     1      48.631   8.694  16.471  0.00  0.00    +0.000 A 
ATOM     29  C   UNL     1      48.402   7.372  16.842  0.00  0.00    +0.000 A 
ATOM     30  C   UNL     1      48.037   7.310  18.258  0.00  0.00    +0.000 A 
BRANCH  22  32
ATOM     31  C   UNL     1      48.744   4.222  19.016  0.00  0.00    +0.000 C 
ATOM     32  O   UNL     1      47.574   4.983  18.729  0.00  0.00    +0.000 OA
ENDBRANCH  22  32
ENDBRANCH  18  29
ENDBRANCH   1  20
TORSDOF 8
ENDMDL
MODEL 8
REMARK VINA RESULT:    -7.301      2.044      2.698
REMARK INTER + INTRA:         -12.150
REMARK INTER:                 -11.198
REMARK INTRA:                  -0.952
REMARK UNBOUND:                -1.434
REMARK  Name = 
REMARK  9 active torsions:
REMARK  status: ('A' for Active; 'I' for Inactive)
REMARK    1  A    between atoms: C_1  and  O_2
REMARK    2  A    between atoms: O_2  and  C_3
REMARK    3  A    between atoms: C_10  and  C_11
REMARK    4  A    between atoms: N_13  and  C_14
REMARK    5  A    between atoms: C_14  and  C_15
REMARK    6  A    between atoms: C_18  and  C_19
REMARK    7  A    between atoms: C_19  and  N_20
REMARK    8  A    between atoms: N_20  and  C_21
REMARK    9  A    between atoms: C_21  and  C_22
REMARK                            x       y       z     vdW  Elec       q    Type
REMARK                         _______ _______ _______ _____ _____    ______ ____
ROOT
ATOM      1  C   UNL     1      47.752   7.716  13.849  0.00  0.00    +0.000 C 
ENDROOT
BRANCH   1   2
ATOM      2  C   UNL     1      46.684   7.014  13.042  0.00  0.00    +0.000 A 
ATOM      3  C   UNL     1      46.532   5.623  13.125  0.00  0.00    +0.000 A 
ATOM      4  C   UNL     1      45.566   4.959  12.358  0.00  0.00    +0.000 A 
ATOM      5  C   UNL     1      44.736   5.668  11.476  0.00  0.00    +0.000 A 
ATOM      6  C   UNL     1      44.894   7.057  11.388  0.00  0.00    +0.000 A 
ATOM      7  C   UNL     1      45.856   7.723  12.161  0.00  0.00    +0.000 A 
BRANCH   5   8
ATOM      8  C   UNL     1      43.695   4.951  10.638  0.00  0.00    +0.000 C 
BRANCH   8   9
ATOM      9  N   UNL     1      44.264   4.506   9.370  0.00  0.00    +0.000 NA
ATOM     10  H   UNL     1      45.173   4.949   9.240  0.00  0.00    +0.000 HD
BRANCH   9  11
ATOM     11  C   UNL     1      44.438   3.056   9.311  0.00  0.00    +0.000 C 
BRANCH  11  12
ATOM     12  C   UNL     1      45.509   2.688   8.307  0.00  0.00    +0.000 A 
ATOM     13  C   UNL     1      46.097   1.415   8.304  0.00  0.00    +0.000 A 
ATOM     14  C   UNL     1      47.053   1.078   7.341  0.00  0.00    +0.000 A 
ATOM     15  C   UNL     1      47.436   2.010   6.377  0.00  0.00    +0.000 A 
ATOM     16  C   UNL     1      46.877   3.286   6.384  0.00  0.00    +0.000 A 
ATOM     17  C   UNL     1      45.919   3.622   7.341  0.00  0.00    +0.000 A 
ENDBRANCH  11  12
ENDBRANCH   9  11
ENDBRANCH   8   9
ENDBRANCH   5   8
ENDBRANCH   1   2
BRANCH   1  20
ATOM     18  C   UNL     1      48.740   7.427  16.096  0.00  0.00    +0.000 C 
ATOM     19  O   UNL     1      48.888   8.642  16.237  0.00  0.00    +0.000 OA
ATOM     20  N   UNL     1      48.180   6.906  14.964  0.00  0.00    +0.000 N 
ATOM     21  H   UNL     1      48.036   5.908  14.887  0.00  0.00    +0.000 HD
BRANCH  18  29
ATOM     22  C   UNL     1      47.803   6.925  19.369  0.00  0.00    +0.000 A 
ATOM     23  N   UNL     1      47.577   6.480  20.618  0.00  0.00    +0.000 NA
ATOM     24  C   UNL     1      48.271   5.417  21.042  0.00  0.00    +0.000 A 
ATOM     25  N   UNL     1      49.197   4.745  20.362  0.00  0.00    +0.000 NA
ATOM     26  C   UNL     1      49.384   5.219  19.118  0.00  0.00    +0.000 A 
ATOM     27  S   UNL     1      50.536   4.489  18.107  0.00  0.00    +0.000 S 
ATOM     28  C   UNL     1      50.172   5.557  16.835  0.00  0.00    +0.000 A 
ATOM     29  C   UNL     1      49.172   6.477  17.138  0.00  0.00    +0.000 A 
ATOM     30  C   UNL     1      48.725   6.288  18.519  0.00  0.00    +0.000 A 
BRANCH  22  32
ATOM     31  C   UNL     1      47.539   9.247  19.462  0.00  0.00    +0.000 C 
ATOM     32  O   UNL     1      47.076   8.009  18.929  0.00  0.00    +0.000 OA
ENDBRANCH  22  32
ENDBRANCH  18  29
ENDBRANCH   1  20
TORSDOF 8
ENDMDL
MODEL 9
REMARK VINA RESULT:    -6.636      1.894      3.586
REMARK INTER + INTRA:         -11.174
REMARK INTER:                 -10.131
REMARK INTRA:                  -1.044
REMARK UNBOUND:                -1.434
REMARK  Name = 
REMARK  9 active torsions:
REMARK  status: ('A' for Active; 'I' for Inactive)
REMARK    1  A    between atoms: C_1  and  O_2
REMARK    2  A    between atoms: O_2  and  C_3
REMARK    3  A    between atoms: C_10  and  C_11
REMARK    4  A    between atoms: N_13  and  C_14
REMARK    5  A    between atoms: C_14  and  C_15
REMARK    6  A    between atoms: C_18  and  C_19
REMARK    7  A    between atoms: C_19  and  N_20
REMARK    8  A    between atoms: N_20  and  C_21
REMARK    9  A    between atoms: C_21  and  C_22
REMARK                            x       y       z     vdW  Elec       q    Type
REMARK                         _______ _______ _______ _____ _____    ______ ____
ROOT
ATOM      1  C   UNL     1      47.091   4.547  14.795  0.00  0.00    +0.000 C 
ENDROOT
BRANCH   1   2
ATOM      2  C   UNL     1      46.129   4.729  13.644  0.00  0.00    +0.000 A 
ATOM      3  C   UNL     1      44.832   4.203  13.714  0.00  0.00    +0.000 A 
ATOM      4  C   UNL     1      43.943   4.338  12.640  0.00  0.00    +0.000 A 
ATOM      5  C   UNL     1      44.333   4.991  11.461  0.00  0.00    +0.000 A 
ATOM      6  C   UNL     1      45.633   5.510  11.389  0.00  0.00    +0.000 A 
ATOM      7  C   UNL     1      46.520   5.381  12.467  0.00  0.00    +0.000 A 
BRANCH   5   8
ATOM      8  C   UNL     1      43.376   5.133  10.293  0.00  0.00    +0.000 C 
BRANCH   8   9
ATOM      9  N   UNL     1      43.907   4.475   9.103  0.00  0.00    +0.000 NA
ATOM     10  H   UNL     1      44.688   5.022   8.742  0.00  0.00    +0.000 HD
BRANCH   9  11
ATOM     11  C   UNL     1      44.374   3.117   9.374  0.00  0.00    +0.000 C 
BRANCH  11  12
ATOM     12  C   UNL     1      45.449   2.716   8.387  0.00  0.00    +0.000 A 
ATOM     13  C   UNL     1      45.992   3.642   7.485  0.00  0.00    +0.000 A 
ATOM     14  C   UNL     1      47.016   3.265   6.611  0.00  0.00    +0.000 A 
ATOM     15  C   UNL     1      47.503   1.959   6.624  0.00  0.00    +0.000 A 
ATOM     16  C   UNL     1      46.957   1.023   7.499  0.00  0.00    +0.000 A 
ATOM     17  C   UNL     1      45.938   1.399   8.376  0.00  0.00    +0.000 A 
ENDBRANCH  11  12
ENDBRANCH   9  11
ENDBRANCH   8   9
ENDBRANCH   5   8
ENDBRANCH   1   2
BRANCH   1  20
ATOM     18  C   UNL     1      48.423   6.109  16.173  0.00  0.00    +0.000 C 
ATOM     19  O   UNL     1      48.190   5.472  17.201  0.00  0.00    +0.000 OA
ATOM     20  N   UNL     1      47.931   5.709  14.962  0.00  0.00    +0.000 N 
ATOM     21  H   UNL     1      48.165   6.227  14.127  0.00  0.00    +0.000 HD
BRANCH  18  29
ATOM     22  C   UNL     1      48.381   9.003  14.311  0.00  0.00    +0.000 A 
ATOM     23  N   UNL     1      48.531  10.236  13.795  0.00  0.00    +0.000 NA
ATOM     24  C   UNL     1      49.460  11.034  14.333  0.00  0.00    +0.000 A 
ATOM     25  N   UNL     1      50.289  10.735  15.329  0.00  0.00    +0.000 NA
ATOM     26  C   UNL     1      50.099   9.498  15.820  0.00  0.00    +0.000 A 
ATOM     27  S   UNL     1      51.075   8.941  17.092  0.00  0.00    +0.000 S 
ATOM     28  C   UNL     1      50.259   7.450  17.134  0.00  0.00    +0.000 A 
ATOM     29  C   UNL     1      49.232   7.342  16.201  0.00  0.00    +0.000 A 
ATOM     30  C   UNL     1      49.161   8.562  15.396  0.00  0.00    +0.000 A 
BRANCH  22  32
ATOM     31  C   UNL     1      46.293   8.912  13.263  0.00  0.00    +0.000 C 
ATOM     32  O   UNL     1      47.412   8.188  13.767  0.00  0.00    +0.000 OA
ENDBRANCH  22  32
ENDBRANCH  18  29
ENDBRANCH   1  20
TORSDOF 8
ENDMDL
