MODEL 1
REMARK VINA RESULT:    -8.455      0.000      0.000
REMARK INTER + INTRA:         -11.608
REMARK INTER:                 -10.926
REMARK INTRA:                  -0.681
REMARK UNBOUND:                -0.681
REMARK  Name = 
REMARK  5 active torsions:
REMARK  status: ('A' for Active; 'I' for Inactive)
REMARK    1  A    between atoms: C_2  and  C_4
REMARK    2  A    between atoms: C_7  and  N_8
REMARK    3  A    between atoms: N_8  and  C_9
REMARK    4  A    between atoms: C_9  and  C_10
REMARK    5  A    between atoms: C_14  and  N_15
REMARK                            x       y       z     vdW  Elec       q    Type
REMARK                         _______ _______ _______ _____ _____    ______ ____
ROOT
ATOM      1  N   UNL     1      43.777   4.865   9.835  0.00  0.00    +0.000 N 
ATOM      2  H   UNL     1      43.637   5.747   9.357  0.00  0.00    +0.000 HD
ENDROOT
BRANCH   1   6
ATOM      3  C   UNL     1      46.386   2.308   7.738  0.00  0.00    +0.000 A 
ATOM      4  C   UNL     1      45.441   1.763   8.609  0.00  0.00    +0.000 A 
ATOM      5  C   UNL     1      44.595   2.604   9.342  0.00  0.00    +0.000 A 
ATOM      6  C   UNL     1      44.676   3.996   9.234  0.00  0.00    +0.000 A 
ATOM      7  C   UNL     1      45.643   4.525   8.364  0.00  0.00    +0.000 A 
ATOM      8  C   UNL     1      46.501   3.695   7.633  0.00  0.00    +0.000 A 
BRANCH   3  10
ATOM      9  N   UNL     1      48.354   2.066   6.328  0.00  0.00    +0.000 N 
ATOM     10  C   UNL     1      47.281   1.452   6.917  0.00  0.00    +0.000 C 
ATOM     11  O   UNL     1      47.103   0.249   6.808  0.00  0.00    +0.000 OA
ATOM     12  H   UNL     1      49.020   1.455   5.871  0.00  0.00    +0.000 HD
ATOM     13  H   UNL     1      48.677   2.977   6.618  0.00  0.00    +0.000 HD
ENDBRANCH   3  10
ENDBRANCH   1   6
BRANCH   1  14
ATOM     14  C   UNL     1      43.442   4.839  11.256  0.00  0.00    +0.000 C 
BRANCH  14  15
ATOM     15  C   UNL     1      44.638   4.916  12.180  0.00  0.00    +0.000 A 
ATOM     16  C   UNL     1      45.108   3.755  12.789  0.00  0.00    +0.000 A 
ATOM     17  N   UNL     1      46.246   3.715  13.508  0.00  0.00    +0.000 NA
ATOM     18  C   UNL     1      46.897   4.902  13.597  0.00  0.00    +0.000 A 
ATOM     19  C   UNL     1      46.457   6.101  13.015  0.00  0.00    +0.000 A 
ATOM     20  N   UNL     1      45.306   6.104  12.301  0.00  0.00    +0.000 NA
BRANCH  19  21
ATOM     21  N   UNL     1      47.175   7.267  13.181  0.00  0.00    +0.000 N 
ATOM     22  C   UNL     1      46.488   8.557  13.285  0.00  0.00    +0.000 C 
ATOM     23  C   UNL     1      46.862   9.493  12.129  0.00  0.00    +0.000 C 
ATOM     24  O   UNL     1      48.288   9.602  11.971  0.00  0.00    +0.000 OA
ATOM     25  C   UNL     1      48.845   8.310  11.685  0.00  0.00    +0.000 C 
ATOM     26  C   UNL     1      48.600   7.323  12.838  0.00  0.00    +0.000 C 
ENDBRANCH  19  21
ENDBRANCH  14  15
ENDBRANCH   1  14
TORSDOF 5
ENDMDL
MODEL 2
REMARK VINA RESULT:    -8.155      1.930      2.824
REMARK INTER + INTRA:         -11.220
REMARK INTER:                 -10.553
REMARK INTRA:                  -0.667
REMARK UNBOUND:                -0.681
REMARK  Name = 
REMARK  5 active torsions:
REMARK  status: ('A' for Active; 'I' for Inactive)
REMARK    1  A    between atoms: C_2  and  C_4
REMARK    2  A    between atoms: C_7  and  N_8
REMARK    3  A    between atoms: N_8  and  C_9
REMARK    4  A    between atoms: C_9  and  C_10
REMARK    5  A    between atoms: C_14  and  N_15
REMARK                            x       y       z     vdW  Elec       q    Type
REMARK                         _______ _______ _______ _____ _____    ______ ____
ROOT
ATOM      1  N   UNL     1      43.588   4.688   9.907  0.00  0.00    +0.000 N 
ATOM      2  H   UNL     1      43.120   5.365   9.315  0.00  0.00    +0.000 HD
ENDROOT
BRANCH   1   6
ATOM      3  C   UNL     1      46.445   2.460   7.757  0.00  0.00    +0.000 A 
ATOM      4  C   UNL     1      45.611   1.812   8.670  0.00  0.00    +0.000 A 
ATOM      5  C   UNL     1      44.685   2.547   9.420  0.00  0.00    +0.000 A 
ATOM      6  C   UNL     1      44.574   3.935   9.287  0.00  0.00    +0.000 A 
ATOM      7  C   UNL     1      45.432   4.570   8.374  0.00  0.00    +0.000 A 
ATOM      8  C   UNL     1      46.368   3.848   7.625  0.00  0.00    +0.000 A 
BRANCH   3  10
ATOM      9  N   UNL     1      48.528   2.401   6.502  0.00  0.00    +0.000 N 
ATOM     10  C   UNL     1      47.418   1.716   6.918  0.00  0.00    +0.000 C 
ATOM     11  O   UNL     1      47.267   0.534   6.647  0.00  0.00    +0.000 OA
ATOM     12  H   UNL     1      49.240   1.854   6.032  0.00  0.00    +0.000 HD
ATOM     13  H   UNL     1      48.813   3.271   6.928  0.00  0.00    +0.000 HD
ENDBRANCH   3  10
ENDBRANCH   1   6
BRANCH   1  14
ATOM     14  C   UNL     1      43.533   4.937  11.344  0.00  0.00    +0.000 C 
BRANCH  14  15
ATOM     15  C   UNL     1      44.672   5.782  11.874  0.00  0.00    +0.000 A 
ATOM     16  C   UNL     1      44.681   7.152  11.626  0.00  0.00    +0.000 A 
ATOM     17  N   UNL     1      45.578   7.990  12.180  0.00  0.00    +0.000 NA
ATOM     18  C   UNL     1      46.479   7.390  12.997  0.00  0.00    +0.000 A 
ATOM     19  C   UNL     1      46.519   6.013  13.268  0.00  0.00    +0.000 A 
ATOM     20  N   UNL     1      45.604   5.199  12.690  0.00  0.00    +0.000 NA
BRANCH  19  21
ATOM     21  N   UNL     1      47.491   5.488  14.096  0.00  0.00    +0.000 N 
ATOM     22  C   UNL     1      47.270   4.219  14.793  0.00  0.00    +0.000 C 
ATOM     23  C   UNL     1      47.274   4.401  16.316  0.00  0.00    +0.000 C 
ATOM     24  O   UNL     1      48.437   5.119  16.764  0.00  0.00    +0.000 OA
ATOM     25  C   UNL     1      48.462   6.424  16.167  0.00  0.00    +0.000 C 
ATOM     26  C   UNL     1      48.555   6.343  14.635  0.00  0.00    +0.000 C 
ENDBRANCH  19  21
ENDBRANCH  14  15
ENDBRANCH   1  14
TORSDOF 5
ENDMDL
MODEL 3
REMARK VINA RESULT:    -7.396      1.536      2.464
REMARK INTER + INTRA:         -10.240
REMARK INTER:                  -9.618
REMARK INTRA:                  -0.621
REMARK UNBOUND:                -0.681
REMARK  Name = 
REMARK  5 active torsions:
REMARK  status: ('A' for Active; 'I' for Inactive)
REMARK    1  A    between atoms: C_2  and  C_4
REMARK    2  A    between atoms: C_7  and  N_8
REMARK    3  A    between atoms: N_8  and  C_9
REMARK    4  A    between atoms: C_9  and  C_10
REMARK    5  A    between atoms: C_14  and  N_15
REMARK                            x       y       z     vdW  Elec       q    Type
REMARK                         _______ _______ _______ _____ _____    ______ ____
ROOT
ATOM      1  N   UNL     1      43.726   4.742  10.032  0.00  0.00    +0.000 N 
ATOM      2  H   UNL     1      43.079   5.247   9.438  0.00  0.00    +0.000 HD
ENDROOT
BRANCH   1   6
ATOM      3  C   UNL     1      46.441   2.467   7.752  0.00  0.00    +0.000 A 
ATOM      4  C   UNL     1      45.594   1.824   8.657  0.00  0.00    +0.000 A 
ATOM      5  C   UNL     1      44.715   2.572   9.449  0.00  0.00    +0.000 A 
ATOM      6  C   UNL     1      44.666   3.968   9.368  0.00  0.00    +0.000 A 
ATOM      7  C   UNL     1      45.536   4.596   8.462  0.00  0.00    +0.000 A 
ATOM      8  C   UNL     1      46.426   3.860   7.672  0.00  0.00    +0.000 A 
BRANCH   3  10
ATOM      9  N   UNL     1      48.468   2.379   6.409  0.00  0.00    +0.000 N 
ATOM     10  C   UNL     1      47.365   1.710   6.869  0.00  0.00    +0.000 C 
ATOM     11  O   UNL     1      47.182   0.532   6.601  0.00  0.00    +0.000 OA
ATOM     12  H   UNL     1      49.149   1.822   5.908  0.00  0.00    +0.000 HD
ATOM     13  H   UNL     1      48.784   3.242   6.826  0.00  0.00    +0.000 HD
ENDBRANCH   3  10
ENDBRANCH   1   6
BRANCH   1  14
ATOM     14  C   UNL     1      43.904   5.262  11.384  0.00  0.00    +0.000 C 
BRANCH  14  15
ATOM     15  C   UNL     1      44.460   6.668  11.443  0.00  0.00    +0.000 A 
ATOM     16  C   UNL     1      43.644   7.741  11.095  0.00  0.00    +0.000 A 
ATOM     17  N   UNL     1      44.017   9.026  11.256  0.00  0.00    +0.000 NA
ATOM     18  C   UNL     1      45.258   9.191  11.779  0.00  0.00    +0.000 A 
ATOM     19  C   UNL     1      46.122   8.143  12.131  0.00  0.00    +0.000 A 
ATOM     20  N   UNL     1      45.716   6.863  11.952  0.00  0.00    +0.000 NA
BRANCH  19  21
ATOM     21  N   UNL     1      47.380   8.408  12.635  0.00  0.00    +0.000 N 
ATOM     22  C   UNL     1      48.577   8.091  11.853  0.00  0.00    +0.000 C 
ATOM     23  C   UNL     1      49.449   7.041  12.553  0.00  0.00    +0.000 C 
ATOM     24  O   UNL     1      49.720   7.398  13.920  0.00  0.00    +0.000 OA
ATOM     25  C   UNL     1      48.488   7.500  14.649  0.00  0.00    +0.000 C 
ATOM     26  C   UNL     1      47.582   8.601  14.075  0.00  0.00    +0.000 C 
ENDBRANCH  19  21
ENDBRANCH  14  15
ENDBRANCH   1  14
TORSDOF 5
ENDMDL
MODEL 4
REMARK VINA RESULT:    -6.866      3.696      8.181
REMARK INTER + INTRA:          -9.555
REMARK INTER:                  -9.093
REMARK INTRA:                  -0.462
REMARK UNBOUND:                -0.681
REMARK  Name = 
REMARK  5 active torsions:
REMARK  status: ('A' for Active; 'I' for Inactive)
REMARK    1  A    between atoms: C_2  and  C_4
REMARK    2  A    between atoms: C_7  and  N_8
REMARK    3  A    between atoms: N_8  and  C_9
REMARK    4  A    between atoms: C_9  and  C_10
REMARK    5  A    between atoms: C_14  and  N_15
REMARK                            x       y       z     vdW  Elec       q    Type
REMARK                         _______ _______ _______ _____ _____    ______ ____
ROOT
ATOM      1  N   UNL     1      47.152   3.354  14.419  0.00  0.00    +0.000 N 
ATOM      2  H   UNL     1      47.474   2.513  13.955  0.00  0.00    +0.000 HD
ENDROOT
BRANCH   1   6
ATOM      3  C   UNL     1      48.691   4.066  18.275  0.00  0.00    +0.000 A 
ATOM      4  C   UNL     1      48.837   2.804  17.698  0.00  0.00    +0.000 A 
ATOM      5  C   UNL     1      48.295   2.542  16.434  0.00  0.00    +0.000 A 
ATOM      6  C   UNL     1      47.592   3.521  15.724  0.00  0.00    +0.000 A 
ATOM      7  C   UNL     1      47.444   4.780  16.328  0.00  0.00    +0.000 A 
ATOM      8  C   UNL     1      47.972   5.051  17.595  0.00  0.00    +0.000 A 
BRANCH   3  10
ATOM      9  N   UNL     1      48.560   4.025  20.704  0.00  0.00    +0.000 N 
ATOM     10  C   UNL     1      49.278   4.396  19.599  0.00  0.00    +0.000 C 
ATOM     11  O   UNL     1      50.371   4.931  19.706  0.00  0.00    +0.000 OA
ATOM     12  H   UNL     1      49.022   4.147  21.598  0.00  0.00    +0.000 HD
ATOM     13  H   UNL     1      47.808   3.353  20.655  0.00  0.00    +0.000 HD
ENDBRANCH   3  10
ENDBRANCH   1   6
BRANCH   1  14
ATOM     14  C   UNL     1      46.730   4.451  13.553  0.00  0.00    +0.000 C 
BRANCH  14  15
ATOM     15  C   UNL     1      45.482   4.163  12.746  0.00  0.00    +0.000 A 
ATOM     16  C   UNL     1      44.234   4.454  13.290  0.00  0.00    +0.000 A 
ATOM     17  N   UNL     1      43.089   4.361  12.586  0.00  0.00    +0.000 NA
ATOM     18  C   UNL     1      43.250   3.952  11.302  0.00  0.00    +0.000 A 
ATOM     19  C   UNL     1      44.483   3.634  10.713  0.00  0.00    +0.000 A 
ATOM     20  N   UNL     1      45.614   3.735  11.453  0.00  0.00    +0.000 NA
BRANCH  19  21
ATOM     21  N   UNL     1      44.547   3.202   9.404  0.00  0.00    +0.000 N 
ATOM     22  C   UNL     1      44.722   1.781   9.096  0.00  0.00    +0.000 C 
ATOM     23  C   UNL     1      46.037   1.521   8.351  0.00  0.00    +0.000 C 
ATOM     24  O   UNL     1      46.188   2.389   7.214  0.00  0.00    +0.000 OA
ATOM     25  C   UNL     1      46.192   3.758   7.645  0.00  0.00    +0.000 C 
ATOM     26  C   UNL     1      44.866   4.140   8.322  0.00  0.00    +0.000 C 
ENDBRANCH  19  21
ENDBRANCH  14  15
ENDBRANCH   1  14
TORSDOF 5
ENDMDL
MODEL 5
REMARK VINA RESULT:    -6.804      1.957      6.679
REMARK INTER + INTRA:          -9.474
REMARK INTER:                  -8.865
REMARK INTRA:                  -0.609
REMARK UNBOUND:                -0.681
REMARK  Name = 
REMARK  5 active torsions:
REMARK  status: ('A' for Active; 'I' for Inactive)
REMARK    1  A    between atoms: C_2  and  C_4
REMARK    2  A    between atoms: C_7  and  N_8
REMARK    3  A    between atoms: N_8  and  C_9
REMARK    4  A    between atoms: C_9  and  C_10
REMARK    5  A    between atoms: C_14  and  N_15
REMARK                            x       y       z     vdW  Elec       q    Type
REMARK                         _______ _______ _______ _____ _____    ______ ____
ROOT
ATOM      1  N   UNL     1      46.262   6.126  13.608  0.00  0.00    +0.000 N 
ATOM      2  H   UNL     1      46.382   5.338  14.234  0.00  0.00    +0.000 HD
ENDROOT
BRANCH   1   6
ATOM      3  C   UNL     1      49.865   7.899  12.336  0.00  0.00    +0.000 A 
ATOM      4  C   UNL     1      49.722   7.512  13.669  0.00  0.00    +0.000 A 
ATOM      5  C   UNL     1      48.516   6.958  14.114  0.00  0.00    +0.000 A 
ATOM      6  C   UNL     1      47.428   6.787  13.251  0.00  0.00    +0.000 A 
ATOM      7  C   UNL     1      47.587   7.197  11.917  0.00  0.00    +0.000 A 
ATOM      8  C   UNL     1      48.785   7.760  11.463  0.00  0.00    +0.000 A 
BRANCH   3  10
ATOM      9  N   UNL     1      52.295   7.854  12.223  0.00  0.00    +0.000 N 
ATOM     10  C   UNL     1      51.138   8.460  11.814  0.00  0.00    +0.000 C 
ATOM     11  O   UNL     1      51.157   9.388  11.020  0.00  0.00    +0.000 OA
ATOM     12  H   UNL     1      53.146   8.167  11.771  0.00  0.00    +0.000 HD
ATOM     13  H   UNL     1      52.301   6.937  12.646  0.00  0.00    +0.000 HD
ENDBRANCH   3  10
ENDBRANCH   1   6
BRANCH   1  14
ATOM     14  C   UNL     1      45.038   6.140  12.813  0.00  0.00    +0.000 C 
BRANCH  14  15
ATOM     15  C   UNL     1      44.631   4.787  12.272  0.00  0.00    +0.000 A 
ATOM     16  C   UNL     1      43.905   3.917  13.082  0.00  0.00    +0.000 A 
ATOM     17  N   UNL     1      43.385   2.760  12.630  0.00  0.00    +0.000 NA
ATOM     18  C   UNL     1      43.631   2.505  11.321  0.00  0.00    +0.000 A 
ATOM     19  C   UNL     1      44.368   3.342  10.469  0.00  0.00    +0.000 A 
ATOM     20  N   UNL     1      44.880   4.496  10.958  0.00  0.00    +0.000 NA
BRANCH  19  21
ATOM     21  N   UNL     1      44.589   2.987   9.153  0.00  0.00    +0.000 N 
ATOM     22  C   UNL     1      44.889   1.598   8.797  0.00  0.00    +0.000 C 
ATOM     23  C   UNL     1      46.286   1.461   8.179  0.00  0.00    +0.000 C 
ATOM     24  O   UNL     1      46.489   2.397   7.106  0.00  0.00    +0.000 OA
ATOM     25  C   UNL     1      46.359   3.738   7.600  0.00  0.00    +0.000 C 
ATOM     26  C   UNL     1      44.951   4.000   8.156  0.00  0.00    +0.000 C 
ENDBRANCH  19  21
ENDBRANCH  14  15
ENDBRANCH   1  14
TORSDOF 5
ENDMDL
MODEL 6
REMARK VINA RESULT:    -6.682      4.557      7.881
REMARK INTER + INTRA:          -9.316
REMARK INTER:                  -8.731
REMARK INTRA:                  -0.585
REMARK UNBOUND:                -0.681
REMARK  Name = 
REMARK  5 active torsions:
REMARK  status: ('A' for Active; 'I' for Inactive)
REMARK    1  A    between atoms: C_2  and  C_4
REMARK    2  A    between atoms: C_7  and  N_8
REMARK    3  A    between atoms: N_8  and  C_9
REMARK    4  A    between atoms: C_9  and  C_10
REMARK    5  A    between atoms: C_14  and  N_15
REMARK                            x       y       z     vdW  Elec       q    Type
REMARK                         _______ _______ _______ _____ _____    ______ ____
ROOT
ATOM      1  N   UNL     1      48.267   5.590  16.436  0.00  0.00    +0.000 N 
ATOM      2  H   UNL     1      47.278   5.459  16.613  0.00  0.00    +0.000 HD
ENDROOT
BRANCH   1   6
ATOM      3  C   UNL     1      50.947   2.484  17.395  0.00  0.00    +0.000 A 
ATOM      4  C   UNL     1      49.667   2.172  16.932  0.00  0.00    +0.000 A 
ATOM      5  C   UNL     1      48.754   3.193  16.648  0.00  0.00    +0.000 A 
ATOM      6  C   UNL     1      49.086   4.541  16.826  0.00  0.00    +0.000 A 
ATOM      7  C   UNL     1      50.373   4.834  17.305  0.00  0.00    +0.000 A 
ATOM      8  C   UNL     1      51.292   3.821  17.602  0.00  0.00    +0.000 A 
BRANCH   3  10
ATOM      9  N   UNL     1      51.491   0.237  18.153  0.00  0.00    +0.000 N 
ATOM     10  C   UNL     1      51.958   1.433  17.677  0.00  0.00    +0.000 C 
ATOM     11  O   UNL     1      53.147   1.603  17.452  0.00  0.00    +0.000 OA
ATOM     12  H   UNL     1      52.173  -0.508  18.229  0.00  0.00    +0.000 HD
ATOM     13  H   UNL     1      50.518  -0.023  18.088  0.00  0.00    +0.000 HD
ENDBRANCH   3  10
ENDBRANCH   1   6
BRANCH   1  14
ATOM     14  C   UNL     1      48.618   6.559  15.403  0.00  0.00    +0.000 C 
BRANCH  14  15
ATOM     15  C   UNL     1      47.777   6.464  14.148  0.00  0.00    +0.000 A 
ATOM     16  C   UNL     1      48.154   7.183  13.016  0.00  0.00    +0.000 A 
ATOM     17  N   UNL     1      47.543   7.042  11.824  0.00  0.00    +0.000 NA
ATOM     18  C   UNL     1      46.524   6.146  11.816  0.00  0.00    +0.000 A 
ATOM     19  C   UNL     1      46.098   5.409  12.932  0.00  0.00    +0.000 A 
ATOM     20  N   UNL     1      46.733   5.579  14.116  0.00  0.00    +0.000 NA
BRANCH  19  21
ATOM     21  N   UNL     1      45.034   4.537  12.834  0.00  0.00    +0.000 N 
ATOM     22  C   UNL     1      45.196   3.233  12.187  0.00  0.00    +0.000 C 
ATOM     23  C   UNL     1      44.316   3.106  10.937  0.00  0.00    +0.000 C 
ATOM     24  O   UNL     1      42.948   3.457  11.210  0.00  0.00    +0.000 OA
ATOM     25  C   UNL     1      42.876   4.818  11.660  0.00  0.00    +0.000 C 
ATOM     26  C   UNL     1      43.655   5.022  12.969  0.00  0.00    +0.000 C 
ENDBRANCH  19  21
ENDBRANCH  14  15
ENDBRANCH   1  14
TORSDOF 5
ENDMDL
MODEL 7
REMARK VINA RESULT:    -6.519      5.166      8.296
REMARK INTER + INTRA:          -9.106
REMARK INTER:                  -8.610
REMARK INTRA:                  -0.497
REMARK UNBOUND:                -0.681
REMARK  Name = 
REMARK  5 active torsions:
REMARK  status: ('A' for Active; 'I' for Inactive)
REMARK    1  A    between atoms: C_2  and  C_4
REMARK    2  A    between atoms: C_7  and  N_8
REMARK    3  A    between atoms: N_8  and  C_9
REMARK    4  A    between atoms: C_9  and  C_10
REMARK    5  A    between atoms: C_14  and  N_15
REMARK                            x       y       z     vdW  Elec       q    Type
REMARK                         _______ _______ _______ _____ _____    ______ ____
ROOT
ATOM      1  N   UNL     1      48.526   4.258  17.211  0.00  0.00    +0.000 N 
ATOM      2  H   UNL     1      48.317   4.873  17.988  0.00  0.00    +0.000 HD
ENDROOT
BRANCH   1   6
ATOM      3  C   UNL     1      52.026   1.972  17.733  0.00  0.00    +0.000 A 
ATOM      4  C   UNL     1      52.051   3.341  18.003  0.00  0.00    +0.000 A 
ATOM      5  C   UNL     1      50.906   4.119  17.796  0.00  0.00    +0.000 A 
ATOM      6  C   UNL     1      49.720   3.559  17.309  0.00  0.00    +0.000 A 
ATOM      7  C   UNL     1      49.719   2.183  17.029  0.00  0.00    +0.000 A 
ATOM      8  C   UNL     1      50.861   1.396  17.224  0.00  0.00    +0.000 A 
BRANCH   3  10
ATOM      9  N   UNL     1      53.488   0.165  17.012  0.00  0.00    +0.000 N 
ATOM     10  C   UNL     1      53.207   1.103  17.970  0.00  0.00    +0.000 C 
ATOM     11  O   UNL     1      53.928   1.244  18.946  0.00  0.00    +0.000 OA
ATOM     12  H   UNL     1      54.359  -0.339  17.125  0.00  0.00    +0.000 HD
ATOM     13  H   UNL     1      53.088   0.207  16.087  0.00  0.00    +0.000 HD
ENDBRANCH   3  10
ENDBRANCH   1   6
BRANCH   1  14
ATOM     14  C   UNL     1      47.390   3.823  16.405  0.00  0.00    +0.000 C 
BRANCH  14  15
ATOM     15  C   UNL     1      47.156   4.651  15.160  0.00  0.00    +0.000 A 
ATOM     16  C   UNL     1      48.115   5.581  14.767  0.00  0.00    +0.000 A 
ATOM     17  N   UNL     1      48.049   6.252  13.601  0.00  0.00    +0.000 NA
ATOM     18  C   UNL     1      46.967   5.953  12.839  0.00  0.00    +0.000 A 
ATOM     19  C   UNL     1      45.968   5.034  13.197  0.00  0.00    +0.000 A 
ATOM     20  N   UNL     1      46.064   4.381  14.380  0.00  0.00    +0.000 NA
BRANCH  19  21
ATOM     21  N   UNL     1      44.888   4.812  12.367  0.00  0.00    +0.000 N 
ATOM     22  C   UNL     1      43.680   4.157  12.875  0.00  0.00    +0.000 C 
ATOM     23  C   UNL     1      43.418   2.824  12.164  0.00  0.00    +0.000 C 
ATOM     24  O   UNL     1      43.447   2.967  10.733  0.00  0.00    +0.000 OA
ATOM     25  C   UNL     1      44.738   3.437  10.318  0.00  0.00    +0.000 C 
ATOM     26  C   UNL     1      45.051   4.821  10.909  0.00  0.00    +0.000 C 
ENDBRANCH  19  21
ENDBRANCH  14  15
ENDBRANCH   1  14
TORSDOF 5
ENDMDL
MODEL 8
REMARK VINA RESULT:    -6.496      4.054      6.078
REMARK INTER + INTRA:          -9.077
REMARK INTER:                  -8.508
REMARK INTRA:                  -0.569
REMARK UNBOUND:                -0.681
REMARK  Name = 
REMARK  5 active torsions:
REMARK  status: ('A' for Active; 'I' for Inactive)
REMARK    1  A    between atoms: C_2  and  C_4
REMARK    2  A    between atoms: C_7  and  N_8
REMARK    3  A    between atoms: N_8  and  C_9
REMARK    4  A    between atoms: C_9  and  C_10
REMARK    5  A    between atoms: C_14  and  N_15
REMARK                            x       y       z     vdW  Elec       q    Type
REMARK                         _______ _______ _______ _____ _____    ______ ____
ROOT
ATOM      1  N   UNL     1      46.979   7.326  13.688  0.00  0.00    +0.000 N 
ATOM      2  H   UNL     1      46.482   8.202  13.803  0.00  0.00    +0.000 HD
ENDROOT
BRANCH   1   6
ATOM      3  C   UNL     1      44.924   4.725  11.089  0.00  0.00    +0.000 A 
ATOM      4  C   UNL     1      44.924   4.469  12.461  0.00  0.00    +0.000 A 
ATOM      5  C   UNL     1      45.635   5.303  13.332  0.00  0.00    +0.000 A 
ATOM      6  C   UNL     1      46.368   6.398  12.859  0.00  0.00    +0.000 A 
ATOM      7  C   UNL     1      46.367   6.630  11.474  0.00  0.00    +0.000 A 
ATOM      8  C   UNL     1      45.667   5.797  10.593  0.00  0.00    +0.000 A 
BRANCH   3  10
ATOM      9  N   UNL     1      44.102   4.317   8.836  0.00  0.00    +0.000 N 
ATOM     10  C   UNL     1      44.156   3.886  10.134  0.00  0.00    +0.000 C 
ATOM     11  O   UNL     1      43.635   2.834  10.473  0.00  0.00    +0.000 OA
ATOM     12  H   UNL     1      43.679   3.680   8.172  0.00  0.00    +0.000 HD
ATOM     13  H   UNL     1      44.737   5.014   8.475  0.00  0.00    +0.000 HD
ENDBRANCH   3  10
ENDBRANCH   1   6
BRANCH   1  14
ATOM     14  C   UNL     1      48.412   7.354  13.967  0.00  0.00    +0.000 C 
BRANCH  14  15
ATOM     15  C   UNL     1      48.770   7.082  15.412  0.00  0.00    +0.000 A 
ATOM     16  C   UNL     1      48.836   8.143  16.312  0.00  0.00    +0.000 A 
ATOM     17  N   UNL     1      49.007   7.969  17.636  0.00  0.00    +0.000 NA
ATOM     18  C   UNL     1      49.118   6.674  18.024  0.00  0.00    +0.000 A 
ATOM     19  C   UNL     1      49.073   5.572  17.156  0.00  0.00    +0.000 A 
ATOM     20  N   UNL     1      48.903   5.785  15.829  0.00  0.00    +0.000 NA
BRANCH  19  21
ATOM     21  N   UNL     1      49.220   4.289  17.640  0.00  0.00    +0.000 N 
ATOM     22  C   UNL     1      50.500   3.843  18.195  0.00  0.00    +0.000 C 
ATOM     23  C   UNL     1      51.102   2.693  17.379  0.00  0.00    +0.000 C 
ATOM     24  O   UNL     1      50.154   1.632  17.172  0.00  0.00    +0.000 OA
ATOM     25  C   UNL     1      49.016   2.130  16.453  0.00  0.00    +0.000 C 
ATOM     26  C   UNL     1      48.286   3.228  17.243  0.00  0.00    +0.000 C 
ENDBRANCH  19  21
ENDBRANCH  14  15
ENDBRANCH   1  14
TORSDOF 5
ENDMDL
MODEL 9
REMARK VINA RESULT:    -5.881      4.063      8.451
REMARK INTER + INTRA:          -8.281
REMARK INTER:                  -7.802
REMARK INTRA:                  -0.479
REMARK UNBOUND:                -0.681
REMARK  Name = 
REMARK  5 active torsions:
REMARK  status: ('A' for Active; 'I' for Inactive)
REMARK    1  A    between atoms: C_2  and  C_4
REMARK    2  A    between atoms: C_7  and  N_8
REMARK    3  A    between atoms: N_8  and  C_9
REMARK    4  A    between atoms: C_9  and  C_10
REMARK    5  A    between atoms: C_14  and  N_15
REMARK                            x       y       z     vdW  Elec       q    Type
REMARK                         _______ _______ _______ _____ _____    ______ ____
ROOT
ATOM      1  N   UNL     1      48.176   7.020  14.925  0.00  0.00    +0.000 N 
ATOM      2  H   UNL     1      47.648   7.879  15.028  0.00  0.00    +0.000 HD
ENDROOT
BRANCH   1   6
ATOM      3  C   UNL     1      49.269   5.286  18.604  0.00  0.00    +0.000 A 
ATOM      4  C   UNL     1      49.681   6.586  18.306  0.00  0.00    +0.000 A 
ATOM      5  C   UNL     1      49.359   7.159  17.071  0.00  0.00    +0.000 A 
ATOM      6  C   UNL     1      48.632   6.454  16.106  0.00  0.00    +0.000 A 
ATOM      7  C   UNL     1      48.240   5.143  16.419  0.00  0.00    +0.000 A 
ATOM      8  C   UNL     1      48.564   4.555  17.647  0.00  0.00    +0.000 A 
BRANCH   3  10
ATOM      9  N   UNL     1      48.597   3.829  20.433  0.00  0.00    +0.000 N 
ATOM     10  C   UNL     1      49.562   4.651  19.915  0.00  0.00    +0.000 C 
ATOM     11  O   UNL     1      50.630   4.811  20.486  0.00  0.00    +0.000 OA
ATOM     12  H   UNL     1      48.853   3.310  21.265  0.00  0.00    +0.000 HD
ATOM     13  H   UNL     1      47.842   3.466  19.870  0.00  0.00    +0.000 HD
ENDBRANCH   3  10
ENDBRANCH   1   6
BRANCH   1  14
ATOM     14  C   UNL     1      47.958   6.271  13.691  0.00  0.00    +0.000 C 
BRANCH  14  15
ATOM     15  C   UNL     1      46.685   6.634  12.958  0.00  0.00    +0.000 A 
ATOM     16  C   UNL     1      46.310   7.971  12.858  0.00  0.00    +0.000 A 
ATOM     17  N   UNL     1      45.273   8.386  12.106  0.00  0.00    +0.000 NA
ATOM     18  C   UNL     1      44.616   7.393  11.456  0.00  0.00    +0.000 A 
ATOM     19  C   UNL     1      44.946   6.031  11.535  0.00  0.00    +0.000 A 
ATOM     20  N   UNL     1      45.993   5.650  12.305  0.00  0.00    +0.000 NA
BRANCH  19  21
ATOM     21  N   UNL     1      44.203   5.088  10.856  0.00  0.00    +0.000 N 
ATOM     22  C   UNL     1      43.076   4.417  11.507  0.00  0.00    +0.000 C 
ATOM     23  C   UNL     1      43.309   2.906  11.629  0.00  0.00    +0.000 C 
ATOM     24  O   UNL     1      43.690   2.321  10.372  0.00  0.00    +0.000 OA
ATOM     25  C   UNL     1      44.911   2.916   9.909  0.00  0.00    +0.000 C 
ATOM     26  C   UNL     1      44.746   4.425   9.665  0.00  0.00    +0.000 C 
ENDBRANCH  19  21
ENDBRANCH  14  15
ENDBRANCH   1  14
TORSDOF 5
ENDMDL
