MODEL 1
REMARK VINA RESULT:    -7.598      0.000      0.000
REMARK INTER + INTRA:          -9.955
REMARK INTER:                  -9.597
REMARK INTRA:                  -0.358
REMARK UNBOUND:                -0.358
REMARK  Name = 
REMARK  6 active torsions:
REMARK  status: ('A' for Active; 'I' for Inactive)
REMARK    1  A    between atoms: C_1  and  O_2
REMARK    2  A    between atoms: O_2  and  C_3
REMARK    3  A    between atoms: N_9  and  C_10
REMARK    4  A    between atoms: C_10  and  C_11
REMARK    5  A    between atoms: C_15  and  C_16
REMARK    6  A    between atoms: C_16  and  N_17
REMARK                            x       y       z     vdW  Elec       q    Type
REMARK                         _______ _______ _______ _____ _____    ______ ____
ROOT
ATOM      1  C   UNL     1      46.784   6.431  12.131  0.00  0.00    +0.000 A 
ATOM      2  C   UNL     1      46.608   6.017  13.455  0.00  0.00    +0.000 A 
ATOM      3  C   UNL     1      45.712   4.982  13.770  0.00  0.00    +0.000 A 
ATOM      4  C   UNL     1      44.995   4.361  12.739  0.00  0.00    +0.000 A 
ATOM      5  N   UNL     1      44.081   3.339  12.802  0.00  0.00    +0.000 NA
ATOM      6  C   UNL     1      43.714   3.131  11.558  0.00  0.00    +0.000 A 
ATOM      7  N   UNL     1      44.345   3.984  10.690  0.00  0.00    +0.000 N 
ATOM      8  C   UNL     1      45.180   4.791  11.428  0.00  0.00    +0.000 A 
ATOM      9  C   UNL     1      46.061   5.826  11.094  0.00  0.00    +0.000 A 
ENDROOT
BRANCH   1  11
ATOM     10  C   UNL     1      48.991   7.314  12.129  0.00  0.00    +0.000 C 
ATOM     11  O   UNL     1      47.637   7.417  11.710  0.00  0.00    +0.000 OA
ENDBRANCH   1  11
BRANCH   7  12
ATOM     12  C   UNL     1      44.114   4.044   9.257  0.00  0.00    +0.000 C 
BRANCH  12  13
ATOM     13  C   UNL     1      45.024   3.100   8.513  0.00  0.00    +0.000 A 
ATOM     14  C   UNL     1      45.183   1.776   8.943  0.00  0.00    +0.000 A 
ATOM     15  C   UNL     1      46.080   0.927   8.295  0.00  0.00    +0.000 A 
ATOM     16  C   UNL     1      46.840   1.393   7.221  0.00  0.00    +0.000 A 
ATOM     17  C   UNL     1      46.699   2.710   6.770  0.00  0.00    +0.000 A 
ATOM     18  C   UNL     1      45.775   3.548   7.413  0.00  0.00    +0.000 A 
BRANCH  17  19
ATOM     19  C   UNL     1      47.566   3.244   5.658  0.00  0.00    +0.000 C 
BRANCH  19  20
ATOM     20  N   UNL     1      48.415   2.209   5.080  0.00  0.00    +0.000 NA
ATOM     21  H   UNL     1      48.715   1.580   5.821  0.00  0.00    +0.000 HD
ATOM     22  H   UNL     1      49.260   2.645   4.714  0.00  0.00    +0.000 HD
ENDBRANCH  19  20
ENDBRANCH  17  19
ENDBRANCH  12  13
ENDBRANCH   7  12
TORSDOF 5
ENDMDL
MODEL 2
REMARK VINA RESULT:    -7.567      2.462      5.970
REMARK INTER + INTRA:          -9.916
REMARK INTER:                  -9.428
REMARK INTRA:                  -0.489
REMARK UNBOUND:                -0.358
REMARK  Name = 
REMARK  6 active torsions:
REMARK  status: ('A' for Active; 'I' for Inactive)
REMARK    1  A    between atoms: C_1  and  O_2
REMARK    2  A    between atoms: O_2  and  C_3
REMARK    3  A    between atoms: N_9  and  C_10
REMARK    4  A    between atoms: C_10  and  C_11
REMARK    5  A    between atoms: C_15  and  C_16
REMARK    6  A    between atoms: C_16  and  N_17
REMARK                            x       y       z     vdW  Elec       q    Type
REMARK                         _______ _______ _______ _____ _____    ______ ____
ROOT
ATOM      1  C   UNL     1      45.826   3.583   7.957  0.00  0.00    +0.000 A 
ATOM      2  C   UNL     1      45.333   2.278   8.052  0.00  0.00    +0.000 A 
ATOM      3  C   UNL     1      44.496   1.902   9.115  0.00  0.00    +0.000 A 
ATOM      4  C   UNL     1      44.152   2.855  10.084  0.00  0.00    +0.000 A 
ATOM      5  N   UNL     1      43.356   2.724  11.193  0.00  0.00    +0.000 NA
ATOM      6  C   UNL     1      43.357   3.912  11.756  0.00  0.00    +0.000 A 
ATOM      7  N   UNL     1      44.130   4.805  11.062  0.00  0.00    +0.000 N 
ATOM      8  C   UNL     1      44.657   4.147   9.975  0.00  0.00    +0.000 A 
ATOM      9  C   UNL     1      45.499   4.540   8.928  0.00  0.00    +0.000 A 
ENDROOT
BRANCH   1  11
ATOM     10  C   UNL     1      46.923   3.173   5.888  0.00  0.00    +0.000 C 
ATOM     11  O   UNL     1      46.636   4.060   6.960  0.00  0.00    +0.000 OA
ENDBRANCH   1  11
BRANCH   7  12
ATOM     12  C   UNL     1      44.379   6.182  11.456  0.00  0.00    +0.000 C 
BRANCH  12  13
ATOM     13  C   UNL     1      45.663   6.305  12.237  0.00  0.00    +0.000 A 
ATOM     14  C   UNL     1      46.665   7.194  11.824  0.00  0.00    +0.000 A 
ATOM     15  C   UNL     1      47.880   7.253  12.508  0.00  0.00    +0.000 A 
ATOM     16  C   UNL     1      48.114   6.417  13.600  0.00  0.00    +0.000 A 
ATOM     17  C   UNL     1      47.129   5.523  14.035  0.00  0.00    +0.000 A 
ATOM     18  C   UNL     1      45.901   5.490  13.356  0.00  0.00    +0.000 A 
BRANCH  17  19
ATOM     19  C   UNL     1      47.398   4.567  15.170  0.00  0.00    +0.000 C 
BRANCH  19  20
ATOM     20  N   UNL     1      47.521   3.189  14.708  0.00  0.00    +0.000 NA
ATOM     21  H   UNL     1      46.592   2.778  14.654  0.00  0.00    +0.000 HD
ATOM     22  H   UNL     1      48.032   2.654  15.408  0.00  0.00    +0.000 HD
ENDBRANCH  19  20
ENDBRANCH  17  19
ENDBRANCH  12  13
ENDBRANCH   7  12
TORSDOF 5
ENDMDL
MODEL 3
REMARK VINA RESULT:    -7.060      2.462      5.665
REMARK INTER + INTRA:          -9.276
REMARK INTER:                  -8.689
REMARK INTRA:                  -0.586
REMARK UNBOUND:                -0.358
REMARK  Name = 
REMARK  6 active torsions:
REMARK  status: ('A' for Active; 'I' for Inactive)
REMARK    1  A    between atoms: C_1  and  O_2
REMARK    2  A    between atoms: O_2  and  C_3
REMARK    3  A    between atoms: N_9  and  C_10
REMARK    4  A    between atoms: C_10  and  C_11
REMARK    5  A    between atoms: C_15  and  C_16
REMARK    6  A    between atoms: C_16  and  N_17
REMARK                            x       y       z     vdW  Elec       q    Type
REMARK                         _______ _______ _______ _____ _____    ______ ____
ROOT
ATOM      1  C   UNL     1      45.837   3.558   7.957  0.00  0.00    +0.000 A 
ATOM      2  C   UNL     1      45.279   2.280   8.051  0.00  0.00    +0.000 A 
ATOM      3  C   UNL     1      44.438   1.940   9.123  0.00  0.00    +0.000 A 
ATOM      4  C   UNL     1      44.157   2.903  10.102  0.00  0.00    +0.000 A 
ATOM      5  N   UNL     1      43.370   2.806  11.222  0.00  0.00    +0.000 NA
ATOM      6  C   UNL     1      43.440   3.988  11.792  0.00  0.00    +0.000 A 
ATOM      7  N   UNL     1      44.249   4.845  11.093  0.00  0.00    +0.000 N 
ATOM      8  C   UNL     1      44.726   4.168   9.995  0.00  0.00    +0.000 A 
ATOM      9  C   UNL     1      45.574   4.523   8.938  0.00  0.00    +0.000 A 
ENDROOT
BRANCH   1  11
ATOM     10  C   UNL     1      46.879   3.108   5.868  0.00  0.00    +0.000 C 
ATOM     11  O   UNL     1      46.657   4.000   6.952  0.00  0.00    +0.000 OA
ENDBRANCH   1  11
BRANCH   7  12
ATOM     12  C   UNL     1      44.575   6.203  11.492  0.00  0.00    +0.000 C 
BRANCH  12  13
ATOM     13  C   UNL     1      45.937   6.276  12.133  0.00  0.00    +0.000 A 
ATOM     14  C   UNL     1      46.168   5.691  13.385  0.00  0.00    +0.000 A 
ATOM     15  C   UNL     1      47.410   5.822  14.007  0.00  0.00    +0.000 A 
ATOM     16  C   UNL     1      48.431   6.549  13.394  0.00  0.00    +0.000 A 
ATOM     17  C   UNL     1      48.228   7.141  12.142  0.00  0.00    +0.000 A 
ATOM     18  C   UNL     1      46.983   6.981  11.514  0.00  0.00    +0.000 A 
BRANCH  17  19
ATOM     19  C   UNL     1      49.300   7.988  11.503  0.00  0.00    +0.000 C 
BRANCH  19  20
ATOM     20  N   UNL     1      50.636   7.603  11.942  0.00  0.00    +0.000 NA
ATOM     21  H   UNL     1      50.602   6.651  12.300  0.00  0.00    +0.000 HD
ATOM     22  H   UNL     1      50.906   8.194  12.727  0.00  0.00    +0.000 HD
ENDBRANCH  19  20
ENDBRANCH  17  19
ENDBRANCH  12  13
ENDBRANCH   7  12
TORSDOF 5
ENDMDL
MODEL 4
REMARK VINA RESULT:    -6.955      2.106      2.980
REMARK INTER + INTRA:          -9.143
REMARK INTER:                  -8.593
REMARK INTRA:                  -0.550
REMARK UNBOUND:                -0.358
REMARK  Name = 
REMARK  6 active torsions:
REMARK  status: ('A' for Active; 'I' for Inactive)
REMARK    1  A    between atoms: C_1  and  O_2
REMARK    2  A    between atoms: O_2  and  C_3
REMARK    3  A    between atoms: N_9  and  C_10
REMARK    4  A    between atoms: C_10  and  C_11
REMARK    5  A    between atoms: C_15  and  C_16
REMARK    6  A    between atoms: C_16  and  N_17
REMARK                            x       y       z     vdW  Elec       q    Type
REMARK                         _______ _______ _______ _____ _____    ______ ____
ROOT
ATOM      1  C   UNL     1      47.038   4.622  14.096  0.00  0.00    +0.000 A 
ATOM      2  C   UNL     1      47.750   5.813  14.270  0.00  0.00    +0.000 A 
ATOM      3  C   UNL     1      47.386   6.975  13.571  0.00  0.00    +0.000 A 
ATOM      4  C   UNL     1      46.292   6.932  12.696  0.00  0.00    +0.000 A 
ATOM      5  N   UNL     1      45.754   7.929  11.921  0.00  0.00    +0.000 NA
ATOM      6  C   UNL     1      44.743   7.367  11.297  0.00  0.00    +0.000 A 
ATOM      7  N   UNL     1      44.609   6.045  11.628  0.00  0.00    +0.000 N 
ATOM      8  C   UNL     1      45.599   5.737  12.532  0.00  0.00    +0.000 A 
ATOM      9  C   UNL     1      45.952   4.565  13.212  0.00  0.00    +0.000 A 
ENDROOT
BRANCH   1  11
ATOM     10  C   UNL     1      47.575   3.506  16.125  0.00  0.00    +0.000 C 
ATOM     11  O   UNL     1      47.297   3.437  14.733  0.00  0.00    +0.000 OA
ENDBRANCH   1  11
BRANCH   7  12
ATOM     12  C   UNL     1      43.625   5.135  11.067  0.00  0.00    +0.000 C 
BRANCH  12  13
ATOM     13  C   UNL     1      44.261   4.157  10.112  0.00  0.00    +0.000 A 
ATOM     14  C   UNL     1      44.048   2.780  10.255  0.00  0.00    +0.000 A 
ATOM     15  C   UNL     1      44.696   1.875   9.414  0.00  0.00    +0.000 A 
ATOM     16  C   UNL     1      45.575   2.332   8.432  0.00  0.00    +0.000 A 
ATOM     17  C   UNL     1      45.803   3.703   8.266  0.00  0.00    +0.000 A 
ATOM     18  C   UNL     1      45.127   4.606   9.101  0.00  0.00    +0.000 A 
BRANCH  17  19
ATOM     19  C   UNL     1      46.805   4.203   7.255  0.00  0.00    +0.000 C 
BRANCH  19  20
ATOM     20  N   UNL     1      46.807   3.397   6.040  0.00  0.00    +0.000 NA
ATOM     21  H   UNL     1      46.917   4.014   5.239  0.00  0.00    +0.000 HD
ATOM     22  H   UNL     1      45.894   2.956   5.938  0.00  0.00    +0.000 HD
ENDBRANCH  19  20
ENDBRANCH  17  19
ENDBRANCH  12  13
ENDBRANCH   7  12
TORSDOF 5
ENDMDL
MODEL 5
REMARK VINA RESULT:    -6.859      1.420      2.108
REMARK INTER + INTRA:          -9.022
REMARK INTER:                  -8.441
REMARK INTRA:                  -0.581
REMARK UNBOUND:                -0.358
REMARK  Name = 
REMARK  6 active torsions:
REMARK  status: ('A' for Active; 'I' for Inactive)
REMARK    1  A    between atoms: C_1  and  O_2
REMARK    2  A    between atoms: O_2  and  C_3
REMARK    3  A    between atoms: N_9  and  C_10
REMARK    4  A    between atoms: C_10  and  C_11
REMARK    5  A    between atoms: C_15  and  C_16
REMARK    6  A    between atoms: C_16  and  N_17
REMARK                            x       y       z     vdW  Elec       q    Type
REMARK                         _______ _______ _______ _____ _____    ______ ____
ROOT
ATOM      1  C   UNL     1      47.753   7.125  12.243  0.00  0.00    +0.000 A 
ATOM      2  C   UNL     1      47.962   6.735  13.569  0.00  0.00    +0.000 A 
ATOM      3  C   UNL     1      47.198   5.708  14.145  0.00  0.00    +0.000 A 
ATOM      4  C   UNL     1      46.219   5.069  13.371  0.00  0.00    +0.000 A 
ATOM      5  N   UNL     1      45.366   4.049  13.711  0.00  0.00    +0.000 NA
ATOM      6  C   UNL     1      44.660   3.819  12.626  0.00  0.00    +0.000 A 
ATOM      7  N   UNL     1      45.015   4.655  11.600  0.00  0.00    +0.000 N 
ATOM      8  C   UNL     1      46.021   5.474  12.055  0.00  0.00    +0.000 A 
ATOM      9  C   UNL     1      46.767   6.502  11.465  0.00  0.00    +0.000 A 
ENDROOT
BRANCH   1  11
ATOM     10  C   UNL     1      48.165   9.446  11.942  0.00  0.00    +0.000 C 
ATOM     11  O   UNL     1      48.447   8.102  11.578  0.00  0.00    +0.000 OA
ENDBRANCH   1  11
BRANCH   7  12
ATOM     12  C   UNL     1      44.384   4.689  10.291  0.00  0.00    +0.000 C 
BRANCH  12  13
ATOM     13  C   UNL     1      45.229   3.990   9.256  0.00  0.00    +0.000 A 
ATOM     14  C   UNL     1      45.923   4.726   8.286  0.00  0.00    +0.000 A 
ATOM     15  C   UNL     1      46.645   4.073   7.288  0.00  0.00    +0.000 A 
ATOM     16  C   UNL     1      46.671   2.679   7.236  0.00  0.00    +0.000 A 
ATOM     17  C   UNL     1      45.989   1.920   8.193  0.00  0.00    +0.000 A 
ATOM     18  C   UNL     1      45.287   2.587   9.209  0.00  0.00    +0.000 A 
BRANCH  17  19
ATOM     19  C   UNL     1      45.953   0.415   8.105  0.00  0.00    +0.000 C 
BRANCH  19  20
ATOM     20  N   UNL     1      47.244  -0.143   7.718  0.00  0.00    +0.000 NA
ATOM     21  H   UNL     1      47.338  -0.078   6.707  0.00  0.00    +0.000 HD
ATOM     22  H   UNL     1      47.251  -1.137   7.943  0.00  0.00    +0.000 HD
ENDBRANCH  19  20
ENDBRANCH  17  19
ENDBRANCH  12  13
ENDBRANCH   7  12
TORSDOF 5
ENDMDL
MODEL 6
REMARK VINA RESULT:    -6.557      2.323      2.824
REMARK INTER + INTRA:          -8.640
REMARK INTER:                  -8.105
REMARK INTRA:                  -0.536
REMARK UNBOUND:                -0.358
REMARK  Name = 
REMARK  6 active torsions:
REMARK  status: ('A' for Active; 'I' for Inactive)
REMARK    1  A    between atoms: C_1  and  O_2
REMARK    2  A    between atoms: O_2  and  C_3
REMARK    3  A    between atoms: N_9  and  C_10
REMARK    4  A    between atoms: C_10  and  C_11
REMARK    5  A    between atoms: C_15  and  C_16
REMARK    6  A    between atoms: C_16  and  N_17
REMARK                            x       y       z     vdW  Elec       q    Type
REMARK                         _______ _______ _______ _____ _____    ______ ____
ROOT
ATOM      1  C   UNL     1      44.907   9.146  11.692  0.00  0.00    +0.000 A 
ATOM      2  C   UNL     1      45.917   9.228  12.655  0.00  0.00    +0.000 A 
ATOM      3  C   UNL     1      46.473   8.065  13.213  0.00  0.00    +0.000 A 
ATOM      4  C   UNL     1      46.006   6.814  12.789  0.00  0.00    +0.000 A 
ATOM      5  N   UNL     1      46.396   5.558  13.181  0.00  0.00    +0.000 NA
ATOM      6  C   UNL     1      45.652   4.734  12.478  0.00  0.00    +0.000 A 
ATOM      7  N   UNL     1      44.789   5.405  11.652  0.00  0.00    +0.000 N 
ATOM      8  C   UNL     1      44.997   6.753  11.834  0.00  0.00    +0.000 A 
ATOM      9  C   UNL     1      44.424   7.900  11.272  0.00  0.00    +0.000 A 
ENDROOT
BRANCH   1  11
ATOM     10  C   UNL     1      43.010   9.989  10.534  0.00  0.00    +0.000 C 
ATOM     11  O   UNL     1      44.305  10.211  11.074  0.00  0.00    +0.000 OA
ENDBRANCH   1  11
BRANCH   7  12
ATOM     12  C   UNL     1      43.798   4.782  10.789  0.00  0.00    +0.000 C 
BRANCH  12  13
ATOM     13  C   UNL     1      44.443   3.846   9.799  0.00  0.00    +0.000 A 
ATOM     14  C   UNL     1      44.283   2.459   9.921  0.00  0.00    +0.000 A 
ATOM     15  C   UNL     1      44.940   1.595   9.045  0.00  0.00    +0.000 A 
ATOM     16  C   UNL     1      45.775   2.102   8.049  0.00  0.00    +0.000 A 
ATOM     17  C   UNL     1      45.950   3.483   7.904  0.00  0.00    +0.000 A 
ATOM     18  C   UNL     1      45.264   4.344   8.774  0.00  0.00    +0.000 A 
BRANCH  17  19
ATOM     19  C   UNL     1      46.904   4.038   6.877  0.00  0.00    +0.000 C 
BRANCH  19  20
ATOM     20  N   UNL     1      47.187   3.078   5.816  0.00  0.00    +0.000 NA
ATOM     21  H   UNL     1      47.232   2.146   6.221  0.00  0.00    +0.000 HD
ATOM     22  H   UNL     1      48.113   3.271   5.438  0.00  0.00    +0.000 HD
ENDBRANCH  19  20
ENDBRANCH  17  19
ENDBRANCH  12  13
ENDBRANCH   7  12
TORSDOF 5
ENDMDL
MODEL 7
REMARK VINA RESULT:    -6.114      1.833      2.716
REMARK INTER + INTRA:          -8.081
REMARK INTER:                  -7.620
REMARK INTRA:                  -0.461
REMARK UNBOUND:                -0.358
REMARK  Name = 
REMARK  6 active torsions:
REMARK  status: ('A' for Active; 'I' for Inactive)
REMARK    1  A    between atoms: C_1  and  O_2
REMARK    2  A    between atoms: O_2  and  C_3
REMARK    3  A    between atoms: N_9  and  C_10
REMARK    4  A    between atoms: C_10  and  C_11
REMARK    5  A    between atoms: C_15  and  C_16
REMARK    6  A    between atoms: C_16  and  N_17
REMARK                            x       y       z     vdW  Elec       q    Type
REMARK                         _______ _______ _______ _____ _____    ______ ____
ROOT
ATOM      1  C   UNL     1      46.891   4.882  13.595  0.00  0.00    +0.000 A 
ATOM      2  C   UNL     1      46.862   6.252  13.868  0.00  0.00    +0.000 A 
ATOM      3  C   UNL     1      45.958   7.097  13.204  0.00  0.00    +0.000 A 
ATOM      4  C   UNL     1      45.076   6.549  12.262  0.00  0.00    +0.000 A 
ATOM      5  N   UNL     1      44.114   7.167  11.503  0.00  0.00    +0.000 NA
ATOM      6  C   UNL     1      43.570   6.205  10.792  0.00  0.00    +0.000 A 
ATOM      7  N   UNL     1      44.147   4.989  11.052  0.00  0.00    +0.000 N 
ATOM      8  C   UNL     1      45.125   5.184  12.000  0.00  0.00    +0.000 A 
ATOM      9  C   UNL     1      46.024   4.326  12.645  0.00  0.00    +0.000 A 
ENDROOT
BRANCH   1  11
ATOM     10  C   UNL     1      47.582   3.796  15.594  0.00  0.00    +0.000 C 
ATOM     11  O   UNL     1      47.720   3.967  14.191  0.00  0.00    +0.000 OA
ENDBRANCH   1  11
BRANCH   7  12
ATOM     12  C   UNL     1      43.807   3.741  10.389  0.00  0.00    +0.000 C 
BRANCH  12  13
ATOM     13  C   UNL     1      44.840   3.370   9.356  0.00  0.00    +0.000 A 
ATOM     14  C   UNL     1      45.361   4.339   8.488  0.00  0.00    +0.000 A 
ATOM     15  C   UNL     1      46.262   3.977   7.486  0.00  0.00    +0.000 A 
ATOM     16  C   UNL     1      46.643   2.644   7.330  0.00  0.00    +0.000 A 
ATOM     17  C   UNL     1      46.141   1.657   8.186  0.00  0.00    +0.000 A 
ATOM     18  C   UNL     1      45.254   2.036   9.205  0.00  0.00    +0.000 A 
BRANCH  17  19
ATOM     19  C   UNL     1      46.491   0.204   7.981  0.00  0.00    +0.000 C 
BRANCH  19  20
ATOM     20  N   UNL     1      46.853  -0.082   6.598  0.00  0.00    +0.000 NA
ATOM     21  H   UNL     1      46.910   0.795   6.086  0.00  0.00    +0.000 HD
ATOM     22  H   UNL     1      46.101  -0.617   6.166  0.00  0.00    +0.000 HD
ENDBRANCH  19  20
ENDBRANCH  17  19
ENDBRANCH  12  13
ENDBRANCH   7  12
TORSDOF 5
ENDMDL
MODEL 8
REMARK VINA RESULT:    -5.699      2.951      5.125
REMARK INTER + INTRA:          -7.556
REMARK INTER:                  -7.041
REMARK INTRA:                  -0.514
REMARK UNBOUND:                -0.358
REMARK  Name = 
REMARK  6 active torsions:
REMARK  status: ('A' for Active; 'I' for Inactive)
REMARK    1  A    between atoms: C_1  and  O_2
REMARK    2  A    between atoms: O_2  and  C_3
REMARK    3  A    between atoms: N_9  and  C_10
REMARK    4  A    between atoms: C_10  and  C_11
REMARK    5  A    between atoms: C_15  and  C_16
REMARK    6  A    between atoms: C_16  and  N_17
REMARK                            x       y       z     vdW  Elec       q    Type
REMARK                         _______ _______ _______ _____ _____    ______ ____
ROOT
ATOM      1  C   UNL     1      45.672   9.844  12.192  0.00  0.00    +0.000 A 
ATOM      2  C   UNL     1      46.877  10.419  11.779  0.00  0.00    +0.000 A 
ATOM      3  C   UNL     1      48.074   9.686  11.821  0.00  0.00    +0.000 A 
ATOM      4  C   UNL     1      48.049   8.362  12.281  0.00  0.00    +0.000 A 
ATOM      5  N   UNL     1      49.075   7.460  12.405  0.00  0.00    +0.000 NA
ATOM      6  C   UNL     1      48.516   6.368  12.874  0.00  0.00    +0.000 A 
ATOM      7  N   UNL     1      47.169   6.527  13.070  0.00  0.00    +0.000 N 
ATOM      8  C   UNL     1      46.840   7.809  12.693  0.00  0.00    +0.000 A 
ATOM      9  C   UNL     1      45.638   8.526  12.667  0.00  0.00    +0.000 A 
ENDROOT
BRANCH   1  11
ATOM     10  C   UNL     1      44.255  11.483  11.214  0.00  0.00    +0.000 C 
ATOM     11  O   UNL     1      44.448  10.461  12.181  0.00  0.00    +0.000 OA
ENDBRANCH   1  11
BRANCH   7  12
ATOM     12  C   UNL     1      46.279   5.525  13.630  0.00  0.00    +0.000 C 
BRANCH  12  13
ATOM     13  C   UNL     1      45.172   5.175  12.669  0.00  0.00    +0.000 A 
ATOM     14  C   UNL     1      43.832   5.407  13.008  0.00  0.00    +0.000 A 
ATOM     15  C   UNL     1      42.808   5.015  12.146  0.00  0.00    +0.000 A 
ATOM     16  C   UNL     1      43.107   4.375  10.943  0.00  0.00    +0.000 A 
ATOM     17  C   UNL     1      44.436   4.134  10.578  0.00  0.00    +0.000 A 
ATOM     18  C   UNL     1      45.460   4.554  11.441  0.00  0.00    +0.000 A 
BRANCH  17  19
ATOM     19  C   UNL     1      44.767   3.380   9.315  0.00  0.00    +0.000 C 
BRANCH  19  20
ATOM     20  N   UNL     1      44.655   1.936   9.492  0.00  0.00    +0.000 NA
ATOM     21  H   UNL     1      44.037   1.751  10.279  0.00  0.00    +0.000 HD
ATOM     22  H   UNL     1      45.568   1.567   9.751  0.00  0.00    +0.000 HD
ENDBRANCH  19  20
ENDBRANCH  17  19
ENDBRANCH  12  13
ENDBRANCH   7  12
TORSDOF 5
ENDMDL
MODEL 9
REMARK VINA RESULT:    -5.685      2.166      3.350
REMARK INTER + INTRA:          -7.538
REMARK INTER:                  -7.081
REMARK INTRA:                  -0.457
REMARK UNBOUND:                -0.358
REMARK  Name = 
REMARK  6 active torsions:
REMARK  status: ('A' for Active; 'I' for Inactive)
REMARK    1  A    between atoms: C_1  and  O_2
REMARK    2  A    between atoms: O_2  and  C_3
REMARK    3  A    between atoms: N_9  and  C_10
REMARK    4  A    between atoms: C_10  and  C_11
REMARK    5  A    between atoms: C_15  and  C_16
REMARK    6  A    between atoms: C_16  and  N_17
REMARK                            x       y       z     vdW  Elec       q    Type
REMARK                         _______ _______ _______ _____ _____    ______ ____
ROOT
ATOM      1  C   UNL     1      48.331   9.219  12.462  0.00  0.00    +0.000 A 
ATOM      2  C   UNL     1      49.325   8.703  13.299  0.00  0.00    +0.000 A 
ATOM      3  C   UNL     1      49.237   7.391  13.793  0.00  0.00    +0.000 A 
ATOM      4  C   UNL     1      48.140   6.597  13.432  0.00  0.00    +0.000 A 
ATOM      5  N   UNL     1      47.846   5.303  13.781  0.00  0.00    +0.000 NA
ATOM      6  C   UNL     1      46.712   5.035  13.173  0.00  0.00    +0.000 A 
ATOM      7  N   UNL     1      46.253   6.106  12.452  0.00  0.00    +0.000 N 
ATOM      8  C   UNL     1      47.158   7.131  12.603  0.00  0.00    +0.000 A 
ATOM      9  C   UNL     1      47.223   8.439  12.107  0.00  0.00    +0.000 A 
ENDROOT
BRANCH   1  11
ATOM     10  C   UNL     1      47.067  10.970  11.468  0.00  0.00    +0.000 C 
ATOM     11  O   UNL     1      48.321  10.476  11.915  0.00  0.00    +0.000 OA
ENDBRANCH   1  11
BRANCH   7  12
ATOM     12  C   UNL     1      45.001   6.146  11.715  0.00  0.00    +0.000 C 
BRANCH  12  13
ATOM     13  C   UNL     1      44.906   5.009  10.731  0.00  0.00    +0.000 A 
ATOM     14  C   UNL     1      44.156   3.864  11.034  0.00  0.00    +0.000 A 
ATOM     15  C   UNL     1      44.130   2.785  10.151  0.00  0.00    +0.000 A 
ATOM     16  C   UNL     1      44.861   2.828   8.964  0.00  0.00    +0.000 A 
ATOM     17  C   UNL     1      45.616   3.960   8.635  0.00  0.00    +0.000 A 
ATOM     18  C   UNL     1      45.616   5.050   9.519  0.00  0.00    +0.000 A 
BRANCH  17  19
ATOM     19  C   UNL     1      46.466   3.988   7.390  0.00  0.00    +0.000 C 
BRANCH  19  20
ATOM     20  N   UNL     1      46.857   2.650   6.963  0.00  0.00    +0.000 NA
ATOM     21  H   UNL     1      47.626   2.332   7.548  0.00  0.00    +0.000 HD
ATOM     22  H   UNL     1      47.223   2.703   6.013  0.00  0.00    +0.000 HD
ENDBRANCH  19  20
ENDBRANCH  17  19
ENDBRANCH  12  13
ENDBRANCH   7  12
TORSDOF 5
ENDMDL
