MODEL 1
REMARK VINA RESULT:    -7.644      0.000      0.000
REMARK INTER + INTRA:          -9.953
REMARK INTER:                  -9.431
REMARK INTRA:                  -0.522
REMARK UNBOUND:                -0.522
REMARK  Name = 
REMARK  4 active torsions:
REMARK  status: ('A' for Active; 'I' for Inactive)
REMARK    1  A    between atoms: C_2  and  C_4
REMARK    2  A    between atoms: C_7  and  O_8
REMARK    3  A    between atoms: O_8  and  C_9
REMARK    4  A    between atoms: C_9  and  C_10
REMARK                            x       y       z     vdW  Elec       q    Type
REMARK                         _______ _______ _______ _____ _____    ______ ____
ROOT
ATOM      1  C   UNL     1      46.403   2.470   7.719  0.00  0.00    +0.000 A 
ATOM      2  C   UNL     1      45.590   1.790   8.628  0.00  0.00    +0.000 A 
ATOM      3  C   UNL     1      44.668   2.512   9.390  0.00  0.00    +0.000 A 
ATOM      4  C   UNL     1      44.611   3.888   9.232  0.00  0.00    +0.000 A 
ATOM      5  N   UNL     1      45.390   4.571   8.367  0.00  0.00    +0.000 NA
ATOM      6  C   UNL     1      46.272   3.849   7.633  0.00  0.00    +0.000 A 
ENDROOT
BRANCH   1   8
ATOM      7  N   UNL     1      48.482   2.541   6.462  0.00  0.00    +0.000 N 
ATOM      8  C   UNL     1      47.402   1.804   6.859  0.00  0.00    +0.000 C 
ATOM      9  O   UNL     1      47.289   0.626   6.542  0.00  0.00    +0.000 OA
ATOM     10  H   UNL     1      49.210   2.037   5.971  0.00  0.00    +0.000 HD
ATOM     11  H   UNL     1      48.737   3.413   6.902  0.00  0.00    +0.000 HD
ENDBRANCH   1   8
BRANCH   4  12
ATOM     12  O   UNL     1      43.683   4.569   9.993  0.00  0.00    +0.000 OA
BRANCH  12  13
ATOM     13  C   UNL     1      43.638   4.072  11.335  0.00  0.00    +0.000 C 
BRANCH  13  14
ATOM     14  C   UNL     1      44.778   4.621  12.166  0.00  0.00    +0.000 A 
ATOM     15  C   UNL     1      45.623   3.733  12.850  0.00  0.00    +0.000 A 
ATOM     16  C   UNL     1      46.738   4.203  13.546  0.00  0.00    +0.000 A 
ATOM     17  C   UNL     1      47.024   5.566  13.562  0.00  0.00    +0.000 A 
ATOM     18  C   UNL     1      46.197   6.458  12.882  0.00  0.00    +0.000 A 
ATOM     19  C   UNL     1      45.080   5.990  12.184  0.00  0.00    +0.000 A 
ENDBRANCH  13  14
ENDBRANCH  12  13
ENDBRANCH   4  12
TORSDOF 4
ENDMDL
MODEL 2
REMARK VINA RESULT:    -7.468      2.640      6.011
REMARK INTER + INTRA:          -9.736
REMARK INTER:                  -9.269
REMARK INTRA:                  -0.468
REMARK UNBOUND:                -0.522
REMARK  Name = 
REMARK  4 active torsions:
REMARK  status: ('A' for Active; 'I' for Inactive)
REMARK    1  A    between atoms: C_2  and  C_4
REMARK    2  A    between atoms: C_7  and  O_8
REMARK    3  A    between atoms: O_8  and  C_9
REMARK    4  A    between atoms: C_9  and  C_10
REMARK                            x       y       z     vdW  Elec       q    Type
REMARK                         _______ _______ _______ _____ _____    ______ ____
ROOT
ATOM      1  C   UNL     1      46.381   4.853  13.100  0.00  0.00    +0.000 A 
ATOM      2  C   UNL     1      46.179   5.807  12.101  0.00  0.00    +0.000 A 
ATOM      3  C   UNL     1      45.427   5.465  10.975  0.00  0.00    +0.000 A 
ATOM      4  C   UNL     1      44.928   4.176  10.877  0.00  0.00    +0.000 A 
ATOM      5  N   UNL     1      45.114   3.231  11.824  0.00  0.00    +0.000 NA
ATOM      6  C   UNL     1      45.841   3.588  12.912  0.00  0.00    +0.000 A 
ENDROOT
BRANCH   1   8
ATOM      7  N   UNL     1      46.752   4.466  15.471  0.00  0.00    +0.000 N 
ATOM      8  C   UNL     1      47.149   5.112  14.335  0.00  0.00    +0.000 C 
ATOM      9  O   UNL     1      48.128   5.849  14.335  0.00  0.00    +0.000 OA
ATOM     10  H   UNL     1      47.358   4.566  16.277  0.00  0.00    +0.000 HD
ATOM     11  H   UNL     1      46.127   3.673  15.456  0.00  0.00    +0.000 HD
ENDBRANCH   1   8
BRANCH   4  12
ATOM     12  O   UNL     1      44.182   3.874   9.756  0.00  0.00    +0.000 OA
BRANCH  12  13
ATOM     13  C   UNL     1      44.416   2.531   9.317  0.00  0.00    +0.000 C 
BRANCH  13  14
ATOM     14  C   UNL     1      45.538   2.468   8.303  0.00  0.00    +0.000 A 
ATOM     15  C   UNL     1      46.280   1.284   8.168  0.00  0.00    +0.000 A 
ATOM     16  C   UNL     1      47.257   1.164   7.178  0.00  0.00    +0.000 A 
ATOM     17  C   UNL     1      47.499   2.223   6.308  0.00  0.00    +0.000 A 
ATOM     18  C   UNL     1      46.765   3.403   6.426  0.00  0.00    +0.000 A 
ATOM     19  C   UNL     1      45.786   3.525   7.417  0.00  0.00    +0.000 A 
ENDBRANCH  13  14
ENDBRANCH  12  13
ENDBRANCH   4  12
TORSDOF 4
ENDMDL
MODEL 3
REMARK VINA RESULT:    -7.019      2.631      6.006
REMARK INTER + INTRA:          -9.181
REMARK INTER:                  -8.743
REMARK INTRA:                  -0.438
REMARK UNBOUND:                -0.522
REMARK  Name = 
REMARK  4 active torsions:
REMARK  status: ('A' for Active; 'I' for Inactive)
REMARK    1  A    between atoms: C_2  and  C_4
REMARK    2  A    between atoms: C_7  and  O_8
REMARK    3  A    between atoms: O_8  and  C_9
REMARK    4  A    between atoms: C_9  and  C_10
REMARK                            x       y       z     vdW  Elec       q    Type
REMARK                         _______ _______ _______ _____ _____    ______ ____
ROOT
ATOM      1  C   UNL     1      46.898   5.351  13.095  0.00  0.00    +0.000 A 
ATOM      2  C   UNL     1      46.355   4.078  13.272  0.00  0.00    +0.000 A 
ATOM      3  C   UNL     1      45.477   3.572  12.311  0.00  0.00    +0.000 A 
ATOM      4  C   UNL     1      45.156   4.368  11.222  0.00  0.00    +0.000 A 
ATOM      5  N   UNL     1      45.661   5.605  11.030  0.00  0.00    +0.000 NA
ATOM      6  C   UNL     1      46.516   6.073  11.972  0.00  0.00    +0.000 A 
ENDROOT
BRANCH   1   8
ATOM      7  N   UNL     1      47.598   5.810  15.377  0.00  0.00    +0.000 N 
ATOM      8  C   UNL     1      47.842   5.977  14.044  0.00  0.00    +0.000 C 
ATOM      9  O   UNL     1      48.828   6.591  13.653  0.00  0.00    +0.000 OA
ATOM     10  H   UNL     1      48.315   6.147  16.009  0.00  0.00    +0.000 HD
ATOM     11  H   UNL     1      46.959   5.113  15.730  0.00  0.00    +0.000 HD
ENDBRANCH   1   8
BRANCH   4  12
ATOM     12  O   UNL     1      44.293   3.834  10.286  0.00  0.00    +0.000 OA
BRANCH  12  13
ATOM     13  C   UNL     1      44.617   4.276   8.963  0.00  0.00    +0.000 C 
BRANCH  13  14
ATOM     14  C   UNL     1      45.458   3.255   8.229  0.00  0.00    +0.000 A 
ATOM     15  C   UNL     1      46.254   3.665   7.148  0.00  0.00    +0.000 A 
ATOM     16  C   UNL     1      47.113   2.767   6.512  0.00  0.00    +0.000 A 
ATOM     17  C   UNL     1      47.190   1.449   6.954  0.00  0.00    +0.000 A 
ATOM     18  C   UNL     1      46.411   1.028   8.031  0.00  0.00    +0.000 A 
ATOM     19  C   UNL     1      45.551   1.927   8.669  0.00  0.00    +0.000 A 
ENDBRANCH  13  14
ENDBRANCH  12  13
ENDBRANCH   4  12
TORSDOF 4
ENDMDL
MODEL 4
REMARK VINA RESULT:    -6.822      2.687      6.092
REMARK INTER + INTRA:          -8.939
REMARK INTER:                  -8.448
REMARK INTRA:                  -0.491
REMARK UNBOUND:                -0.522
REMARK  Name = 
REMARK  4 active torsions:
REMARK  status: ('A' for Active; 'I' for Inactive)
REMARK    1  A    between atoms: C_2  and  C_4
REMARK    2  A    between atoms: C_7  and  O_8
REMARK    3  A    between atoms: O_8  and  C_9
REMARK    4  A    between atoms: C_9  and  C_10
REMARK                            x       y       z     vdW  Elec       q    Type
REMARK                         _______ _______ _______ _____ _____    ______ ____
ROOT
ATOM      1  C   UNL     1      44.458   6.970  11.277  0.00  0.00    +0.000 A 
ATOM      2  C   UNL     1      45.727   6.401  11.396  0.00  0.00    +0.000 A 
ATOM      3  C   UNL     1      45.874   5.022  11.229  0.00  0.00    +0.000 A 
ATOM      4  C   UNL     1      44.744   4.261  10.976  0.00  0.00    +0.000 A 
ATOM      5  N   UNL     1      43.504   4.784  10.864  0.00  0.00    +0.000 NA
ATOM      6  C   UNL     1      43.386   6.125  11.023  0.00  0.00    +0.000 A 
ENDROOT
BRANCH   1   8
ATOM      7  N   UNL     1      43.029   8.899  10.898  0.00  0.00    +0.000 N 
ATOM      8  C   UNL     1      44.193   8.416  11.425  0.00  0.00    +0.000 C 
ATOM      9  O   UNL     1      44.967   9.149  12.029  0.00  0.00    +0.000 OA
ATOM     10  H   UNL     1      42.811   9.866  11.107  0.00  0.00    +0.000 HD
ATOM     11  H   UNL     1      42.264   8.299  10.626  0.00  0.00    +0.000 HD
ENDBRANCH   1   8
BRANCH   4  12
ATOM     12  O   UNL     1      44.925   2.903  10.807  0.00  0.00    +0.000 OA
BRANCH  12  13
ATOM     13  C   UNL     1      44.421   2.460   9.543  0.00  0.00    +0.000 C 
BRANCH  13  14
ATOM     14  C   UNL     1      45.501   2.466   8.483  0.00  0.00    +0.000 A 
ATOM     15  C   UNL     1      46.231   1.293   8.235  0.00  0.00    +0.000 A 
ATOM     16  C   UNL     1      47.167   1.241   7.201  0.00  0.00    +0.000 A 
ATOM     17  C   UNL     1      47.378   2.358   6.398  0.00  0.00    +0.000 A 
ATOM     18  C   UNL     1      46.656   3.528   6.628  0.00  0.00    +0.000 A 
ATOM     19  C   UNL     1      45.718   3.582   7.663  0.00  0.00    +0.000 A 
ENDBRANCH  13  14
ENDBRANCH  12  13
ENDBRANCH   4  12
TORSDOF 4
ENDMDL
MODEL 5
REMARK VINA RESULT:    -6.606      2.789      6.282
REMARK INTER + INTRA:          -8.672
REMARK INTER:                  -8.321
REMARK INTRA:                  -0.351
REMARK UNBOUND:                -0.522
REMARK  Name = 
REMARK  4 active torsions:
REMARK  status: ('A' for Active; 'I' for Inactive)
REMARK    1  A    between atoms: C_2  and  C_4
REMARK    2  A    between atoms: C_7  and  O_8
REMARK    3  A    between atoms: O_8  and  C_9
REMARK    4  A    between atoms: C_9  and  C_10
REMARK                            x       y       z     vdW  Elec       q    Type
REMARK                         _______ _______ _______ _____ _____    ______ ____
ROOT
ATOM      1  C   UNL     1      46.531   6.843  12.448  0.00  0.00    +0.000 A 
ATOM      2  C   UNL     1      46.585   6.740  11.057  0.00  0.00    +0.000 A 
ATOM      3  C   UNL     1      45.904   5.698  10.423  0.00  0.00    +0.000 A 
ATOM      4  C   UNL     1      45.216   4.784  11.206  0.00  0.00    +0.000 A 
ATOM      5  N   UNL     1      45.153   4.855  12.553  0.00  0.00    +0.000 NA
ATOM      6  C   UNL     1      45.816   5.879  13.145  0.00  0.00    +0.000 A 
ENDROOT
BRANCH   1   8
ATOM      7  N   UNL     1      46.419   8.739  13.964  0.00  0.00    +0.000 N 
ATOM      8  C   UNL     1      47.205   7.909  13.216  0.00  0.00    +0.000 C 
ATOM      9  O   UNL     1      48.425   8.025  13.214  0.00  0.00    +0.000 OA
ATOM     10  H   UNL     1      46.905   9.388  14.571  0.00  0.00    +0.000 HD
ATOM     11  H   UNL     1      45.460   8.522  14.191  0.00  0.00    +0.000 HD
ENDBRANCH   1   8
BRANCH   4  12
ATOM     12  O   UNL     1      44.546   3.773  10.547  0.00  0.00    +0.000 OA
BRANCH  12  13
ATOM     13  C   UNL     1      44.435   4.043   9.146  0.00  0.00    +0.000 C 
BRANCH  13  14
ATOM     14  C   UNL     1      45.334   3.134   8.335  0.00  0.00    +0.000 A 
ATOM     15  C   UNL     1      46.067   3.666   7.263  0.00  0.00    +0.000 A 
ATOM     16  C   UNL     1      46.975   2.875   6.558  0.00  0.00    +0.000 A 
ATOM     17  C   UNL     1      47.165   1.544   6.920  0.00  0.00    +0.000 A 
ATOM     18  C   UNL     1      46.448   1.003   7.986  0.00  0.00    +0.000 A 
ATOM     19  C   UNL     1      45.539   1.794   8.694  0.00  0.00    +0.000 A 
ENDBRANCH  13  14
ENDBRANCH  12  13
ENDBRANCH   4  12
TORSDOF 4
ENDMDL
MODEL 6
REMARK VINA RESULT:    -5.477      3.920      5.977
REMARK INTER + INTRA:          -7.279
REMARK INTER:                  -7.006
REMARK INTRA:                  -0.273
REMARK UNBOUND:                -0.522
REMARK  Name = 
REMARK  4 active torsions:
REMARK  status: ('A' for Active; 'I' for Inactive)
REMARK    1  A    between atoms: C_2  and  C_4
REMARK    2  A    between atoms: C_7  and  O_8
REMARK    3  A    between atoms: O_8  and  C_9
REMARK    4  A    between atoms: C_9  and  C_10
REMARK                            x       y       z     vdW  Elec       q    Type
REMARK                         _______ _______ _______ _____ _____    ______ ____
ROOT
ATOM      1  C   UNL     1      44.885   4.305  11.913  0.00  0.00    +0.000 A 
ATOM      2  C   UNL     1      45.267   5.578  12.340  0.00  0.00    +0.000 A 
ATOM      3  C   UNL     1      46.235   5.699  13.340  0.00  0.00    +0.000 A 
ATOM      4  C   UNL     1      46.766   4.544  13.892  0.00  0.00    +0.000 A 
ATOM      5  N   UNL     1      46.410   3.301  13.503  0.00  0.00    +0.000 NA
ATOM      6  C   UNL     1      45.474   3.207  12.527  0.00  0.00    +0.000 A 
ENDROOT
BRANCH   1   8
ATOM      7  N   UNL     1      43.975   4.807   9.716  0.00  0.00    +0.000 N 
ATOM      8  C   UNL     1      43.880   4.063  10.858  0.00  0.00    +0.000 C 
ATOM      9  O   UNL     1      43.016   3.203  10.983  0.00  0.00    +0.000 OA
ATOM     10  H   UNL     1      43.351   4.549   8.961  0.00  0.00    +0.000 HD
ATOM     11  H   UNL     1      44.804   5.330   9.474  0.00  0.00    +0.000 HD
ENDBRANCH   1   8
BRANCH   4  12
ATOM     12  O   UNL     1      47.727   4.699  14.871  0.00  0.00    +0.000 OA
BRANCH  12  13
ATOM     13  C   UNL     1      47.498   3.817  15.975  0.00  0.00    +0.000 C 
BRANCH  13  14
ATOM     14  C   UNL     1      48.158   4.328  17.237  0.00  0.00    +0.000 A 
ATOM     15  C   UNL     1      47.390   5.023  18.185  0.00  0.00    +0.000 A 
ATOM     16  C   UNL     1      47.947   5.423  19.400  0.00  0.00    +0.000 A 
ATOM     17  C   UNL     1      49.278   5.127  19.686  0.00  0.00    +0.000 A 
ATOM     18  C   UNL     1      50.051   4.432  18.757  0.00  0.00    +0.000 A 
ATOM     19  C   UNL     1      49.494   4.030  17.540  0.00  0.00    +0.000 A 
ENDBRANCH  13  14
ENDBRANCH  12  13
ENDBRANCH   4  12
TORSDOF 4
ENDMDL
MODEL 7
REMARK VINA RESULT:    -5.342      5.554      8.334
REMARK INTER + INTRA:          -7.113
REMARK INTER:                  -6.753
REMARK INTRA:                  -0.360
REMARK UNBOUND:                -0.522
REMARK  Name = 
REMARK  4 active torsions:
REMARK  status: ('A' for Active; 'I' for Inactive)
REMARK    1  A    between atoms: C_2  and  C_4
REMARK    2  A    between atoms: C_7  and  O_8
REMARK    3  A    between atoms: O_8  and  C_9
REMARK    4  A    between atoms: C_9  and  C_10
REMARK                            x       y       z     vdW  Elec       q    Type
REMARK                         _______ _______ _______ _____ _____    ______ ____
ROOT
ATOM      1  C   UNL     1      48.468   4.435  18.214  0.00  0.00    +0.000 A 
ATOM      2  C   UNL     1      48.450   5.433  17.238  0.00  0.00    +0.000 A 
ATOM      3  C   UNL     1      47.891   5.155  15.989  0.00  0.00    +0.000 A 
ATOM      4  C   UNL     1      47.394   3.883  15.753  0.00  0.00    +0.000 A 
ATOM      5  N   UNL     1      47.405   2.897  16.675  0.00  0.00    +0.000 NA
ATOM      6  C   UNL     1      47.947   3.191  17.883  0.00  0.00    +0.000 A 
ENDROOT
BRANCH   1   8
ATOM      7  N   UNL     1      48.460   3.911  20.587  0.00  0.00    +0.000 N 
ATOM      8  C   UNL     1      49.025   4.625  19.568  0.00  0.00    +0.000 C 
ATOM      9  O   UNL     1      49.981   5.365  19.768  0.00  0.00    +0.000 OA
ATOM     10  H   UNL     1      48.927   3.967  21.484  0.00  0.00    +0.000 HD
ATOM     11  H   UNL     1      47.857   3.118  20.427  0.00  0.00    +0.000 HD
ENDBRANCH   1   8
BRANCH   4  12
ATOM     12  O   UNL     1      46.840   3.645  14.512  0.00  0.00    +0.000 OA
BRANCH  12  13
ATOM     13  C   UNL     1      46.588   4.865  13.807  0.00  0.00    +0.000 C 
BRANCH  13  14
ATOM     14  C   UNL     1      45.345   4.763  12.950  0.00  0.00    +0.000 A 
ATOM     15  C   UNL     1      44.945   3.510  12.461  0.00  0.00    +0.000 A 
ATOM     16  C   UNL     1      43.753   3.369  11.748  0.00  0.00    +0.000 A 
ATOM     17  C   UNL     1      42.944   4.480  11.521  0.00  0.00    +0.000 A 
ATOM     18  C   UNL     1      43.325   5.730  12.006  0.00  0.00    +0.000 A 
ATOM     19  C   UNL     1      44.519   5.872  12.721  0.00  0.00    +0.000 A 
ENDBRANCH  13  14
ENDBRANCH  12  13
ENDBRANCH   4  12
TORSDOF 4
ENDMDL
MODEL 8
REMARK VINA RESULT:    -5.122      2.629      3.760
REMARK INTER + INTRA:          -6.842
REMARK INTER:                  -6.322
REMARK INTRA:                  -0.519
REMARK UNBOUND:                -0.522
REMARK  Name = 
REMARK  4 active torsions:
REMARK  status: ('A' for Active; 'I' for Inactive)
REMARK    1  A    between atoms: C_2  and  C_4
REMARK    2  A    between atoms: C_7  and  O_8
REMARK    3  A    between atoms: O_8  and  C_9
REMARK    4  A    between atoms: C_9  and  C_10
REMARK                            x       y       z     vdW  Elec       q    Type
REMARK                         _______ _______ _______ _____ _____    ______ ____
ROOT
ATOM      1  C   UNL     1      45.030   3.288   9.913  0.00  0.00    +0.000 A 
ATOM      2  C   UNL     1      45.365   4.549   9.416  0.00  0.00    +0.000 A 
ATOM      3  C   UNL     1      45.419   5.634  10.293  0.00  0.00    +0.000 A 
ATOM      4  C   UNL     1      45.112   5.424  11.628  0.00  0.00    +0.000 A 
ATOM      5  N   UNL     1      44.778   4.218  12.134  0.00  0.00    +0.000 NA
ATOM      6  C   UNL     1      44.738   3.178  11.266  0.00  0.00    +0.000 A 
ENDROOT
BRANCH   1   8
ATOM      7  N   UNL     1      46.062   1.733   8.356  0.00  0.00    +0.000 N 
ATOM      8  C   UNL     1      44.953   2.073   9.077  0.00  0.00    +0.000 C 
ATOM      9  O   UNL     1      43.946   1.374   9.057  0.00  0.00    +0.000 OA
ATOM     10  H   UNL     1      46.030   0.839   7.881  0.00  0.00    +0.000 HD
ATOM     11  H   UNL     1      46.972   2.129   8.540  0.00  0.00    +0.000 HD
ENDBRANCH   1   8
BRANCH   4  12
ATOM     12  O   UNL     1      45.185   6.517  12.469  0.00  0.00    +0.000 OA
BRANCH  12  13
ATOM     13  C   UNL     1      46.363   6.475  13.282  0.00  0.00    +0.000 C 
BRANCH  13  14
ATOM     14  C   UNL     1      47.436   7.399  12.748  0.00  0.00    +0.000 A 
ATOM     15  C   UNL     1      48.709   6.884  12.460  0.00  0.00    +0.000 A 
ATOM     16  C   UNL     1      49.690   7.690  11.878  0.00  0.00    +0.000 A 
ATOM     17  C   UNL     1      49.406   9.019  11.572  0.00  0.00    +0.000 A 
ATOM     18  C   UNL     1      48.144   9.542  11.847  0.00  0.00    +0.000 A 
ATOM     19  C   UNL     1      47.160   8.736  12.429  0.00  0.00    +0.000 A 
ENDBRANCH  13  14
ENDBRANCH  12  13
ENDBRANCH   4  12
TORSDOF 4
ENDMDL
MODEL 9
REMARK VINA RESULT:    -4.973      3.918      6.090
REMARK INTER + INTRA:          -6.658
REMARK INTER:                  -6.313
REMARK INTRA:                  -0.345
REMARK UNBOUND:                -0.522
REMARK  Name = 
REMARK  4 active torsions:
REMARK  status: ('A' for Active; 'I' for Inactive)
REMARK    1  A    between atoms: C_2  and  C_4
REMARK    2  A    between atoms: C_7  and  O_8
REMARK    3  A    between atoms: O_8  and  C_9
REMARK    4  A    between atoms: C_9  and  C_10
REMARK                            x       y       z     vdW  Elec       q    Type
REMARK                         _______ _______ _______ _____ _____    ______ ____
ROOT
ATOM      1  C   UNL     1      44.477   5.318  12.139  0.00  0.00    +0.000 A 
ATOM      2  C   UNL     1      45.022   4.823  13.325  0.00  0.00    +0.000 A 
ATOM      3  C   UNL     1      46.365   5.074  13.614  0.00  0.00    +0.000 A 
ATOM      4  C   UNL     1      47.119   5.788  12.695  0.00  0.00    +0.000 A 
ATOM      5  N   UNL     1      46.619   6.271  11.537  0.00  0.00    +0.000 NA
ATOM      6  C   UNL     1      45.312   6.021  11.281  0.00  0.00    +0.000 A 
ENDROOT
BRANCH   1   8
ATOM      7  N   UNL     1      42.245   6.209  11.772  0.00  0.00    +0.000 N 
ATOM      8  C   UNL     1      43.068   5.119  11.741  0.00  0.00    +0.000 C 
ATOM      9  O   UNL     1      42.659   4.028  11.361  0.00  0.00    +0.000 OA
ATOM     10  H   UNL     1      41.317   6.079  11.388  0.00  0.00    +0.000 HD
ATOM     11  H   UNL     1      42.596   7.154  11.830  0.00  0.00    +0.000 HD
ENDBRANCH   1   8
BRANCH   4  12
ATOM     12  O   UNL     1      48.440   6.026  13.016  0.00  0.00    +0.000 OA
BRANCH  12  13
ATOM     13  C   UNL     1      48.600   7.286  13.677  0.00  0.00    +0.000 C 
BRANCH  13  14
ATOM     14  C   UNL     1      49.003   8.374  12.705  0.00  0.00    +0.000 A 
ATOM     15  C   UNL     1      48.122   9.437  12.455  0.00  0.00    +0.000 A 
ATOM     16  C   UNL     1      48.504  10.503  11.638  0.00  0.00    +0.000 A 
ATOM     17  C   UNL     1      49.774  10.520  11.067  0.00  0.00    +0.000 A 
ATOM     18  C   UNL     1      50.662   9.474  11.312  0.00  0.00    +0.000 A 
ATOM     19  C   UNL     1      50.281   8.407  12.130  0.00  0.00    +0.000 A 
ENDBRANCH  13  14
ENDBRANCH  12  13
ENDBRANCH   4  12
TORSDOF 4
ENDMDL
