MODEL 1
REMARK VINA RESULT:    -8.667      0.000      0.000
REMARK INTER + INTRA:         -11.971
REMARK INTER:                 -11.200
REMARK INTRA:                  -0.771
REMARK UNBOUND:                -0.771
REMARK  Name = 
REMARK  5 active torsions:
REMARK  status: ('A' for Active; 'I' for Inactive)
REMARK    1  A    between atoms: C_2  and  C_4
REMARK    2  A    between atoms: C_7  and  N_8
REMARK    3  A    between atoms: N_8  and  C_9
REMARK    4  A    between atoms: C_9  and  C_10
REMARK    5  A    between atoms: C_12  and  C_13
REMARK                            x       y       z     vdW  Elec       q    Type
REMARK                         _______ _______ _______ _____ _____    ______ ____
ROOT
ATOM      1  N   UNL     1      43.716   4.785   9.942  0.00  0.00    +0.000 N 
ATOM      2  H   UNL     1      43.473   5.605   9.399  0.00  0.00    +0.000 HD
ENDROOT
BRANCH   1   6
ATOM      3  C   UNL     1      46.356   2.273   7.818  0.00  0.00    +0.000 A 
ATOM      4  C   UNL     1      45.485   1.717   8.758  0.00  0.00    +0.000 A 
ATOM      5  C   UNL     1      44.623   2.542   9.494  0.00  0.00    +0.000 A 
ATOM      6  C   UNL     1      44.622   3.932   9.328  0.00  0.00    +0.000 A 
ATOM      7  C   UNL     1      45.503   4.470   8.375  0.00  0.00    +0.000 A 
ATOM      8  C   UNL     1      46.371   3.656   7.636  0.00  0.00    +0.000 A 
BRANCH   3  10
ATOM      9  N   UNL     1      48.404   2.043   6.521  0.00  0.00    +0.000 N 
ATOM     10  C   UNL     1      47.282   1.436   7.015  0.00  0.00    +0.000 C 
ATOM     11  O   UNL     1      47.079   0.242   6.831  0.00  0.00    +0.000 OA
ATOM     12  H   UNL     1      49.076   1.438   6.066  0.00  0.00    +0.000 HD
ATOM     13  H   UNL     1      48.732   2.934   6.866  0.00  0.00    +0.000 HD
ENDBRANCH   3  10
ENDBRANCH   1   6
BRANCH   1  14
ATOM     14  C   UNL     1      43.598   4.939  11.389  0.00  0.00    +0.000 C 
BRANCH  14  15
ATOM     15  C   UNL     1      44.926   5.115  12.105  0.00  0.00    +0.000 A 
ATOM     16  C   UNL     1      45.766   6.186  11.785  0.00  0.00    +0.000 A 
ATOM     17  C   UNL     1      46.951   6.401  12.508  0.00  0.00    +0.000 A 
ATOM     18  C   UNL     1      47.233   5.496  13.539  0.00  0.00    +0.000 A 
ATOM     19  C   UNL     1      46.356   4.451  13.791  0.00  0.00    +0.000 A 
ATOM     20  N   UNL     1      45.214   4.247  13.105  0.00  0.00    +0.000 NA
BRANCH  17  21
ATOM     21  C   UNL     1      47.857   7.531  12.199  0.00  0.00    +0.000 A 
ATOM     22  C   UNL     1      49.227   7.350  11.956  0.00  0.00    +0.000 A 
ATOM     23  C   UNL     1      50.052   8.436  11.660  0.00  0.00    +0.000 A 
ATOM     24  C   UNL     1      49.486   9.696  11.604  0.00  0.00    +0.000 A 
ATOM     25  N   UNL     1      48.180   9.931  11.833  0.00  0.00    +0.000 NA
ATOM     26  C   UNL     1      47.409   8.854  12.127  0.00  0.00    +0.000 A 
ENDBRANCH  17  21
ENDBRANCH  14  15
ENDBRANCH   1  14
TORSDOF 5
ENDMDL
MODEL 2
REMARK VINA RESULT:    -8.411      1.853      3.323
REMARK INTER + INTRA:         -11.641
REMARK INTER:                 -10.966
REMARK INTRA:                  -0.674
REMARK UNBOUND:                -0.771
REMARK  Name = 
REMARK  5 active torsions:
REMARK  status: ('A' for Active; 'I' for Inactive)
REMARK    1  A    between atoms: C_2  and  C_4
REMARK    2  A    between atoms: C_7  and  N_8
REMARK    3  A    between atoms: N_8  and  C_9
REMARK    4  A    between atoms: C_9  and  C_10
REMARK    5  A    between atoms: C_12  and  C_13
REMARK                            x       y       z     vdW  Elec       q    Type
REMARK                         _______ _______ _______ _____ _____    ______ ____
ROOT
ATOM      1  N   UNL     1      43.782   4.784   9.954  0.00  0.00    +0.000 N 
ATOM      2  H   UNL     1      43.487   5.580   9.403  0.00  0.00    +0.000 HD
ENDROOT
BRANCH   1   6
ATOM      3  C   UNL     1      46.390   2.299   7.761  0.00  0.00    +0.000 A 
ATOM      4  C   UNL     1      45.532   1.732   8.703  0.00  0.00    +0.000 A 
ATOM      5  C   UNL     1      44.680   2.547   9.463  0.00  0.00    +0.000 A 
ATOM      6  C   UNL     1      44.679   3.938   9.316  0.00  0.00    +0.000 A 
ATOM      7  C   UNL     1      45.547   4.489   8.360  0.00  0.00    +0.000 A 
ATOM      8  C   UNL     1      46.405   3.685   7.597  0.00  0.00    +0.000 A 
BRANCH   3  10
ATOM      9  N   UNL     1      48.450   2.070   6.481  0.00  0.00    +0.000 N 
ATOM     10  C   UNL     1      47.306   1.474   6.933  0.00  0.00    +0.000 C 
ATOM     11  O   UNL     1      47.073   0.295   6.694  0.00  0.00    +0.000 OA
ATOM     12  H   UNL     1      49.112   1.467   6.008  0.00  0.00    +0.000 HD
ATOM     13  H   UNL     1      48.797   2.936   6.869  0.00  0.00    +0.000 HD
ENDBRANCH   3  10
ENDBRANCH   1   6
BRANCH   1  14
ATOM     14  C   UNL     1      43.736   4.976  11.401  0.00  0.00    +0.000 C 
BRANCH  14  15
ATOM     15  C   UNL     1      44.986   5.611  11.984  0.00  0.00    +0.000 A 
ATOM     16  C   UNL     1      45.570   5.090  13.143  0.00  0.00    +0.000 A 
ATOM     17  C   UNL     1      46.776   5.620  13.632  0.00  0.00    +0.000 A 
ATOM     18  C   UNL     1      47.338   6.678  12.907  0.00  0.00    +0.000 A 
ATOM     19  C   UNL     1      46.694   7.148  11.773  0.00  0.00    +0.000 A 
ATOM     20  N   UNL     1      45.543   6.637  11.296  0.00  0.00    +0.000 NA
BRANCH  17  21
ATOM     21  C   UNL     1      47.424   5.085  14.851  0.00  0.00    +0.000 A 
ATOM     22  C   UNL     1      47.073   3.844  15.404  0.00  0.00    +0.000 A 
ATOM     23  C   UNL     1      47.709   3.364  16.550  0.00  0.00    +0.000 A 
ATOM     24  C   UNL     1      48.699   4.139  17.125  0.00  0.00    +0.000 A 
ATOM     25  N   UNL     1      49.074   5.339  16.643  0.00  0.00    +0.000 NA
ATOM     26  C   UNL     1      48.429   5.777  15.533  0.00  0.00    +0.000 A 
ENDBRANCH  17  21
ENDBRANCH  14  15
ENDBRANCH   1  14
TORSDOF 5
ENDMDL
MODEL 3
REMARK VINA RESULT:    -8.025      2.757      6.620
REMARK INTER + INTRA:         -11.142
REMARK INTER:                 -10.390
REMARK INTRA:                  -0.753
REMARK UNBOUND:                -0.771
REMARK  Name = 
REMARK  5 active torsions:
REMARK  status: ('A' for Active; 'I' for Inactive)
REMARK    1  A    between atoms: C_2  and  C_4
REMARK    2  A    between atoms: C_7  and  N_8
REMARK    3  A    between atoms: N_8  and  C_9
REMARK    4  A    between atoms: C_9  and  C_10
REMARK    5  A    between atoms: C_12  and  C_13
REMARK                            x       y       z     vdW  Elec       q    Type
REMARK                         _______ _______ _______ _____ _____    ______ ____
ROOT
ATOM      1  N   UNL     1      43.734   6.465  12.369  0.00  0.00    +0.000 N 
ATOM      2  H   UNL     1      43.083   6.221  13.106  0.00  0.00    +0.000 HD
ENDROOT
BRANCH   1   6
ATOM      3  C   UNL     1      47.829   6.794  13.322  0.00  0.00    +0.000 A 
ATOM      4  C   UNL     1      47.168   5.583  13.539  0.00  0.00    +0.000 A 
ATOM      5  C   UNL     1      45.800   5.467  13.257  0.00  0.00    +0.000 A 
ATOM      6  C   UNL     1      45.059   6.551  12.774  0.00  0.00    +0.000 A 
ATOM      7  C   UNL     1      45.743   7.758  12.559  0.00  0.00    +0.000 A 
ATOM      8  C   UNL     1      47.109   7.887  12.840  0.00  0.00    +0.000 A 
BRANCH   3  10
ATOM      9  N   UNL     1      50.083   7.309  12.556  0.00  0.00    +0.000 N 
ATOM     10  C   UNL     1      49.277   6.960  13.604  0.00  0.00    +0.000 C 
ATOM     11  O   UNL     1      49.733   6.831  14.734  0.00  0.00    +0.000 OA
ATOM     12  H   UNL     1      51.047   7.520  12.783  0.00  0.00    +0.000 HD
ATOM     13  H   UNL     1      49.714   7.675  11.689  0.00  0.00    +0.000 HD
ENDBRANCH   3  10
ENDBRANCH   1   6
BRANCH   1  14
ATOM     14  C   UNL     1      43.319   6.089  11.021  0.00  0.00    +0.000 C 
BRANCH  14  15
ATOM     15  C   UNL     1      43.613   4.643  10.661  0.00  0.00    +0.000 A 
ATOM     16  C   UNL     1      44.468   4.338   9.597  0.00  0.00    +0.000 A 
ATOM     17  C   UNL     1      44.811   3.004   9.320  0.00  0.00    +0.000 A 
ATOM     18  C   UNL     1      44.253   2.025  10.151  0.00  0.00    +0.000 A 
ATOM     19  C   UNL     1      43.403   2.404  11.180  0.00  0.00    +0.000 A 
ATOM     20  N   UNL     1      43.079   3.683  11.454  0.00  0.00    +0.000 NA
BRANCH  17  21
ATOM     21  C   UNL     1      45.721   2.650   8.207  0.00  0.00    +0.000 A 
ATOM     22  C   UNL     1      46.018   3.543   7.167  0.00  0.00    +0.000 A 
ATOM     23  C   UNL     1      46.887   3.181   6.137  0.00  0.00    +0.000 A 
ATOM     24  C   UNL     1      47.454   1.921   6.168  0.00  0.00    +0.000 A 
ATOM     25  N   UNL     1      47.203   1.020   7.137  0.00  0.00    +0.000 NA
ATOM     26  C   UNL     1      46.347   1.403   8.118  0.00  0.00    +0.000 A 
ENDBRANCH  17  21
ENDBRANCH  14  15
ENDBRANCH   1  14
TORSDOF 5
ENDMDL
MODEL 4
REMARK VINA RESULT:    -7.936      1.554      1.984
REMARK INTER + INTRA:         -11.026
REMARK INTER:                 -10.323
REMARK INTRA:                  -0.703
REMARK UNBOUND:                -0.771
REMARK  Name = 
REMARK  5 active torsions:
REMARK  status: ('A' for Active; 'I' for Inactive)
REMARK    1  A    between atoms: C_2  and  C_4
REMARK    2  A    between atoms: C_7  and  N_8
REMARK    3  A    between atoms: N_8  and  C_9
REMARK    4  A    between atoms: C_9  and  C_10
REMARK    5  A    between atoms: C_12  and  C_13
REMARK                            x       y       z     vdW  Elec       q    Type
REMARK                         _______ _______ _______ _____ _____    ______ ____
ROOT
ATOM      1  N   UNL     1      43.780   3.510  10.377  0.00  0.00    +0.000 N 
ATOM      2  H   UNL     1      42.929   3.884   9.976  0.00  0.00    +0.000 HD
ENDROOT
BRANCH   1   6
ATOM      3  C   UNL     1      46.576   2.602   7.352  0.00  0.00    +0.000 A 
ATOM      4  C   UNL     1      46.102   1.582   8.179  0.00  0.00    +0.000 A 
ATOM      5  C   UNL     1      45.196   1.872   9.209  0.00  0.00    +0.000 A 
ATOM      6  C   UNL     1      44.759   3.179   9.450  0.00  0.00    +0.000 A 
ATOM      7  C   UNL     1      45.245   4.190   8.606  0.00  0.00    +0.000 A 
ATOM      8  C   UNL     1      46.153   3.913   7.575  0.00  0.00    +0.000 A 
BRANCH   3  10
ATOM      9  N   UNL     1      47.492   3.179   5.171  0.00  0.00    +0.000 N 
ATOM     10  C   UNL     1      47.533   2.339   6.249  0.00  0.00    +0.000 C 
ATOM     11  O   UNL     1      48.356   1.433   6.310  0.00  0.00    +0.000 OA
ATOM     12  H   UNL     1      48.218   3.051   4.476  0.00  0.00    +0.000 HD
ATOM     13  H   UNL     1      47.023   4.073   5.201  0.00  0.00    +0.000 HD
ENDBRANCH   3  10
ENDBRANCH   1   6
BRANCH   1  14
ATOM     14  C   UNL     1      44.067   3.939  11.743  0.00  0.00    +0.000 C 
BRANCH  14  15
ATOM     15  C   UNL     1      44.597   5.358  11.850  0.00  0.00    +0.000 A 
ATOM     16  C   UNL     1      45.921   5.592  12.233  0.00  0.00    +0.000 A 
ATOM     17  C   UNL     1      46.438   6.898  12.246  0.00  0.00    +0.000 A 
ATOM     18  C   UNL     1      45.564   7.924  11.867  0.00  0.00    +0.000 A 
ATOM     19  C   UNL     1      44.260   7.616  11.511  0.00  0.00    +0.000 A 
ATOM     20  N   UNL     1      43.763   6.363  11.489  0.00  0.00    +0.000 NA
BRANCH  17  21
ATOM     21  C   UNL     1      47.839   7.177  12.637  0.00  0.00    +0.000 A 
ATOM     22  C   UNL     1      48.746   7.810  11.774  0.00  0.00    +0.000 A 
ATOM     23  C   UNL     1      50.059   8.066  12.177  0.00  0.00    +0.000 A 
ATOM     24  C   UNL     1      50.441   7.686  13.450  0.00  0.00    +0.000 A 
ATOM     25  N   UNL     1      49.616   7.072  14.319  0.00  0.00    +0.000 NA
ATOM     26  C   UNL     1      48.351   6.832  13.891  0.00  0.00    +0.000 A 
ENDBRANCH  17  21
ENDBRANCH  14  15
ENDBRANCH   1  14
TORSDOF 5
ENDMDL
MODEL 5
REMARK VINA RESULT:    -7.312      3.302      7.262
REMARK INTER + INTRA:         -10.220
REMARK INTER:                  -9.665
REMARK INTRA:                  -0.555
REMARK UNBOUND:                -0.771
REMARK  Name = 
REMARK  5 active torsions:
REMARK  status: ('A' for Active; 'I' for Inactive)
REMARK    1  A    between atoms: C_2  and  C_4
REMARK    2  A    between atoms: C_7  and  N_8
REMARK    3  A    between atoms: N_8  and  C_9
REMARK    4  A    between atoms: C_9  and  C_10
REMARK    5  A    between atoms: C_12  and  C_13
REMARK                            x       y       z     vdW  Elec       q    Type
REMARK                         _______ _______ _______ _____ _____    ______ ____
ROOT
ATOM      1  N   UNL     1      47.318   6.844  12.589  0.00  0.00    +0.000 N 
ATOM      2  H   UNL     1      48.108   7.376  12.245  0.00  0.00    +0.000 HD
ENDROOT
BRANCH   1   6
ATOM      3  C   UNL     1      47.780   4.713  16.200  0.00  0.00    +0.000 A 
ATOM      4  C   UNL     1      48.498   5.894  16.002  0.00  0.00    +0.000 A 
ATOM      5  C   UNL     1      48.379   6.597  14.795  0.00  0.00    +0.000 A 
ATOM      6  C   UNL     1      47.564   6.134  13.757  0.00  0.00    +0.000 A 
ATOM      7  C   UNL     1      46.848   4.947  13.977  0.00  0.00    +0.000 A 
ATOM      8  C   UNL     1      46.961   4.233  15.178  0.00  0.00    +0.000 A 
BRANCH   3  10
ATOM      9  N   UNL     1      46.993   2.906  17.630  0.00  0.00    +0.000 N 
ATOM     10  C   UNL     1      47.874   3.938  17.463  0.00  0.00    +0.000 C 
ATOM     11  O   UNL     1      48.728   4.181  18.307  0.00  0.00    +0.000 OA
ATOM     12  H   UNL     1      47.136   2.324  18.446  0.00  0.00    +0.000 HD
ATOM     13  H   UNL     1      46.464   2.517  16.863  0.00  0.00    +0.000 HD
ENDBRANCH   3  10
ENDBRANCH   1   6
BRANCH   1  14
ATOM     14  C   UNL     1      46.005   7.362  12.215  0.00  0.00    +0.000 C 
BRANCH  14  15
ATOM     15  C   UNL     1      45.154   6.385  11.424  0.00  0.00    +0.000 A 
ATOM     16  C   UNL     1      45.748   5.499  10.520  0.00  0.00    +0.000 A 
ATOM     17  C   UNL     1      44.972   4.535   9.854  0.00  0.00    +0.000 A 
ATOM     18  C   UNL     1      43.602   4.520  10.143  0.00  0.00    +0.000 A 
ATOM     19  C   UNL     1      43.083   5.438  11.044  0.00  0.00    +0.000 A 
ATOM     20  N   UNL     1      43.825   6.358  11.691  0.00  0.00    +0.000 NA
BRANCH  17  21
ATOM     21  C   UNL     1      45.573   3.577   8.898  0.00  0.00    +0.000 A 
ATOM     22  C   UNL     1      46.245   3.996   7.739  0.00  0.00    +0.000 A 
ATOM     23  C   UNL     1      46.807   3.068   6.861  0.00  0.00    +0.000 A 
ATOM     24  C   UNL     1      46.693   1.724   7.165  0.00  0.00    +0.000 A 
ATOM     25  N   UNL     1      46.056   1.263   8.259  0.00  0.00    +0.000 NA
ATOM     26  C   UNL     1      45.514   2.193   9.085  0.00  0.00    +0.000 A 
ENDBRANCH  17  21
ENDBRANCH  14  15
ENDBRANCH   1  14
TORSDOF 5
ENDMDL
MODEL 6
REMARK VINA RESULT:    -7.153      2.476      6.741
REMARK INTER + INTRA:         -10.015
REMARK INTER:                  -9.290
REMARK INTRA:                  -0.726
REMARK UNBOUND:                -0.771
REMARK  Name = 
REMARK  5 active torsions:
REMARK  status: ('A' for Active; 'I' for Inactive)
REMARK    1  A    between atoms: C_2  and  C_4
REMARK    2  A    between atoms: C_7  and  N_8
REMARK    3  A    between atoms: N_8  and  C_9
REMARK    4  A    between atoms: C_9  and  C_10
REMARK    5  A    between atoms: C_12  and  C_13
REMARK                            x       y       z     vdW  Elec       q    Type
REMARK                         _______ _______ _______ _____ _____    ______ ____
ROOT
ATOM      1  N   UNL     1      44.841   7.149  12.543  0.00  0.00    +0.000 N 
ATOM      2  H   UNL     1      44.570   6.699  13.410  0.00  0.00    +0.000 HD
ENDROOT
BRANCH   1   6
ATOM      3  C   UNL     1      48.863   8.316  12.044  0.00  0.00    +0.000 A 
ATOM      4  C   UNL     1      48.555   6.965  12.210  0.00  0.00    +0.000 A 
ATOM      5  C   UNL     1      47.226   6.563  12.408  0.00  0.00    +0.000 A 
ATOM      6  C   UNL     1      46.183   7.493  12.465  0.00  0.00    +0.000 A 
ATOM      7  C   UNL     1      46.513   8.847  12.292  0.00  0.00    +0.000 A 
ATOM      8  C   UNL     1      47.837   9.261  12.096  0.00  0.00    +0.000 A 
BRANCH   3  10
ATOM      9  N   UNL     1      50.684   9.840  12.584  0.00  0.00    +0.000 N 
ATOM     10  C   UNL     1      50.255   8.785  11.828  0.00  0.00    +0.000 C 
ATOM     11  O   UNL     1      51.007   8.229  11.037  0.00  0.00    +0.000 OA
ATOM     12  H   UNL     1      51.664  10.080  12.501  0.00  0.00    +0.000 HD
ATOM     13  H   UNL     1      50.194  10.145  13.414  0.00  0.00    +0.000 HD
ENDBRANCH   3  10
ENDBRANCH   1   6
BRANCH   1  14
ATOM     14  C   UNL     1      44.019   6.812  11.384  0.00  0.00    +0.000 C 
BRANCH  14  15
ATOM     15  C   UNL     1      44.001   5.332  11.044  0.00  0.00    +0.000 A 
ATOM     16  C   UNL     1      44.750   4.843   9.969  0.00  0.00    +0.000 A 
ATOM     17  C   UNL     1      44.804   3.464   9.709  0.00  0.00    +0.000 A 
ATOM     18  C   UNL     1      44.076   2.632  10.568  0.00  0.00    +0.000 A 
ATOM     19  C   UNL     1      43.347   3.192  11.606  0.00  0.00    +0.000 A 
ATOM     20  N   UNL     1      43.299   4.513  11.864  0.00  0.00    +0.000 NA
BRANCH  17  21
ATOM     21  C   UNL     1      45.596   2.914   8.584  0.00  0.00    +0.000 A 
ATOM     22  C   UNL     1      46.049   3.714   7.525  0.00  0.00    +0.000 A 
ATOM     23  C   UNL     1      46.801   3.167   6.484  0.00  0.00    +0.000 A 
ATOM     24  C   UNL     1      47.094   1.816   6.525  0.00  0.00    +0.000 A 
ATOM     25  N   UNL     1      46.683   0.999   7.513  0.00  0.00    +0.000 NA
ATOM     26  C   UNL     1      45.947   1.563   8.504  0.00  0.00    +0.000 A 
ENDBRANCH  17  21
ENDBRANCH  14  15
ENDBRANCH   1  14
TORSDOF 5
ENDMDL
MODEL 7
REMARK VINA RESULT:    -6.516      4.077      7.895
REMARK INTER + INTRA:          -9.191
REMARK INTER:                  -8.766
REMARK INTRA:                  -0.426
REMARK UNBOUND:                -0.771
REMARK  Name = 
REMARK  5 active torsions:
REMARK  status: ('A' for Active; 'I' for Inactive)
REMARK    1  A    between atoms: C_2  and  C_4
REMARK    2  A    between atoms: C_7  and  N_8
REMARK    3  A    between atoms: N_8  and  C_9
REMARK    4  A    between atoms: C_9  and  C_10
REMARK    5  A    between atoms: C_12  and  C_13
REMARK                            x       y       z     vdW  Elec       q    Type
REMARK                         _______ _______ _______ _____ _____    ______ ____
ROOT
ATOM      1  N   UNL     1      46.466   4.101  14.652  0.00  0.00    +0.000 N 
ATOM      2  H   UNL     1      46.478   3.265  14.082  0.00  0.00    +0.000 HD
ENDROOT
BRANCH   1   6
ATOM      3  C   UNL     1      49.520   4.260  17.557  0.00  0.00    +0.000 A 
ATOM      4  C   UNL     1      48.920   3.036  17.258  0.00  0.00    +0.000 A 
ATOM      5  C   UNL     1      47.882   2.971  16.317  0.00  0.00    +0.000 A 
ATOM      6  C   UNL     1      47.408   4.119  15.672  0.00  0.00    +0.000 A 
ATOM      7  C   UNL     1      48.028   5.339  15.984  0.00  0.00    +0.000 A 
ATOM      8  C   UNL     1      49.064   5.417  16.925  0.00  0.00    +0.000 A 
BRANCH   3  10
ATOM      9  N   UNL     1      50.280   4.400  19.867  0.00  0.00    +0.000 N 
ATOM     10  C   UNL     1      50.624   4.374  18.544  0.00  0.00    +0.000 C 
ATOM     11  O   UNL     1      51.798   4.404  18.197  0.00  0.00    +0.000 OA
ATOM     12  H   UNL     1      51.046   4.373  20.529  0.00  0.00    +0.000 HD
ATOM     13  H   UNL     1      49.367   4.116  20.193  0.00  0.00    +0.000 HD
ENDBRANCH   3  10
ENDBRANCH   1   6
BRANCH   1  14
ATOM     14  C   UNL     1      45.965   5.302  13.990  0.00  0.00    +0.000 C 
BRANCH  14  15
ATOM     15  C   UNL     1      45.084   5.025  12.784  0.00  0.00    +0.000 A 
ATOM     16  C   UNL     1      45.623   4.442  11.633  0.00  0.00    +0.000 A 
ATOM     17  C   UNL     1      44.792   4.103  10.552  0.00  0.00    +0.000 A 
ATOM     18  C   UNL     1      43.428   4.384  10.694  0.00  0.00    +0.000 A 
ATOM     19  C   UNL     1      42.969   4.974  11.862  0.00  0.00    +0.000 A 
ATOM     20  N   UNL     1      43.761   5.292  12.905  0.00  0.00    +0.000 NA
BRANCH  17  21
ATOM     21  C   UNL     1      45.331   3.476   9.323  0.00  0.00    +0.000 A 
ATOM     22  C   UNL     1      45.765   4.232   8.224  0.00  0.00    +0.000 A 
ATOM     23  C   UNL     1      46.275   3.609   7.083  0.00  0.00    +0.000 A 
ATOM     24  C   UNL     1      46.349   2.229   7.065  0.00  0.00    +0.000 A 
ATOM     25  N   UNL     1      45.943   1.452   8.088  0.00  0.00    +0.000 NA
ATOM     26  C   UNL     1      45.445   2.090   9.177  0.00  0.00    +0.000 A 
ENDBRANCH  17  21
ENDBRANCH  14  15
ENDBRANCH   1  14
TORSDOF 5
ENDMDL
MODEL 8
REMARK VINA RESULT:    -6.395      4.644      7.975
REMARK INTER + INTRA:          -9.036
REMARK INTER:                  -8.361
REMARK INTRA:                  -0.675
REMARK UNBOUND:                -0.771
REMARK  Name = 
REMARK  5 active torsions:
REMARK  status: ('A' for Active; 'I' for Inactive)
REMARK    1  A    between atoms: C_2  and  C_4
REMARK    2  A    between atoms: C_7  and  N_8
REMARK    3  A    between atoms: N_8  and  C_9
REMARK    4  A    between atoms: C_9  and  C_10
REMARK    5  A    between atoms: C_12  and  C_13
REMARK                            x       y       z     vdW  Elec       q    Type
REMARK                         _______ _______ _______ _____ _____    ______ ____
ROOT
ATOM      1  N   UNL     1      48.292   6.212  16.510  0.00  0.00    +0.000 N 
ATOM      2  H   UNL     1      47.302   6.008  16.456  0.00  0.00    +0.000 HD
ENDROOT
BRANCH   1   6
ATOM      3  C   UNL     1      50.856   3.019  17.521  0.00  0.00    +0.000 A 
ATOM      4  C   UNL     1      49.501   2.769  17.301  0.00  0.00    +0.000 A 
ATOM      5  C   UNL     1      48.629   3.823  16.995  0.00  0.00    +0.000 A 
ATOM      6  C   UNL     1      49.081   5.146  16.920  0.00  0.00    +0.000 A 
ATOM      7  C   UNL     1      50.449   5.376  17.141  0.00  0.00    +0.000 A 
ATOM      8  C   UNL     1      51.328   4.330  17.451  0.00  0.00    +0.000 A 
BRANCH   3  10
ATOM      9  N   UNL     1      51.356   0.647  17.753  0.00  0.00    +0.000 N 
ATOM     10  C   UNL     1      51.814   1.932  17.845  0.00  0.00    +0.000 C 
ATOM     11  O   UNL     1      52.979   2.166  18.144  0.00  0.00    +0.000 OA
ATOM     12  H   UNL     1      52.047  -0.084  17.875  0.00  0.00    +0.000 HD
ATOM     13  H   UNL     1      50.504   0.411  17.265  0.00  0.00    +0.000 HD
ENDBRANCH   3  10
ENDBRANCH   1   6
BRANCH   1  14
ATOM     14  C   UNL     1      48.760   7.274  15.624  0.00  0.00    +0.000 C 
BRANCH  14  15
ATOM     15  C   UNL     1      48.297   7.131  14.185  0.00  0.00    +0.000 A 
ATOM     16  C   UNL     1      47.296   6.214  13.851  0.00  0.00    +0.000 A 
ATOM     17  C   UNL     1      46.805   6.144  12.537  0.00  0.00    +0.000 A 
ATOM     18  C   UNL     1      47.369   7.024  11.606  0.00  0.00    +0.000 A 
ATOM     19  C   UNL     1      48.367   7.899  12.009  0.00  0.00    +0.000 A 
ATOM     20  N   UNL     1      48.835   7.975  13.271  0.00  0.00    +0.000 NA
BRANCH  17  21
ATOM     21  C   UNL     1      45.739   5.189  12.154  0.00  0.00    +0.000 A 
ATOM     22  C   UNL     1      45.190   5.156  10.864  0.00  0.00    +0.000 A 
ATOM     23  C   UNL     1      44.191   4.238  10.533  0.00  0.00    +0.000 A 
ATOM     24  C   UNL     1      43.761   3.357  11.507  0.00  0.00    +0.000 A 
ATOM     25  N   UNL     1      44.247   3.345  12.762  0.00  0.00    +0.000 NA
ATOM     26  C   UNL     1      45.210   4.256  13.051  0.00  0.00    +0.000 A 
ENDBRANCH  17  21
ENDBRANCH  14  15
ENDBRANCH   1  14
TORSDOF 5
ENDMDL
MODEL 9
REMARK VINA RESULT:    -6.358      3.097      5.599
REMARK INTER + INTRA:          -8.987
REMARK INTER:                  -8.277
REMARK INTRA:                  -0.710
REMARK UNBOUND:                -0.771
REMARK  Name = 
REMARK  5 active torsions:
REMARK  status: ('A' for Active; 'I' for Inactive)
REMARK    1  A    between atoms: C_2  and  C_4
REMARK    2  A    between atoms: C_7  and  N_8
REMARK    3  A    between atoms: N_8  and  C_9
REMARK    4  A    between atoms: C_9  and  C_10
REMARK    5  A    between atoms: C_12  and  C_13
REMARK                            x       y       z     vdW  Elec       q    Type
REMARK                         _______ _______ _______ _____ _____    ______ ____
ROOT
ATOM      1  N   UNL     1      46.202   7.820  12.425  0.00  0.00    +0.000 N 
ATOM      2  H   UNL     1      45.633   8.653  12.336  0.00  0.00    +0.000 HD
ENDROOT
BRANCH   1   6
ATOM      3  C   UNL     1      44.494   4.134  11.291  0.00  0.00    +0.000 A 
ATOM      4  C   UNL     1      45.262   4.847  10.370  0.00  0.00    +0.000 A 
ATOM      5  C   UNL     1      45.811   6.089  10.721  0.00  0.00    +0.000 A 
ATOM      6  C   UNL     1      45.593   6.654  11.982  0.00  0.00    +0.000 A 
ATOM      7  C   UNL     1      44.821   5.918  12.896  0.00  0.00    +0.000 A 
ATOM      8  C   UNL     1      44.265   4.678  12.555  0.00  0.00    +0.000 A 
BRANCH   3  10
ATOM      9  N   UNL     1      44.413   2.144   9.889  0.00  0.00    +0.000 N 
ATOM     10  C   UNL     1      43.896   2.815  10.963  0.00  0.00    +0.000 C 
ATOM     11  O   UNL     1      43.005   2.323  11.644  0.00  0.00    +0.000 OA
ATOM     12  H   UNL     1      44.068   1.204   9.741  0.00  0.00    +0.000 HD
ATOM     13  H   UNL     1      45.302   2.388   9.476  0.00  0.00    +0.000 HD
ENDBRANCH   3  10
ENDBRANCH   1   6
BRANCH   1  14
ATOM     14  C   UNL     1      47.645   8.043  12.398  0.00  0.00    +0.000 C 
BRANCH  14  15
ATOM     15  C   UNL     1      48.346   7.739  13.710  0.00  0.00    +0.000 A 
ATOM     16  C   UNL     1      48.003   6.603  14.450  0.00  0.00    +0.000 A 
ATOM     17  C   UNL     1      48.711   6.274  15.617  0.00  0.00    +0.000 A 
ATOM     18  C   UNL     1      49.752   7.135  15.986  0.00  0.00    +0.000 A 
ATOM     19  C   UNL     1      50.026   8.249  15.208  0.00  0.00    +0.000 A 
ATOM     20  N   UNL     1      49.354   8.564  14.083  0.00  0.00    +0.000 NA
BRANCH  17  21
ATOM     21  C   UNL     1      48.378   5.072  16.417  0.00  0.00    +0.000 A 
ATOM     22  C   UNL     1      49.256   4.541  17.373  0.00  0.00    +0.000 A 
ATOM     23  C   UNL     1      48.908   3.411  18.116  0.00  0.00    +0.000 A 
ATOM     24  C   UNL     1      47.673   2.832  17.892  0.00  0.00    +0.000 A 
ATOM     25  N   UNL     1      46.792   3.295  16.985  0.00  0.00    +0.000 NA
ATOM     26  C   UNL     1      47.167   4.389  16.275  0.00  0.00    +0.000 A 
ENDBRANCH  17  21
ENDBRANCH  14  15
ENDBRANCH   1  14
TORSDOF 5
ENDMDL
