MODEL 1
REMARK VINA RESULT:    -7.694      0.000      0.000
REMARK INTER + INTRA:         -11.256
REMARK INTER:                 -10.393
REMARK INTRA:                  -0.863
REMARK UNBOUND:                -0.863
REMARK  Name = 
REMARK  6 active torsions:
REMARK  status: ('A' for Active; 'I' for Inactive)
REMARK    1  A    between atoms: C_2  and  C_25
REMARK    2  A    between atoms: N_3  and  C_4
REMARK    3  A    between atoms: C_4  and  C_5
REMARK    4  A    between atoms: C_8  and  C_9
REMARK    5  A    between atoms: C_9  and  N_10
REMARK    6  A    between atoms: C_11  and  C_13
REMARK                            x       y       z     vdW  Elec       q    Type
REMARK                         _______ _______ _______ _____ _____    ______ ____
ROOT
ATOM      1  C   UNL     1      44.941   6.049  11.018  0.00  0.00    +0.000 A 
ATOM      2  C   UNL     1      44.528   7.333  11.398  0.00  0.00    +0.000 A 
ATOM      3  C   UNL     1      45.297   8.094  12.285  0.00  0.00    +0.000 A 
ATOM      4  C   UNL     1      46.502   7.594  12.794  0.00  0.00    +0.000 A 
ATOM      5  C   UNL     1      46.904   6.304  12.426  0.00  0.00    +0.000 A 
ATOM      6  C   UNL     1      46.137   5.542  11.539  0.00  0.00    +0.000 A 
ENDROOT
BRANCH   1   7
ATOM      7  C   UNL     1      44.111   5.225  10.074  0.00  0.00    +0.000 C 
BRANCH   7  10
ATOM      8  O   UNL     1      44.456   2.504  10.353  0.00  0.00    +0.000 OA
ATOM      9  C   UNL     1      45.011   3.045   9.397  0.00  0.00    +0.000 C 
ATOM     10  N   UNL     1      44.911   4.410   9.195  0.00  0.00    +0.000 N 
ATOM     11  H   UNL     1      45.361   4.808   8.377  0.00  0.00    +0.000 HD
BRANCH   9  12
ATOM     12  C   UNL     1      45.800   2.340   8.388  0.00  0.00    +0.000 A 
ATOM     13  N   UNL     1      46.052   1.043   8.427  0.00  0.00    +0.000 NA
ATOM     14  C   UNL     1      46.834   0.700   7.338  0.00  0.00    +0.000 A 
ATOM     15  C   UNL     1      47.174   1.735   6.494  0.00  0.00    +0.000 A 
ATOM     16  S   UNL     1      46.481   3.194   7.062  0.00  0.00    +0.000 S 
ENDBRANCH   9  12
ENDBRANCH   7  10
ENDBRANCH   1   7
BRANCH   4  17
ATOM     17  C   UNL     1      47.341   8.411  13.743  0.00  0.00    +0.000 C 
BRANCH  17  18
ATOM     18  N   UNL     1      47.709   7.653  14.910  0.00  0.00    +0.000 N 
ATOM     19  C   UNL     1      48.933   7.035  14.994  0.00  0.00    +0.000 C 
ATOM     20  O   UNL     1      49.777   7.145  14.109  0.00  0.00    +0.000 OA
ATOM     21  H   UNL     1      46.961   7.367  15.534  0.00  0.00    +0.000 HD
BRANCH  19  22
ATOM     22  C   UNL     1      49.210   6.286  16.226  0.00  0.00    +0.000 A 
ATOM     23  C   UNL     1      50.246   6.691  17.058  0.00  0.00    +0.000 A 
ATOM     24  S   UNL     1      50.401   5.749  18.470  0.00  0.00    +0.000 S 
ATOM     25  C   UNL     1      49.122   4.731  17.996  0.00  0.00    +0.000 A 
ATOM     26  N   UNL     1      48.747   3.676  18.768  0.00  0.00    +0.000 NA
ATOM     27  C   UNL     1      47.789   2.967  18.271  0.00  0.00    +0.000 A 
ATOM     28  N   UNL     1      47.168   3.220  17.076  0.00  0.00    +0.000 N 
ATOM     29  C   UNL     1      47.494   4.292  16.278  0.00  0.00    +0.000 A 
ATOM     30  O   UNL     1      46.890   4.516  15.233  0.00  0.00    +0.000 OA
ATOM     31  C   UNL     1      48.575   5.115  16.785  0.00  0.00    +0.000 A 
ATOM     32  H   UNL     1      46.420   2.631  16.746  0.00  0.00    +0.000 HD
ENDBRANCH  19  22
ENDBRANCH  17  18
ENDBRANCH   4  17
TORSDOF 6
ENDMDL
MODEL 2
REMARK VINA RESULT:    -7.340      1.960      2.417
REMARK INTER + INTRA:         -10.777
REMARK INTER:                  -9.928
REMARK INTRA:                  -0.849
REMARK UNBOUND:                -0.863
REMARK  Name = 
REMARK  6 active torsions:
REMARK  status: ('A' for Active; 'I' for Inactive)
REMARK    1  A    between atoms: C_2  and  C_25
REMARK    2  A    between atoms: N_3  and  C_4
REMARK    3  A    between atoms: C_4  and  C_5
REMARK    4  A    between atoms: C_8  and  C_9
REMARK    5  A    between atoms: C_9  and  N_10
REMARK    6  A    between atoms: C_11  and  C_13
REMARK                            x       y       z     vdW  Elec       q    Type
REMARK                         _______ _______ _______ _____ _____    ______ ____
ROOT
ATOM      1  C   UNL     1      45.446   4.598  12.227  0.00  0.00    +0.000 A 
ATOM      2  C   UNL     1      46.067   4.377  13.463  0.00  0.00    +0.000 A 
ATOM      3  C   UNL     1      46.876   5.362  14.038  0.00  0.00    +0.000 A 
ATOM      4  C   UNL     1      47.065   6.593  13.398  0.00  0.00    +0.000 A 
ATOM      5  C   UNL     1      46.458   6.806  12.154  0.00  0.00    +0.000 A 
ATOM      6  C   UNL     1      45.648   5.822  11.578  0.00  0.00    +0.000 A 
ENDROOT
BRANCH   1   7
ATOM      7  C   UNL     1      44.585   3.537  11.601  0.00  0.00    +0.000 C 
BRANCH   7  10
ATOM      8  O   UNL     1      44.277   4.025   8.905  0.00  0.00    +0.000 OA
ATOM      9  C   UNL     1      45.066   3.138   9.228  0.00  0.00    +0.000 C 
ATOM     10  N   UNL     1      45.264   2.811  10.558  0.00  0.00    +0.000 N 
ATOM     11  H   UNL     1      45.946   2.092  10.778  0.00  0.00    +0.000 HD
BRANCH   9  12
ATOM     12  C   UNL     1      45.872   2.361   8.287  0.00  0.00    +0.000 A 
ATOM     13  N   UNL     1      46.063   1.057   8.387  0.00  0.00    +0.000 NA
ATOM     14  C   UNL     1      46.881   0.637   7.353  0.00  0.00    +0.000 A 
ATOM     15  C   UNL     1      47.309   1.623   6.490  0.00  0.00    +0.000 A 
ATOM     16  S   UNL     1      46.655   3.132   6.967  0.00  0.00    +0.000 S 
ENDBRANCH   9  12
ENDBRANCH   7  10
ENDBRANCH   1   7
BRANCH   4  17
ATOM     17  C   UNL     1      47.929   7.664  14.016  0.00  0.00    +0.000 C 
BRANCH  17  18
ATOM     18  N   UNL     1      49.157   7.119  14.533  0.00  0.00    +0.000 N 
ATOM     19  C   UNL     1      49.467   7.213  15.867  0.00  0.00    +0.000 C 
ATOM     20  O   UNL     1      48.692   7.715  16.678  0.00  0.00    +0.000 OA
ATOM     21  H   UNL     1      49.892   6.912  13.863  0.00  0.00    +0.000 HD
BRANCH  19  22
ATOM     22  C   UNL     1      50.744   6.626  16.291  0.00  0.00    +0.000 A 
ATOM     23  C   UNL     1      51.935   7.258  15.955  0.00  0.00    +0.000 A 
ATOM     24  S   UNL     1      53.321   6.478  16.568  0.00  0.00    +0.000 S 
ATOM     25  C   UNL     1      52.384   5.239  17.261  0.00  0.00    +0.000 A 
ATOM     26  N   UNL     1      52.972   4.211  17.930  0.00  0.00    +0.000 NA
ATOM     27  C   UNL     1      52.146   3.322  18.372  0.00  0.00    +0.000 A 
ATOM     28  N   UNL     1      50.786   3.371  18.211  0.00  0.00    +0.000 N 
ATOM     29  C   UNL     1      50.147   4.406  17.569  0.00  0.00    +0.000 A 
ATOM     30  O   UNL     1      48.923   4.440  17.479  0.00  0.00    +0.000 OA
ATOM     31  C   UNL     1      51.031   5.426  17.041  0.00  0.00    +0.000 A 
ATOM     32  H   UNL     1      50.194   2.646  18.587  0.00  0.00    +0.000 HD
ENDBRANCH  19  22
ENDBRANCH  17  18
ENDBRANCH   4  17
TORSDOF 6
ENDMDL
MODEL 3
REMARK VINA RESULT:    -6.857      3.137      3.830
REMARK INTER + INTRA:         -10.125
REMARK INTER:                  -9.547
REMARK INTRA:                  -0.579
REMARK UNBOUND:                -0.863
REMARK  Name = 
REMARK  6 active torsions:
REMARK  status: ('A' for Active; 'I' for Inactive)
REMARK    1  A    between atoms: C_2  and  C_25
REMARK    2  A    between atoms: N_3  and  C_4
REMARK    3  A    between atoms: C_4  and  C_5
REMARK    4  A    between atoms: C_8  and  C_9
REMARK    5  A    between atoms: C_9  and  N_10
REMARK    6  A    between atoms: C_11  and  C_13
REMARK                            x       y       z     vdW  Elec       q    Type
REMARK                         _______ _______ _______ _____ _____    ______ ____
ROOT
ATOM      1  C   UNL     1      44.291   4.498  11.608  0.00  0.00    +0.000 A 
ATOM      2  C   UNL     1      45.426   4.630  12.419  0.00  0.00    +0.000 A 
ATOM      3  C   UNL     1      45.851   5.891  12.849  0.00  0.00    +0.000 A 
ATOM      4  C   UNL     1      45.138   7.043  12.492  0.00  0.00    +0.000 A 
ATOM      5  C   UNL     1      44.014   6.911  11.668  0.00  0.00    +0.000 A 
ATOM      6  C   UNL     1      43.588   5.650  11.238  0.00  0.00    +0.000 A 
ENDROOT
BRANCH   1   7
ATOM      7  C   UNL     1      43.840   3.145  11.135  0.00  0.00    +0.000 C 
BRANCH   7  10
ATOM      8  O   UNL     1      44.190   3.913   8.511  0.00  0.00    +0.000 OA
ATOM      9  C   UNL     1      44.899   2.997   8.926  0.00  0.00    +0.000 C 
ATOM     10  N   UNL     1      44.773   2.532  10.224  0.00  0.00    +0.000 N 
ATOM     11  H   UNL     1      45.398   1.795  10.531  0.00  0.00    +0.000 HD
BRANCH   9  12
ATOM     12  C   UNL     1      45.931   2.323   8.140  0.00  0.00    +0.000 A 
ATOM     13  N   UNL     1      46.198   1.032   8.232  0.00  0.00    +0.000 NA
ATOM     14  C   UNL     1      47.233   0.721   7.368  0.00  0.00    +0.000 A 
ATOM     15  C   UNL     1      47.746   1.774   6.642  0.00  0.00    +0.000 A 
ATOM     16  S   UNL     1      46.897   3.210   7.029  0.00  0.00    +0.000 S 
ENDBRANCH   9  12
ENDBRANCH   7  10
ENDBRANCH   1   7
BRANCH   4  17
ATOM     17  C   UNL     1      45.583   8.405  12.960  0.00  0.00    +0.000 C 
BRANCH  17  18
ATOM     18  N   UNL     1      46.760   8.322  13.785  0.00  0.00    +0.000 N 
ATOM     19  C   UNL     1      47.845   9.132  13.554  0.00  0.00    +0.000 C 
ATOM     20  O   UNL     1      47.838   9.989  12.673  0.00  0.00    +0.000 OA
ATOM     21  H   UNL     1      46.871   7.489  14.354  0.00  0.00    +0.000 HD
BRANCH  19  22
ATOM     22  C   UNL     1      48.994   8.967  14.452  0.00  0.00    +0.000 A 
ATOM     23  C   UNL     1      48.830   9.155  15.819  0.00  0.00    +0.000 A 
ATOM     24  S   UNL     1      50.246   8.875  16.725  0.00  0.00    +0.000 S 
ATOM     25  C   UNL     1      51.145   8.543  15.319  0.00  0.00    +0.000 A 
ATOM     26  N   UNL     1      52.470   8.245  15.391  0.00  0.00    +0.000 NA
ATOM     27  C   UNL     1      53.036   8.052  14.247  0.00  0.00    +0.000 A 
ATOM     28  N   UNL     1      52.396   8.124  13.037  0.00  0.00    +0.000 N 
ATOM     29  C   UNL     1      51.053   8.392  12.918  0.00  0.00    +0.000 A 
ATOM     30  O   UNL     1      50.501   8.408  11.822  0.00  0.00    +0.000 OA
ATOM     31  C   UNL     1      50.371   8.630  14.175  0.00  0.00    +0.000 A 
ATOM     32  H   UNL     1      52.895   7.955  12.177  0.00  0.00    +0.000 HD
ENDBRANCH  19  22
ENDBRANCH  17  18
ENDBRANCH   4  17
TORSDOF 6
ENDMDL
MODEL 4
REMARK VINA RESULT:    -6.486      2.371      4.001
REMARK INTER + INTRA:          -9.624
REMARK INTER:                  -8.795
REMARK INTRA:                  -0.829
REMARK UNBOUND:                -0.863
REMARK  Name = 
REMARK  6 active torsions:
REMARK  status: ('A' for Active; 'I' for Inactive)
REMARK    1  A    between atoms: C_2  and  C_25
REMARK    2  A    between atoms: N_3  and  C_4
REMARK    3  A    between atoms: C_4  and  C_5
REMARK    4  A    between atoms: C_8  and  C_9
REMARK    5  A    between atoms: C_9  and  N_10
REMARK    6  A    between atoms: C_11  and  C_13
REMARK                            x       y       z     vdW  Elec       q    Type
REMARK                         _______ _______ _______ _____ _____    ______ ____
ROOT
ATOM      1  C   UNL     1      45.186   4.555  11.592  0.00  0.00    +0.000 A 
ATOM      2  C   UNL     1      45.589   5.806  12.074  0.00  0.00    +0.000 A 
ATOM      3  C   UNL     1      46.295   5.911  13.277  0.00  0.00    +0.000 A 
ATOM      4  C   UNL     1      46.627   4.766  14.011  0.00  0.00    +0.000 A 
ATOM      5  C   UNL     1      46.208   3.516  13.536  0.00  0.00    +0.000 A 
ATOM      6  C   UNL     1      45.503   3.410  12.333  0.00  0.00    +0.000 A 
ENDROOT
BRANCH   1   7
ATOM      7  C   UNL     1      44.419   4.440  10.305  0.00  0.00    +0.000 C 
BRANCH   7  10
ATOM      8  O   UNL     1      44.784   1.923   9.241  0.00  0.00    +0.000 OA
ATOM      9  C   UNL     1      45.372   2.854   8.692  0.00  0.00    +0.000 C 
ATOM     10  N   UNL     1      45.264   4.147   9.175  0.00  0.00    +0.000 N 
ATOM     11  H   UNL     1      45.744   4.887   8.674  0.00  0.00    +0.000 HD
BRANCH   9  12
ATOM     12  C   UNL     1      46.211   2.721   7.502  0.00  0.00    +0.000 A 
ATOM     13  N   UNL     1      46.290   3.637   6.553  0.00  0.00    +0.000 NA
ATOM     14  C   UNL     1      47.156   3.196   5.568  0.00  0.00    +0.000 A 
ATOM     15  C   UNL     1      47.714   1.953   5.773  0.00  0.00    +0.000 A 
ATOM     16  S   UNL     1      47.159   1.309   7.259  0.00  0.00    +0.000 S 
ENDBRANCH   9  12
ENDBRANCH   7  10
ENDBRANCH   1   7
BRANCH   4  17
ATOM     17  C   UNL     1      47.395   4.869  15.304  0.00  0.00    +0.000 C 
BRANCH  17  18
ATOM     18  N   UNL     1      47.855   6.213  15.540  0.00  0.00    +0.000 N 
ATOM     19  C   UNL     1      49.087   6.452  16.098  0.00  0.00    +0.000 C 
ATOM     20  O   UNL     1      49.863   5.540  16.370  0.00  0.00    +0.000 OA
ATOM     21  H   UNL     1      47.156   6.951  15.536  0.00  0.00    +0.000 HD
BRANCH  19  22
ATOM     22  C   UNL     1      49.459   7.858  16.297  0.00  0.00    +0.000 A 
ATOM     23  C   UNL     1      49.325   8.432  17.555  0.00  0.00    +0.000 A 
ATOM     24  S   UNL     1      49.850  10.052  17.629  0.00  0.00    +0.000 S 
ATOM     25  C   UNL     1      50.227  10.063  15.970  0.00  0.00    +0.000 A 
ATOM     26  N   UNL     1      50.711  11.184  15.372  0.00  0.00    +0.000 NA
ATOM     27  C   UNL     1      50.919  11.063  14.103  0.00  0.00    +0.000 A 
ATOM     28  N   UNL     1      50.692   9.920  13.380  0.00  0.00    +0.000 N 
ATOM     29  C   UNL     1      50.233   8.756  13.949  0.00  0.00    +0.000 A 
ATOM     30  O   UNL     1      50.080   7.738  13.280  0.00  0.00    +0.000 OA
ATOM     31  C   UNL     1      49.971   8.842  15.372  0.00  0.00    +0.000 A 
ATOM     32  H   UNL     1      50.883   9.889  12.390  0.00  0.00    +0.000 HD
ENDBRANCH  19  22
ENDBRANCH  17  18
ENDBRANCH   4  17
TORSDOF 6
ENDMDL
MODEL 5
REMARK VINA RESULT:    -6.303      3.228      4.454
REMARK INTER + INTRA:          -9.377
REMARK INTER:                  -8.518
REMARK INTRA:                  -0.859
REMARK UNBOUND:                -0.863
REMARK  Name = 
REMARK  6 active torsions:
REMARK  status: ('A' for Active; 'I' for Inactive)
REMARK    1  A    between atoms: C_2  and  C_25
REMARK    2  A    between atoms: N_3  and  C_4
REMARK    3  A    between atoms: C_4  and  C_5
REMARK    4  A    between atoms: C_8  and  C_9
REMARK    5  A    between atoms: C_9  and  N_10
REMARK    6  A    between atoms: C_11  and  C_13
REMARK                            x       y       z     vdW  Elec       q    Type
REMARK                         _______ _______ _______ _____ _____    ______ ____
ROOT
ATOM      1  C   UNL     1      45.016   5.945  11.400  0.00  0.00    +0.000 A 
ATOM      2  C   UNL     1      44.620   7.285  11.502  0.00  0.00    +0.000 A 
ATOM      3  C   UNL     1      45.339   8.180  12.302  0.00  0.00    +0.000 A 
ATOM      4  C   UNL     1      46.476   7.756  13.001  0.00  0.00    +0.000 A 
ATOM      5  C   UNL     1      46.860   6.412  12.911  0.00  0.00    +0.000 A 
ATOM      6  C   UNL     1      46.143   5.517  12.111  0.00  0.00    +0.000 A 
ENDROOT
BRANCH   1   7
ATOM      7  C   UNL     1      44.239   4.980  10.549  0.00  0.00    +0.000 C 
BRANCH   7  10
ATOM      8  O   UNL     1      43.936   2.299   9.980  0.00  0.00    +0.000 OA
ATOM      9  C   UNL     1      44.838   2.898   9.395  0.00  0.00    +0.000 C 
ATOM     10  N   UNL     1      45.076   4.240   9.639  0.00  0.00    +0.000 N 
ATOM     11  H   UNL     1      45.812   4.699   9.113  0.00  0.00    +0.000 HD
BRANCH   9  12
ATOM     12  C   UNL     1      45.725   2.297   8.400  0.00  0.00    +0.000 A 
ATOM     13  N   UNL     1      46.066   1.020   8.397  0.00  0.00    +0.000 NA
ATOM     14  C   UNL     1      46.924   0.783   7.337  0.00  0.00    +0.000 A 
ATOM     15  C   UNL     1      47.231   1.877   6.558  0.00  0.00    +0.000 A 
ATOM     16  S   UNL     1      46.408   3.257   7.150  0.00  0.00    +0.000 S 
ENDBRANCH   9  12
ENDBRANCH   7  10
ENDBRANCH   1   7
BRANCH   4  17
ATOM     17  C   UNL     1      47.262   8.715  13.858  0.00  0.00    +0.000 C 
BRANCH  17  18
ATOM     18  N   UNL     1      48.679   8.504  13.725  0.00  0.00    +0.000 N 
ATOM     19  C   UNL     1      49.574   9.199  14.501  0.00  0.00    +0.000 C 
ATOM     20  O   UNL     1      49.204   9.984  15.371  0.00  0.00    +0.000 OA
ATOM     21  H   UNL     1      49.003   8.045  12.879  0.00  0.00    +0.000 HD
BRANCH  19  22
ATOM     22  C   UNL     1      50.997   8.911  14.286  0.00  0.00    +0.000 A 
ATOM     23  C   UNL     1      51.826   8.689  15.379  0.00  0.00    +0.000 A 
ATOM     24  S   UNL     1      53.435   8.317  14.956  0.00  0.00    +0.000 S 
ATOM     25  C   UNL     1      53.096   8.489  13.297  0.00  0.00    +0.000 A 
ATOM     26  N   UNL     1      54.071   8.324  12.364  0.00  0.00    +0.000 NA
ATOM     27  C   UNL     1      53.684   8.519  11.148  0.00  0.00    +0.000 A 
ATOM     28  N   UNL     1      52.408   8.860  10.780  0.00  0.00    +0.000 N 
ATOM     29  C   UNL     1      51.384   9.008  11.686  0.00  0.00    +0.000 A 
ATOM     30  O   UNL     1      50.243   9.272  11.319  0.00  0.00    +0.000 OA
ATOM     31  C   UNL     1      51.769   8.811  13.070  0.00  0.00    +0.000 A 
ATOM     32  H   UNL     1      52.168   8.993   9.810  0.00  0.00    +0.000 HD
ENDBRANCH  19  22
ENDBRANCH  17  18
ENDBRANCH   4  17
TORSDOF 6
ENDMDL
MODEL 6
REMARK VINA RESULT:    -6.124      2.815      3.780
REMARK INTER + INTRA:          -9.135
REMARK INTER:                  -8.359
REMARK INTRA:                  -0.776
REMARK UNBOUND:                -0.863
REMARK  Name = 
REMARK  6 active torsions:
REMARK  status: ('A' for Active; 'I' for Inactive)
REMARK    1  A    between atoms: C_2  and  C_25
REMARK    2  A    between atoms: N_3  and  C_4
REMARK    3  A    between atoms: C_4  and  C_5
REMARK    4  A    between atoms: C_8  and  C_9
REMARK    5  A    between atoms: C_9  and  N_10
REMARK    6  A    between atoms: C_11  and  C_13
REMARK                            x       y       z     vdW  Elec       q    Type
REMARK                         _______ _______ _______ _____ _____    ______ ____
ROOT
ATOM      1  C   UNL     1      46.454   7.300  12.735  0.00  0.00    +0.000 A 
ATOM      2  C   UNL     1      46.811   8.546  13.265  0.00  0.00    +0.000 A 
ATOM      3  C   UNL     1      47.743   8.636  14.305  0.00  0.00    +0.000 A 
ATOM      4  C   UNL     1      48.348   7.484  14.821  0.00  0.00    +0.000 A 
ATOM      5  C   UNL     1      47.977   6.237  14.302  0.00  0.00    +0.000 A 
ATOM      6  C   UNL     1      47.046   6.146  13.262  0.00  0.00    +0.000 A 
ENDROOT
BRANCH   1   7
ATOM      7  C   UNL     1      45.445   7.199  11.625  0.00  0.00    +0.000 C 
BRANCH   7  10
ATOM      8  O   UNL     1      43.752   5.159  10.869  0.00  0.00    +0.000 OA
ATOM      9  C   UNL     1      44.854   5.204  10.324  0.00  0.00    +0.000 C 
ATOM     10  N   UNL     1      45.776   6.180  10.661  0.00  0.00    +0.000 N 
ATOM     11  H   UNL     1      46.661   6.195  10.165  0.00  0.00    +0.000 HD
BRANCH   9  12
ATOM     12  C   UNL     1      45.306   4.279   9.285  0.00  0.00    +0.000 A 
ATOM     13  N   UNL     1      45.926   4.661   8.183  0.00  0.00    +0.000 NA
ATOM     14  C   UNL     1      46.201   3.547   7.408  0.00  0.00    +0.000 A 
ATOM     15  C   UNL     1      45.779   2.340   7.923  0.00  0.00    +0.000 A 
ATOM     16  S   UNL     1      45.027   2.591   9.441  0.00  0.00    +0.000 S 
ENDBRANCH   9  12
ENDBRANCH   7  10
ENDBRANCH   1   7
BRANCH   4  17
ATOM     17  C   UNL     1      49.359   7.573  15.936  0.00  0.00    +0.000 C 
BRANCH  17  18
ATOM     18  N   UNL     1      49.974   6.296  16.195  0.00  0.00    +0.000 N 
ATOM     19  C   UNL     1      49.840   5.682  17.415  0.00  0.00    +0.000 C 
ATOM     20  O   UNL     1      49.154   6.165  18.312  0.00  0.00    +0.000 OA
ATOM     21  H   UNL     1      50.712   5.999  15.564  0.00  0.00    +0.000 HD
BRANCH  19  22
ATOM     22  C   UNL     1      50.506   4.384  17.577  0.00  0.00    +0.000 A 
ATOM     23  C   UNL     1      49.900   3.235  17.084  0.00  0.00    +0.000 A 
ATOM     24  S   UNL     1      50.826   1.822  17.306  0.00  0.00    +0.000 S 
ATOM     25  C   UNL     1      52.049   2.684  18.115  0.00  0.00    +0.000 A 
ATOM     26  N   UNL     1      53.147   2.048  18.602  0.00  0.00    +0.000 NA
ATOM     27  C   UNL     1      53.976   2.817  19.225  0.00  0.00    +0.000 A 
ATOM     28  N   UNL     1      53.809   4.166  19.401  0.00  0.00    +0.000 N 
ATOM     29  C   UNL     1      52.730   4.856  18.900  0.00  0.00    +0.000 A 
ATOM     30  O   UNL     1      52.631   6.071  19.039  0.00  0.00    +0.000 OA
ATOM     31  C   UNL     1      51.761   4.035  18.201  0.00  0.00    +0.000 A 
ATOM     32  H   UNL     1      54.499   4.713  19.893  0.00  0.00    +0.000 HD
ENDBRANCH  19  22
ENDBRANCH  17  18
ENDBRANCH   4  17
TORSDOF 6
ENDMDL
MODEL 7
REMARK VINA RESULT:    -6.109      2.957      4.734
REMARK INTER + INTRA:          -9.115
REMARK INTER:                  -8.347
REMARK INTRA:                  -0.768
REMARK UNBOUND:                -0.863
REMARK  Name = 
REMARK  6 active torsions:
REMARK  status: ('A' for Active; 'I' for Inactive)
REMARK    1  A    between atoms: C_2  and  C_25
REMARK    2  A    between atoms: N_3  and  C_4
REMARK    3  A    between atoms: C_4  and  C_5
REMARK    4  A    between atoms: C_8  and  C_9
REMARK    5  A    between atoms: C_9  and  N_10
REMARK    6  A    between atoms: C_11  and  C_13
REMARK                            x       y       z     vdW  Elec       q    Type
REMARK                         _______ _______ _______ _____ _____    ______ ____
ROOT
ATOM      1  C   UNL     1      44.949   4.274  11.771  0.00  0.00    +0.000 A 
ATOM      2  C   UNL     1      45.034   5.642  12.059  0.00  0.00    +0.000 A 
ATOM      3  C   UNL     1      45.898   6.106  13.056  0.00  0.00    +0.000 A 
ATOM      4  C   UNL     1      46.705   5.213  13.773  0.00  0.00    +0.000 A 
ATOM      5  C   UNL     1      46.606   3.844  13.495  0.00  0.00    +0.000 A 
ATOM      6  C   UNL     1      45.743   3.379  12.497  0.00  0.00    +0.000 A 
ENDROOT
BRANCH   1   7
ATOM      7  C   UNL     1      44.014   3.771  10.707  0.00  0.00    +0.000 C 
BRANCH   7  10
ATOM      8  O   UNL     1      45.338   5.165   8.732  0.00  0.00    +0.000 OA
ATOM      9  C   UNL     1      45.364   3.937   8.664  0.00  0.00    +0.000 C 
ATOM     10  N   UNL     1      44.705   3.159   9.601  0.00  0.00    +0.000 N 
ATOM     11  H   UNL     1      44.778   2.150   9.521  0.00  0.00    +0.000 HD
BRANCH   9  12
ATOM     12  C   UNL     1      46.076   3.176   7.639  0.00  0.00    +0.000 A 
ATOM     13  N   UNL     1      46.453   3.683   6.478  0.00  0.00    +0.000 NA
ATOM     14  C   UNL     1      47.085   2.700   5.737  0.00  0.00    +0.000 A 
ATOM     15  C   UNL     1      47.172   1.461   6.336  0.00  0.00    +0.000 A 
ATOM     16  S   UNL     1      46.458   1.520   7.891  0.00  0.00    +0.000 S 
ENDBRANCH   9  12
ENDBRANCH   7  10
ENDBRANCH   1   7
BRANCH   4  17
ATOM     17  C   UNL     1      47.645   5.706  14.843  0.00  0.00    +0.000 C 
BRANCH  17  18
ATOM     18  N   UNL     1      48.715   6.493  14.286  0.00  0.00    +0.000 N 
ATOM     19  C   UNL     1      49.022   7.730  14.796  0.00  0.00    +0.000 C 
ATOM     20  O   UNL     1      48.438   8.192  15.772  0.00  0.00    +0.000 OA
ATOM     21  H   UNL     1      49.048   6.236  13.362  0.00  0.00    +0.000 HD
BRANCH  19  22
ATOM     22  C   UNL     1      50.129   8.451  14.155  0.00  0.00    +0.000 A 
ATOM     23  C   UNL     1      51.392   8.422  14.733  0.00  0.00    +0.000 A 
ATOM     24  S   UNL     1      52.575   9.263  13.839  0.00  0.00    +0.000 S 
ATOM     25  C   UNL     1      51.431   9.742  12.673  0.00  0.00    +0.000 A 
ATOM     26  N   UNL     1      51.793  10.523  11.620  0.00  0.00    +0.000 NA
ATOM     27  C   UNL     1      50.819  10.841  10.834  0.00  0.00    +0.000 A 
ATOM     28  N   UNL     1      49.517  10.443  11.002  0.00  0.00    +0.000 N 
ATOM     29  C   UNL     1      49.113   9.629  12.034  0.00  0.00    +0.000 A 
ATOM     30  O   UNL     1      47.948   9.257  12.132  0.00  0.00    +0.000 OA
ATOM     31  C   UNL     1      50.168   9.252  12.955  0.00  0.00    +0.000 A 
ATOM     32  H   UNL     1      48.803  10.721  10.347  0.00  0.00    +0.000 HD
ENDBRANCH  19  22
ENDBRANCH  17  18
ENDBRANCH   4  17
TORSDOF 6
ENDMDL
MODEL 8
REMARK VINA RESULT:    -5.973      5.577      7.817
REMARK INTER + INTRA:          -8.931
REMARK INTER:                  -8.028
REMARK INTRA:                  -0.903
REMARK UNBOUND:                -0.863
REMARK  Name = 
REMARK  6 active torsions:
REMARK  status: ('A' for Active; 'I' for Inactive)
REMARK    1  A    between atoms: C_2  and  C_25
REMARK    2  A    between atoms: N_3  and  C_4
REMARK    3  A    between atoms: C_4  and  C_5
REMARK    4  A    between atoms: C_8  and  C_9
REMARK    5  A    between atoms: C_9  and  N_10
REMARK    6  A    between atoms: C_11  and  C_13
REMARK                            x       y       z     vdW  Elec       q    Type
REMARK                         _______ _______ _______ _____ _____    ______ ____
ROOT
ATOM      1  C   UNL     1      47.432   8.314  12.745  0.00  0.00    +0.000 A 
ATOM      2  C   UNL     1      47.910   9.448  12.075  0.00  0.00    +0.000 A 
ATOM      3  C   UNL     1      49.267   9.570  11.763  0.00  0.00    +0.000 A 
ATOM      4  C   UNL     1      50.170   8.553  12.098  0.00  0.00    +0.000 A 
ATOM      5  C   UNL     1      49.694   7.428  12.783  0.00  0.00    +0.000 A 
ATOM      6  C   UNL     1      48.336   7.305  13.095  0.00  0.00    +0.000 A 
ENDROOT
BRANCH   1   7
ATOM      7  C   UNL     1      45.975   8.185  13.091  0.00  0.00    +0.000 C 
BRANCH   7  10
ATOM      8  O   UNL     1      44.081   7.458  11.225  0.00  0.00    +0.000 OA
ATOM      9  C   UNL     1      44.539   6.565  11.936  0.00  0.00    +0.000 C 
ATOM     10  N   UNL     1      45.476   6.845  12.916  0.00  0.00    +0.000 N 
ATOM     11  H   UNL     1      45.847   6.072  13.459  0.00  0.00    +0.000 HD
BRANCH   9  12
ATOM     12  C   UNL     1      44.177   5.152  11.831  0.00  0.00    +0.000 A 
ATOM     13  N   UNL     1      43.929   4.378  12.874  0.00  0.00    +0.000 NA
ATOM     14  C   UNL     1      43.634   3.101  12.431  0.00  0.00    +0.000 A 
ATOM     15  C   UNL     1      43.671   2.917  11.065  0.00  0.00    +0.000 A 
ATOM     16  S   UNL     1      44.069   4.392  10.294  0.00  0.00    +0.000 S 
ENDBRANCH   9  12
ENDBRANCH   7  10
ENDBRANCH   1   7
BRANCH   4  17
ATOM     17  C   UNL     1      51.634   8.673  11.757  0.00  0.00    +0.000 C 
BRANCH  17  18
ATOM     18  N   UNL     1      51.905   8.209  10.422  0.00  0.00    +0.000 N 
ATOM     19  C   UNL     1      52.927   8.748   9.679  0.00  0.00    +0.000 C 
ATOM     20  O   UNL     1      53.678   9.605  10.137  0.00  0.00    +0.000 OA
ATOM     21  H   UNL     1      51.174   7.680   9.956  0.00  0.00    +0.000 HD
BRANCH  19  22
ATOM     22  C   UNL     1      53.119   8.205   8.329  0.00  0.00    +0.000 A 
ATOM     23  C   UNL     1      53.035   9.052   7.230  0.00  0.00    +0.000 A 
ATOM     24  S   UNL     1      53.335   8.276   5.742  0.00  0.00    +0.000 S 
ATOM     25  C   UNL     1      53.535   6.769   6.506  0.00  0.00    +0.000 A 
ATOM     26  N   UNL     1      53.795   5.648   5.781  0.00  0.00    +0.000 NA
ATOM     27  C   UNL     1      53.888   4.569   6.484  0.00  0.00    +0.000 A 
ATOM     28  N   UNL     1      53.749   4.510   7.847  0.00  0.00    +0.000 N 
ATOM     29  C   UNL     1      53.517   5.621   8.622  0.00  0.00    +0.000 A 
ATOM     30  O   UNL     1      53.439   5.540   9.844  0.00  0.00    +0.000 OA
ATOM     31  C   UNL     1      53.392   6.860   7.879  0.00  0.00    +0.000 A 
ATOM     32  H   UNL     1      53.840   3.634   8.338  0.00  0.00    +0.000 HD
ENDBRANCH  19  22
ENDBRANCH  17  18
ENDBRANCH   4  17
TORSDOF 6
ENDMDL
MODEL 9
REMARK VINA RESULT:    -5.923      1.979      2.998
REMARK INTER + INTRA:          -8.864
REMARK INTER:                  -8.349
REMARK INTRA:                  -0.515
REMARK UNBOUND:                -0.863
REMARK  Name = 
REMARK  6 active torsions:
REMARK  status: ('A' for Active; 'I' for Inactive)
REMARK    1  A    between atoms: C_2  and  C_25
REMARK    2  A    between atoms: N_3  and  C_4
REMARK    3  A    between atoms: C_4  and  C_5
REMARK    4  A    between atoms: C_8  and  C_9
REMARK    5  A    between atoms: C_9  and  N_10
REMARK    6  A    between atoms: C_11  and  C_13
REMARK                            x       y       z     vdW  Elec       q    Type
REMARK                         _______ _______ _______ _____ _____    ______ ____
ROOT
ATOM      1  C   UNL     1      45.142   4.627  11.417  0.00  0.00    +0.000 A 
ATOM      2  C   UNL     1      45.065   4.728  12.812  0.00  0.00    +0.000 A 
ATOM      3  C   UNL     1      45.679   5.790  13.484  0.00  0.00    +0.000 A 
ATOM      4  C   UNL     1      46.366   6.781  12.772  0.00  0.00    +0.000 A 
ATOM      5  C   UNL     1      46.457   6.670  11.379  0.00  0.00    +0.000 A 
ATOM      6  C   UNL     1      45.843   5.609  10.706  0.00  0.00    +0.000 A 
ENDROOT
BRANCH   1   7
ATOM      7  C   UNL     1      44.493   3.481  10.694  0.00  0.00    +0.000 C 
BRANCH   7  10
ATOM      8  O   UNL     1      44.314   4.295   8.066  0.00  0.00    +0.000 OA
ATOM      9  C   UNL     1      45.164   3.447   8.333  0.00  0.00    +0.000 C 
ATOM     10  N   UNL     1      45.307   2.964   9.623  0.00  0.00    +0.000 N 
ATOM     11  H   UNL     1      46.040   2.286   9.802  0.00  0.00    +0.000 HD
BRANCH   9  12
ATOM     12  C   UNL     1      46.102   2.878   7.367  0.00  0.00    +0.000 A 
ATOM     13  N   UNL     1      46.473   3.490   6.256  0.00  0.00    +0.000 NA
ATOM     14  C   UNL     1      47.352   2.677   5.562  0.00  0.00    +0.000 A 
ATOM     15  C   UNL     1      47.630   1.459   6.145  0.00  0.00    +0.000 A 
ATOM     16  S   UNL     1      46.782   1.322   7.626  0.00  0.00    +0.000 S 
ENDBRANCH   9  12
ENDBRANCH   7  10
ENDBRANCH   1   7
BRANCH   4  17
ATOM     17  C   UNL     1      47.023   7.934  13.488  0.00  0.00    +0.000 C 
BRANCH  17  18
ATOM     18  N   UNL     1      47.565   7.528  14.758  0.00  0.00    +0.000 N 
ATOM     19  C   UNL     1      48.832   7.006  14.852  0.00  0.00    +0.000 C 
ATOM     20  O   UNL     1      49.568   6.913  13.874  0.00  0.00    +0.000 OA
ATOM     21  H   UNL     1      46.909   7.387  15.520  0.00  0.00    +0.000 HD
BRANCH  19  22
ATOM     22  C   UNL     1      49.289   6.622  16.193  0.00  0.00    +0.000 A 
ATOM     23  C   UNL     1      48.784   5.472  16.787  0.00  0.00    +0.000 A 
ATOM     24  S   UNL     1      49.456   5.140  18.319  0.00  0.00    +0.000 S 
ATOM     25  C   UNL     1      50.408   6.549  18.267  0.00  0.00    +0.000 A 
ATOM     26  N   UNL     1      51.220   6.881  19.306  0.00  0.00    +0.000 NA
ATOM     27  C   UNL     1      51.857   7.994  19.149  0.00  0.00    +0.000 A 
ATOM     28  N   UNL     1      51.760   8.801  18.046  0.00  0.00    +0.000 N 
ATOM     29  C   UNL     1      50.975   8.490  16.961  0.00  0.00    +0.000 A 
ATOM     30  O   UNL     1      50.943   9.214  15.970  0.00  0.00    +0.000 OA
ATOM     31  C   UNL     1      50.227   7.254  17.090  0.00  0.00    +0.000 A 
ATOM     32  H   UNL     1      52.290   9.656  17.982  0.00  0.00    +0.000 HD
ENDBRANCH  19  22
ENDBRANCH  17  18
ENDBRANCH   4  17
TORSDOF 6
ENDMDL
