MODEL 1
REMARK VINA RESULT:    -8.111      0.000      0.000
REMARK INTER + INTRA:         -13.417
REMARK INTER:                 -12.616
REMARK INTRA:                  -0.801
REMARK UNBOUND:                -0.801
REMARK  Name = 
REMARK  10 active torsions:
REMARK  status: ('A' for Active; 'I' for Inactive)
REMARK    1  A    between atoms: N_1  and  C_2
REMARK    2  A    between atoms: C_2  and  C_3
REMARK    3  A    between atoms: C_3  and  N_4
REMARK    4  A    between atoms: C_3  and  C_20
REMARK    5  A    between atoms: N_4  and  C_5
REMARK    6  A    between atoms: C_5  and  C_6
REMARK    7  A    between atoms: C_9  and  C_10
REMARK    8  A    between atoms: C_10  and  N_11
REMARK    9  A    between atoms: N_11  and  C_12
REMARK   10  A    between atoms: C_12  and  C_13
REMARK                            x       y       z     vdW  Elec       q    Type
REMARK                         _______ _______ _______ _____ _____    ______ ____
ROOT
ATOM      1  N   UNL     1      48.096   6.065  16.169  0.00  0.00    +0.000 NA
ATOM      2  H   UNL     1      48.620   6.684  16.793  0.00  0.00    +0.000 HD
ENDROOT
BRANCH   1   3
ATOM      3  C   UNL     1      48.210   4.682  16.663  0.00  0.00    +0.000 C 
BRANCH   3   4
ATOM      4  C   UNL     1      49.579   4.582  17.340  0.00  0.00    +0.000 A 
ATOM      5  C   UNL     1      50.177   5.614  18.053  0.00  0.00    +0.000 A 
ATOM      6  S   UNL     1      51.702   5.206  18.698  0.00  0.00    +0.000 S 
ATOM      7  C   UNL     1      51.602   3.624  18.083  0.00  0.00    +0.000 A 
ATOM      8  N   UNL     1      52.592   2.719  18.314  0.00  0.00    +0.000 NA
ATOM      9  C   UNL     1      52.367   1.550  17.813  0.00  0.00    +0.000 A 
ATOM     10  N   UNL     1      51.250   1.205  17.096  0.00  0.00    +0.000 N 
ATOM     11  C   UNL     1      50.232   2.091  16.814  0.00  0.00    +0.000 A 
ATOM     12  O   UNL     1      49.253   1.758  16.157  0.00  0.00    +0.000 OA
ATOM     13  C   UNL     1      50.431   3.416  17.377  0.00  0.00    +0.000 A 
ATOM     14  H   UNL     1      51.142   0.271  16.732  0.00  0.00    +0.000 HD
ENDBRANCH   3   4
BRANCH   3  15
ATOM     15  C   UNL     1      47.097   4.253  17.683  0.00  0.00    +0.000 C 
BRANCH  15  16
ATOM     16  N   UNL     1      46.715   2.832  17.677  0.00  0.00    +0.000 NA
ATOM     17  H   UNL     1      45.994   2.675  18.379  0.00  0.00    +0.000 HD
ATOM     18  H   UNL     1      47.518   2.262  17.941  0.00  0.00    +0.000 HD
ENDBRANCH  15  16
ENDBRANCH   3  15
ENDBRANCH   1   3
BRANCH   1  19
ATOM     19  C   UNL     1      48.663   6.268  14.834  0.00  0.00    +0.000 C 
BRANCH  19  20
ATOM     20  C   UNL     1      47.616   6.042  13.757  0.00  0.00    +0.000 A 
ATOM     21  C   UNL     1      47.651   6.797  12.586  0.00  0.00    +0.000 A 
ATOM     22  C   UNL     1      46.682   6.574  11.614  0.00  0.00    +0.000 A 
ATOM     23  C   UNL     1      45.707   5.598  11.821  0.00  0.00    +0.000 A 
ATOM     24  C   UNL     1      45.754   4.889  13.016  0.00  0.00    +0.000 A 
ATOM     25  N   UNL     1      46.674   5.090  13.988  0.00  0.00    +0.000 NA
BRANCH  23  26
ATOM     26  C   UNL     1      44.621   5.344  10.809  0.00  0.00    +0.000 C 
BRANCH  26  27
ATOM     27  N   UNL     1      45.159   5.223   9.459  0.00  0.00    +0.000 NA
ATOM     28  H   UNL     1      46.165   5.050   9.507  0.00  0.00    +0.000 HD
BRANCH  27  29
ATOM     29  C   UNL     1      44.551   4.087   8.761  0.00  0.00    +0.000 C 
BRANCH  29  30
ATOM     30  C   UNL     1      45.645   3.288   8.135  0.00  0.00    +0.000 A 
ATOM     31  C   UNL     1      45.965   1.956   8.318  0.00  0.00    +0.000 A 
ATOM     32  N   UNL     1      47.023   1.723   7.493  0.00  0.00    +0.000 N 
ATOM     33  C   UNL     1      47.314   2.890   6.850  0.00  0.00    +0.000 A 
ATOM     34  N   UNL     1      46.503   3.857   7.216  0.00  0.00    +0.000 NA
ATOM     35  H   UNL     1      47.504   0.841   7.367  0.00  0.00    +0.000 HD
ENDBRANCH  29  30
ENDBRANCH  27  29
ENDBRANCH  26  27
ENDBRANCH  23  26
ENDBRANCH  19  20
ENDBRANCH   1  19
TORSDOF 10
ENDMDL
MODEL 2
REMARK VINA RESULT:    -7.469      2.577      3.653
REMARK INTER + INTRA:         -12.417
REMARK INTER:                 -11.337
REMARK INTRA:                  -1.080
REMARK UNBOUND:                -0.801
REMARK  Name = 
REMARK  10 active torsions:
REMARK  status: ('A' for Active; 'I' for Inactive)
REMARK    1  A    between atoms: N_1  and  C_2
REMARK    2  A    between atoms: C_2  and  C_3
REMARK    3  A    between atoms: C_3  and  N_4
REMARK    4  A    between atoms: C_3  and  C_20
REMARK    5  A    between atoms: N_4  and  C_5
REMARK    6  A    between atoms: C_5  and  C_6
REMARK    7  A    between atoms: C_9  and  C_10
REMARK    8  A    between atoms: C_10  and  N_11
REMARK    9  A    between atoms: N_11  and  C_12
REMARK   10  A    between atoms: C_12  and  C_13
REMARK                            x       y       z     vdW  Elec       q    Type
REMARK                         _______ _______ _______ _____ _____    ______ ____
ROOT
ATOM      1  N   UNL     1      47.195   4.706  15.610  0.00  0.00    +0.000 NA
ATOM      2  H   UNL     1      47.279   5.603  15.125  0.00  0.00    +0.000 HD
ENDROOT
BRANCH   1   3
ATOM      3  C   UNL     1      48.233   4.629  16.653  0.00  0.00    +0.000 C 
BRANCH   3   4
ATOM      4  C   UNL     1      48.281   6.011  17.310  0.00  0.00    +0.000 A 
ATOM      5  C   UNL     1      47.894   6.270  18.618  0.00  0.00    +0.000 A 
ATOM      6  S   UNL     1      48.064   7.905  19.071  0.00  0.00    +0.000 S 
ATOM      7  C   UNL     1      48.700   8.320  17.549  0.00  0.00    +0.000 A 
ATOM      8  N   UNL     1      49.095   9.594  17.279  0.00  0.00    +0.000 NA
ATOM      9  C   UNL     1      49.586   9.756  16.096  0.00  0.00    +0.000 A 
ATOM     10  N   UNL     1      49.709   8.764  15.156  0.00  0.00    +0.000 N 
ATOM     11  C   UNL     1      49.301   7.465  15.371  0.00  0.00    +0.000 A 
ATOM     12  O   UNL     1      49.410   6.604  14.506  0.00  0.00    +0.000 OA
ATOM     13  C   UNL     1      48.761   7.230  16.700  0.00  0.00    +0.000 A 
ATOM     14  H   UNL     1      50.101   8.964  14.248  0.00  0.00    +0.000 HD
ENDBRANCH   3   4
BRANCH   3  15
ATOM     15  C   UNL     1      47.980   3.542  17.756  0.00  0.00    +0.000 C 
BRANCH  15  16
ATOM     16  N   UNL     1      46.653   2.905  17.757  0.00  0.00    +0.000 NA
ATOM     17  H   UNL     1      46.735   1.959  17.389  0.00  0.00    +0.000 HD
ATOM     18  H   UNL     1      46.030   3.415  17.132  0.00  0.00    +0.000 HD
ENDBRANCH  15  16
ENDBRANCH   3  15
ENDBRANCH   1   3
BRANCH   1  19
ATOM     19  C   UNL     1      47.315   3.677  14.576  0.00  0.00    +0.000 C 
BRANCH  19  20
ATOM     20  C   UNL     1      46.432   3.998  13.383  0.00  0.00    +0.000 A 
ATOM     21  C   UNL     1      46.424   5.287  12.852  0.00  0.00    +0.000 A 
ATOM     22  C   UNL     1      45.607   5.559  11.760  0.00  0.00    +0.000 A 
ATOM     23  C   UNL     1      44.824   4.542  11.212  0.00  0.00    +0.000 A 
ATOM     24  C   UNL     1      44.901   3.287  11.803  0.00  0.00    +0.000 A 
ATOM     25  N   UNL     1      45.675   2.992  12.874  0.00  0.00    +0.000 NA
BRANCH  23  26
ATOM     26  C   UNL     1      43.902   4.800  10.050  0.00  0.00    +0.000 C 
BRANCH  26  27
ATOM     27  N   UNL     1      44.185   3.910   8.929  0.00  0.00    +0.000 NA
ATOM     28  H   UNL     1      43.482   4.048   8.199  0.00  0.00    +0.000 HD
BRANCH  27  29
ATOM     29  C   UNL     1      45.492   4.218   8.344  0.00  0.00    +0.000 C 
BRANCH  29  30
ATOM     30  C   UNL     1      46.149   2.930   7.971  0.00  0.00    +0.000 A 
ATOM     31  C   UNL     1      45.867   1.651   8.409  0.00  0.00    +0.000 A 
ATOM     32  N   UNL     1      46.736   0.841   7.741  0.00  0.00    +0.000 N 
ATOM     33  C   UNL     1      47.506   1.631   6.939  0.00  0.00    +0.000 A 
ATOM     34  N   UNL     1      47.180   2.899   7.056  0.00  0.00    +0.000 NA
ATOM     35  H   UNL     1      46.795  -0.166   7.815  0.00  0.00    +0.000 HD
ENDBRANCH  29  30
ENDBRANCH  27  29
ENDBRANCH  26  27
ENDBRANCH  23  26
ENDBRANCH  19  20
ENDBRANCH   1  19
TORSDOF 10
ENDMDL
MODEL 3
REMARK VINA RESULT:    -7.128      1.164      1.567
REMARK INTER + INTRA:         -11.888
REMARK INTER:                 -11.022
REMARK INTRA:                  -0.866
REMARK UNBOUND:                -0.801
REMARK  Name = 
REMARK  10 active torsions:
REMARK  status: ('A' for Active; 'I' for Inactive)
REMARK    1  A    between atoms: N_1  and  C_2
REMARK    2  A    between atoms: C_2  and  C_3
REMARK    3  A    between atoms: C_3  and  N_4
REMARK    4  A    between atoms: C_3  and  C_20
REMARK    5  A    between atoms: N_4  and  C_5
REMARK    6  A    between atoms: C_5  and  C_6
REMARK    7  A    between atoms: C_9  and  C_10
REMARK    8  A    between atoms: C_10  and  N_11
REMARK    9  A    between atoms: N_11  and  C_12
REMARK   10  A    between atoms: C_12  and  C_13
REMARK                            x       y       z     vdW  Elec       q    Type
REMARK                         _______ _______ _______ _____ _____    ______ ____
ROOT
ATOM      1  N   UNL     1      48.492   5.123  15.639  0.00  0.00    +0.000 NA
ATOM      2  H   UNL     1      47.677   4.511  15.552  0.00  0.00    +0.000 HD
ENDROOT
BRANCH   1   3
ATOM      3  C   UNL     1      48.651   5.508  17.052  0.00  0.00    +0.000 C 
BRANCH   3   4
ATOM      4  C   UNL     1      50.037   5.017  17.475  0.00  0.00    +0.000 A 
ATOM      5  C   UNL     1      51.019   5.828  18.031  0.00  0.00    +0.000 A 
ATOM      6  S   UNL     1      52.460   4.998  18.406  0.00  0.00    +0.000 S 
ATOM      7  C   UNL     1      51.812   3.517  17.877  0.00  0.00    +0.000 A 
ATOM      8  N   UNL     1      52.535   2.367  17.959  0.00  0.00    +0.000 NA
ATOM      9  C   UNL     1      51.906   1.316  17.549  0.00  0.00    +0.000 A 
ATOM     10  N   UNL     1      50.626   1.311  17.057  0.00  0.00    +0.000 N 
ATOM     11  C   UNL     1      49.861   2.451  16.931  0.00  0.00    +0.000 A 
ATOM     12  O   UNL     1      48.725   2.418  16.472  0.00  0.00    +0.000 OA
ATOM     13  C   UNL     1      50.521   3.658  17.400  0.00  0.00    +0.000 A 
ATOM     14  H   UNL     1      50.197   0.451  16.751  0.00  0.00    +0.000 HD
ENDBRANCH   3   4
BRANCH   3  15
ATOM     15  C   UNL     1      48.541   7.049  17.331  0.00  0.00    +0.000 C 
BRANCH  15  16
ATOM     16  N   UNL     1      47.548   7.464  18.335  0.00  0.00    +0.000 NA
ATOM     17  H   UNL     1      47.561   8.479  18.419  0.00  0.00    +0.000 HD
ATOM     18  H   UNL     1      47.805   7.086  19.245  0.00  0.00    +0.000 HD
ENDBRANCH  15  16
ENDBRANCH   3  15
ENDBRANCH   1   3
BRANCH   1  19
ATOM     19  C   UNL     1      48.245   6.251  14.739  0.00  0.00    +0.000 C 
BRANCH  19  20
ATOM     20  C   UNL     1      47.254   5.874  13.651  0.00  0.00    +0.000 A 
ATOM     21  C   UNL     1      46.417   4.774  13.827  0.00  0.00    +0.000 A 
ATOM     22  C   UNL     1      45.517   4.446  12.819  0.00  0.00    +0.000 A 
ATOM     23  C   UNL     1      45.461   5.225  11.662  0.00  0.00    +0.000 A 
ATOM     24  C   UNL     1      46.330   6.307  11.577  0.00  0.00    +0.000 A 
ATOM     25  N   UNL     1      47.226   6.645  12.534  0.00  0.00    +0.000 NA
BRANCH  23  26
ATOM     26  C   UNL     1      44.526   4.888  10.532  0.00  0.00    +0.000 C 
BRANCH  26  27
ATOM     27  N   UNL     1      44.932   3.670   9.839  0.00  0.00    +0.000 NA
ATOM     28  H   UNL     1      44.132   3.039   9.763  0.00  0.00    +0.000 HD
BRANCH  27  29
ATOM     29  C   UNL     1      45.381   3.976   8.479  0.00  0.00    +0.000 C 
BRANCH  29  30
ATOM     30  C   UNL     1      46.183   2.817   7.984  0.00  0.00    +0.000 A 
ATOM     31  C   UNL     1      46.032   1.472   8.262  0.00  0.00    +0.000 A 
ATOM     32  N   UNL     1      46.998   0.844   7.536  0.00  0.00    +0.000 N 
ATOM     33  C   UNL     1      47.695   1.799   6.857  0.00  0.00    +0.000 A 
ATOM     34  N   UNL     1      47.231   3.003   7.107  0.00  0.00    +0.000 NA
ATOM     35  H   UNL     1      47.165  -0.154   7.495  0.00  0.00    +0.000 HD
ENDBRANCH  29  30
ENDBRANCH  27  29
ENDBRANCH  26  27
ENDBRANCH  23  26
ENDBRANCH  19  20
ENDBRANCH   1  19
TORSDOF 10
ENDMDL
MODEL 4
REMARK VINA RESULT:    -6.970      2.997      8.941
REMARK INTER + INTRA:         -11.641
REMARK INTER:                 -10.895
REMARK INTRA:                  -0.746
REMARK UNBOUND:                -0.801
REMARK  Name = 
REMARK  10 active torsions:
REMARK  status: ('A' for Active; 'I' for Inactive)
REMARK    1  A    between atoms: N_1  and  C_2
REMARK    2  A    between atoms: C_2  and  C_3
REMARK    3  A    between atoms: C_3  and  N_4
REMARK    4  A    between atoms: C_3  and  C_20
REMARK    5  A    between atoms: N_4  and  C_5
REMARK    6  A    between atoms: C_5  and  C_6
REMARK    7  A    between atoms: C_9  and  C_10
REMARK    8  A    between atoms: C_10  and  N_11
REMARK    9  A    between atoms: N_11  and  C_12
REMARK   10  A    between atoms: C_12  and  C_13
REMARK                            x       y       z     vdW  Elec       q    Type
REMARK                         _______ _______ _______ _____ _____    ______ ____
ROOT
ATOM      1  N   UNL     1      46.156   6.927  13.243  0.00  0.00    +0.000 NA
ATOM      2  H   UNL     1      45.673   6.246  13.834  0.00  0.00    +0.000 HD
ENDROOT
BRANCH   1   3
ATOM      3  C   UNL     1      45.665   6.790  11.860  0.00  0.00    +0.000 C 
BRANCH   3   4
ATOM      4  C   UNL     1      44.979   5.423  11.785  0.00  0.00    +0.000 A 
ATOM      5  C   UNL     1      44.257   4.852  12.824  0.00  0.00    +0.000 A 
ATOM      6  S   UNL     1      43.603   3.323  12.444  0.00  0.00    +0.000 S 
ATOM      7  C   UNL     1      44.228   3.387  10.863  0.00  0.00    +0.000 A 
ATOM      8  N   UNL     1      43.995   2.380   9.977  0.00  0.00    +0.000 NA
ATOM      9  C   UNL     1      44.504   2.577   8.807  0.00  0.00    +0.000 A 
ATOM     10  N   UNL     1      45.230   3.682   8.443  0.00  0.00    +0.000 N 
ATOM     11  C   UNL     1      45.514   4.717   9.310  0.00  0.00    +0.000 A 
ATOM     12  O   UNL     1      46.180   5.685   8.961  0.00  0.00    +0.000 OA
ATOM     13  C   UNL     1      44.943   4.548  10.635  0.00  0.00    +0.000 A 
ATOM     14  H   UNL     1      45.601   3.769   7.509  0.00  0.00    +0.000 HD
ENDBRANCH   3   4
BRANCH   3  15
ATOM     15  C   UNL     1      44.654   7.901  11.407  0.00  0.00    +0.000 C 
BRANCH  15  16
ATOM     16  N   UNL     1      43.291   7.453  11.081  0.00  0.00    +0.000 NA
ATOM     17  H   UNL     1      43.283   7.057  10.143  0.00  0.00    +0.000 HD
ATOM     18  H   UNL     1      42.662   8.255  11.072  0.00  0.00    +0.000 HD
ENDBRANCH  15  16
ENDBRANCH   3  15
ENDBRANCH   1   3
BRANCH   1  19
ATOM     19  C   UNL     1      47.585   6.648  13.396  0.00  0.00    +0.000 C 
BRANCH  19  20
ATOM     20  C   UNL     1      47.849   5.827  14.647  0.00  0.00    +0.000 A 
ATOM     21  C   UNL     1      48.650   6.348  15.662  0.00  0.00    +0.000 A 
ATOM     22  C   UNL     1      48.879   5.579  16.798  0.00  0.00    +0.000 A 
ATOM     23  C   UNL     1      48.299   4.315  16.905  0.00  0.00    +0.000 A 
ATOM     24  C   UNL     1      47.510   3.881  15.846  0.00  0.00    +0.000 A 
ATOM     25  N   UNL     1      47.278   4.597  14.722  0.00  0.00    +0.000 NA
BRANCH  23  26
ATOM     26  C   UNL     1      48.545   3.436  18.102  0.00  0.00    +0.000 C 
BRANCH  26  27
ATOM     27  N   UNL     1      49.971   3.234  18.339  0.00  0.00    +0.000 NA
ATOM     28  H   UNL     1      50.104   2.776  19.243  0.00  0.00    +0.000 HD
BRANCH  27  29
ATOM     29  C   UNL     1      50.545   2.359  17.315  0.00  0.00    +0.000 C 
BRANCH  29  30
ATOM     30  C   UNL     1      51.867   1.871  17.808  0.00  0.00    +0.000 A 
ATOM     31  C   UNL     1      52.373   0.586  17.816  0.00  0.00    +0.000 A 
ATOM     32  N   UNL     1      53.624   0.695  18.344  0.00  0.00    +0.000 N 
ATOM     33  C   UNL     1      53.838   2.009  18.639  0.00  0.00    +0.000 A 
ATOM     34  N   UNL     1      52.796   2.747  18.331  0.00  0.00    +0.000 NA
ATOM     35  H   UNL     1      54.285  -0.059  18.484  0.00  0.00    +0.000 HD
ENDBRANCH  29  30
ENDBRANCH  27  29
ENDBRANCH  26  27
ENDBRANCH  23  26
ENDBRANCH  19  20
ENDBRANCH   1  19
TORSDOF 10
ENDMDL
MODEL 5
REMARK VINA RESULT:    -6.717      3.433      9.348
REMARK INTER + INTRA:         -11.248
REMARK INTER:                 -10.300
REMARK INTRA:                  -0.948
REMARK UNBOUND:                -0.801
REMARK  Name = 
REMARK  10 active torsions:
REMARK  status: ('A' for Active; 'I' for Inactive)
REMARK    1  A    between atoms: N_1  and  C_2
REMARK    2  A    between atoms: C_2  and  C_3
REMARK    3  A    between atoms: C_3  and  N_4
REMARK    4  A    between atoms: C_3  and  C_20
REMARK    5  A    between atoms: N_4  and  C_5
REMARK    6  A    between atoms: C_5  and  C_6
REMARK    7  A    between atoms: C_9  and  C_10
REMARK    8  A    between atoms: C_10  and  N_11
REMARK    9  A    between atoms: N_11  and  C_12
REMARK   10  A    between atoms: C_12  and  C_13
REMARK                            x       y       z     vdW  Elec       q    Type
REMARK                         _______ _______ _______ _____ _____    ______ ____
ROOT
ATOM      1  N   UNL     1      46.091   6.579  13.158  0.00  0.00    +0.000 NA
ATOM      2  H   UNL     1      45.587   5.890  13.724  0.00  0.00    +0.000 HD
ENDROOT
BRANCH   1   3
ATOM      3  C   UNL     1      45.598   6.508  11.772  0.00  0.00    +0.000 C 
BRANCH   3   4
ATOM      4  C   UNL     1      44.949   5.130  11.619  0.00  0.00    +0.000 A 
ATOM      5  C   UNL     1      44.229   4.489  12.619  0.00  0.00    +0.000 A 
ATOM      6  S   UNL     1      43.620   2.965  12.155  0.00  0.00    +0.000 S 
ATOM      7  C   UNL     1      44.261   3.124  10.588  0.00  0.00    +0.000 A 
ATOM      8  N   UNL     1      44.065   2.156   9.651  0.00  0.00    +0.000 NA
ATOM      9  C   UNL     1      44.583   2.424   8.498  0.00  0.00    +0.000 A 
ATOM     10  N   UNL     1      45.285   3.564   8.200  0.00  0.00    +0.000 N 
ATOM     11  C   UNL     1      45.532   4.561   9.120  0.00  0.00    +0.000 A 
ATOM     12  O   UNL     1      46.176   5.561   8.828  0.00  0.00    +0.000 OA
ATOM     13  C   UNL     1      44.949   4.313  10.428  0.00  0.00    +0.000 A 
ATOM     14  H   UNL     1      45.664   3.706   7.276  0.00  0.00    +0.000 HD
ENDBRANCH   3   4
BRANCH   3  15
ATOM     15  C   UNL     1      44.556   7.615  11.385  0.00  0.00    +0.000 C 
BRANCH  15  16
ATOM     16  N   UNL     1      43.180   7.160  11.129  0.00  0.00    +0.000 NA
ATOM     17  H   UNL     1      43.061   6.222  11.508  0.00  0.00    +0.000 HD
ATOM     18  H   UNL     1      43.023   7.098  10.124  0.00  0.00    +0.000 HD
ENDBRANCH  15  16
ENDBRANCH   3  15
ENDBRANCH   1   3
BRANCH   1  19
ATOM     19  C   UNL     1      47.511   6.254  13.302  0.00  0.00    +0.000 C 
BRANCH  19  20
ATOM     20  C   UNL     1      47.783   5.573  14.632  0.00  0.00    +0.000 A 
ATOM     21  C   UNL     1      47.086   4.415  14.973  0.00  0.00    +0.000 A 
ATOM     22  C   UNL     1      47.350   3.808  16.196  0.00  0.00    +0.000 A 
ATOM     23  C   UNL     1      48.309   4.358  17.049  0.00  0.00    +0.000 A 
ATOM     24  C   UNL     1      48.958   5.510  16.621  0.00  0.00    +0.000 A 
ATOM     25  N   UNL     1      48.716   6.133  15.445  0.00  0.00    +0.000 NA
BRANCH  23  26
ATOM     26  C   UNL     1      48.604   3.753  18.395  0.00  0.00    +0.000 C 
BRANCH  26  27
ATOM     27  N   UNL     1      47.825   4.385  19.454  0.00  0.00    +0.000 NA
ATOM     28  H   UNL     1      47.327   3.668  19.985  0.00  0.00    +0.000 HD
BRANCH  27  29
ATOM     29  C   UNL     1      48.704   5.093  20.387  0.00  0.00    +0.000 C 
BRANCH  29  30
ATOM     30  C   UNL     1      48.638   6.551  20.071  0.00  0.00    +0.000 A 
ATOM     31  C   UNL     1      49.625   7.511  20.184  0.00  0.00    +0.000 A 
ATOM     32  N   UNL     1      49.056   8.667  19.741  0.00  0.00    +0.000 N 
ATOM     33  C   UNL     1      47.770   8.386  19.384  0.00  0.00    +0.000 A 
ATOM     34  N   UNL     1      47.483   7.118  19.573  0.00  0.00    +0.000 NA
ATOM     35  H   UNL     1      49.505   9.571  19.675  0.00  0.00    +0.000 HD
ENDBRANCH  29  30
ENDBRANCH  27  29
ENDBRANCH  26  27
ENDBRANCH  23  26
ENDBRANCH  19  20
ENDBRANCH   1  19
TORSDOF 10
ENDMDL
MODEL 6
REMARK VINA RESULT:    -6.546      3.639      8.077
REMARK INTER + INTRA:         -10.982
REMARK INTER:                  -9.245
REMARK INTRA:                  -1.737
REMARK UNBOUND:                -0.801
REMARK  Name = 
REMARK  10 active torsions:
REMARK  status: ('A' for Active; 'I' for Inactive)
REMARK    1  A    between atoms: N_1  and  C_2
REMARK    2  A    between atoms: C_2  and  C_3
REMARK    3  A    between atoms: C_3  and  N_4
REMARK    4  A    between atoms: C_3  and  C_20
REMARK    5  A    between atoms: N_4  and  C_5
REMARK    6  A    between atoms: C_5  and  C_6
REMARK    7  A    between atoms: C_9  and  C_10
REMARK    8  A    between atoms: C_10  and  N_11
REMARK    9  A    between atoms: N_11  and  C_12
REMARK   10  A    between atoms: C_12  and  C_13
REMARK                            x       y       z     vdW  Elec       q    Type
REMARK                         _______ _______ _______ _____ _____    ______ ____
ROOT
ATOM      1  N   UNL     1      46.816   8.459  13.848  0.00  0.00    +0.000 NA
ATOM      2  H   UNL     1      46.179   8.324  14.639  0.00  0.00    +0.000 HD
ENDROOT
BRANCH   1   3
ATOM      3  C   UNL     1      47.153   7.143  13.278  0.00  0.00    +0.000 C 
BRANCH   3   4
ATOM      4  C   UNL     1      45.865   6.610  12.644  0.00  0.00    +0.000 A 
ATOM      5  C   UNL     1      44.924   7.402  12.000  0.00  0.00    +0.000 A 
ATOM      6  S   UNL     1      43.595   6.526  11.390  0.00  0.00    +0.000 S 
ATOM      7  C   UNL     1      44.248   5.051  11.929  0.00  0.00    +0.000 A 
ATOM      8  N   UNL     1      43.607   3.874  11.691  0.00  0.00    +0.000 NA
ATOM      9  C   UNL     1      44.234   2.833  12.130  0.00  0.00    +0.000 A 
ATOM     10  N   UNL     1      45.434   2.862  12.792  0.00  0.00    +0.000 N 
ATOM     11  C   UNL     1      46.110   4.029  13.079  0.00  0.00    +0.000 A 
ATOM     12  O   UNL     1      47.174   4.025  13.686  0.00  0.00    +0.000 OA
ATOM     13  C   UNL     1      45.452   5.227  12.584  0.00  0.00    +0.000 A 
ATOM     14  H   UNL     1      45.866   2.008  13.110  0.00  0.00    +0.000 HD
ENDBRANCH   3   4
BRANCH   3  15
ATOM     15  C   UNL     1      48.290   7.165  12.197  0.00  0.00    +0.000 C 
BRANCH  15  16
ATOM     16  N   UNL     1      49.612   6.680  12.625  0.00  0.00    +0.000 NA
ATOM     17  H   UNL     1      49.502   6.091  13.449  0.00  0.00    +0.000 HD
ATOM     18  H   UNL     1      50.193   7.470  12.897  0.00  0.00    +0.000 HD
ENDBRANCH  15  16
ENDBRANCH   3  15
ENDBRANCH   1   3
BRANCH   1  19
ATOM     19  C   UNL     1      47.968   9.189  14.381  0.00  0.00    +0.000 C 
BRANCH  19  20
ATOM     20  C   UNL     1      48.414   8.607  15.711  0.00  0.00    +0.000 A 
ATOM     21  C   UNL     1      47.904   9.123  16.900  0.00  0.00    +0.000 A 
ATOM     22  C   UNL     1      48.327   8.576  18.107  0.00  0.00    +0.000 A 
ATOM     23  C   UNL     1      49.239   7.520  18.105  0.00  0.00    +0.000 A 
ATOM     24  C   UNL     1      49.689   7.066  16.870  0.00  0.00    +0.000 A 
ATOM     25  N   UNL     1      49.308   7.585  15.680  0.00  0.00    +0.000 NA
BRANCH  23  26
ATOM     26  C   UNL     1      49.748   6.919  19.387  0.00  0.00    +0.000 C 
BRANCH  26  27
ATOM     27  N   UNL     1      50.020   5.492  19.244  0.00  0.00    +0.000 NA
ATOM     28  H   UNL     1      50.769   5.222  19.884  0.00  0.00    +0.000 HD
BRANCH  27  29
ATOM     29  C   UNL     1      48.836   4.705  19.595  0.00  0.00    +0.000 C 
BRANCH  29  30
ATOM     30  C   UNL     1      48.354   4.015  18.362  0.00  0.00    +0.000 A 
ATOM     31  C   UNL     1      47.212   4.252  17.621  0.00  0.00    +0.000 A 
ATOM     32  N   UNL     1      47.265   3.369  16.585  0.00  0.00    +0.000 N 
ATOM     33  C   UNL     1      48.405   2.634  16.723  0.00  0.00    +0.000 A 
ATOM     34  N   UNL     1      49.086   2.996  17.788  0.00  0.00    +0.000 NA
ATOM     35  H   UNL     1      46.587   3.278  15.839  0.00  0.00    +0.000 HD
ENDBRANCH  29  30
ENDBRANCH  27  29
ENDBRANCH  26  27
ENDBRANCH  23  26
ENDBRANCH  19  20
ENDBRANCH   1  19
TORSDOF 10
ENDMDL
MODEL 7
REMARK VINA RESULT:    -6.407      3.298      8.526
REMARK INTER + INTRA:         -10.766
REMARK INTER:                  -9.661
REMARK INTRA:                  -1.105
REMARK UNBOUND:                -0.801
REMARK  Name = 
REMARK  10 active torsions:
REMARK  status: ('A' for Active; 'I' for Inactive)
REMARK    1  A    between atoms: N_1  and  C_2
REMARK    2  A    between atoms: C_2  and  C_3
REMARK    3  A    between atoms: C_3  and  N_4
REMARK    4  A    between atoms: C_3  and  C_20
REMARK    5  A    between atoms: N_4  and  C_5
REMARK    6  A    between atoms: C_5  and  C_6
REMARK    7  A    between atoms: C_9  and  C_10
REMARK    8  A    between atoms: C_10  and  N_11
REMARK    9  A    between atoms: N_11  and  C_12
REMARK   10  A    between atoms: C_12  and  C_13
REMARK                            x       y       z     vdW  Elec       q    Type
REMARK                         _______ _______ _______ _____ _____    ______ ____
ROOT
ATOM      1  N   UNL     1      47.124   6.965  12.021  0.00  0.00    +0.000 NA
ATOM      2  H   UNL     1      47.799   6.521  11.393  0.00  0.00    +0.000 HD
ENDROOT
BRANCH   1   3
ATOM      3  C   UNL     1      45.833   7.089  11.322  0.00  0.00    +0.000 C 
BRANCH   3   4
ATOM      4  C   UNL     1      45.089   5.773  11.562  0.00  0.00    +0.000 A 
ATOM      5  C   UNL     1      44.403   5.464  12.729  0.00  0.00    +0.000 A 
ATOM      6  S   UNL     1      43.668   3.926  12.704  0.00  0.00    +0.000 S 
ATOM      7  C   UNL     1      44.205   3.633  11.117  0.00  0.00    +0.000 A 
ATOM      8  N   UNL     1      43.881   2.480  10.470  0.00  0.00    +0.000 NA
ATOM      9  C   UNL     1      44.331   2.407   9.262  0.00  0.00    +0.000 A 
ATOM     10  N   UNL     1      45.081   3.376   8.644  0.00  0.00    +0.000 N 
ATOM     11  C   UNL     1      45.455   4.550   9.264  0.00  0.00    +0.000 A 
ATOM     12  O   UNL     1      46.139   5.390   8.693  0.00  0.00    +0.000 OA
ATOM     13  C   UNL     1      44.953   4.685  10.621  0.00  0.00    +0.000 A 
ATOM     14  H   UNL     1      45.401   3.251   7.696  0.00  0.00    +0.000 HD
ENDBRANCH   3   4
BRANCH   3  15
ATOM     15  C   UNL     1      44.937   8.285  11.801  0.00  0.00    +0.000 C 
BRANCH  15  16
ATOM     16  N   UNL     1      43.726   8.554  11.009  0.00  0.00    +0.000 NA
ATOM     17  H   UNL     1      43.051   7.807  11.163  0.00  0.00    +0.000 HD
ATOM     18  H   UNL     1      43.958   8.547  10.017  0.00  0.00    +0.000 HD
ENDBRANCH  15  16
ENDBRANCH   3  15
ENDBRANCH   1   3
BRANCH   1  19
ATOM     19  C   UNL     1      47.717   8.246  12.407  0.00  0.00    +0.000 C 
BRANCH  19  20
ATOM     20  C   UNL     1      48.325   8.169  13.797  0.00  0.00    +0.000 A 
ATOM     21  C   UNL     1      49.360   7.272  14.052  0.00  0.00    +0.000 A 
ATOM     22  C   UNL     1      49.902   7.217  15.332  0.00  0.00    +0.000 A 
ATOM     23  C   UNL     1      49.411   8.063  16.327  0.00  0.00    +0.000 A 
ATOM     24  C   UNL     1      48.382   8.930  15.979  0.00  0.00    +0.000 A 
ATOM     25  N   UNL     1      47.823   8.999  14.748  0.00  0.00    +0.000 NA
BRANCH  23  26
ATOM     26  C   UNL     1      49.946   8.016  17.733  0.00  0.00    +0.000 C 
BRANCH  26  27
ATOM     27  N   UNL     1      49.838   6.679  18.308  0.00  0.00    +0.000 NA
ATOM     28  H   UNL     1      50.284   6.667  19.227  0.00  0.00    +0.000 HD
BRANCH  27  29
ATOM     29  C   UNL     1      48.432   6.312  18.496  0.00  0.00    +0.000 C 
BRANCH  29  30
ATOM     30  C   UNL     1      48.223   4.958  17.902  0.00  0.00    +0.000 A 
ATOM     31  C   UNL     1      49.155   4.085  17.376  0.00  0.00    +0.000 A 
ATOM     32  N   UNL     1      48.445   2.985  16.997  0.00  0.00    +0.000 N 
ATOM     33  C   UNL     1      47.134   3.216  17.292  0.00  0.00    +0.000 A 
ATOM     34  N   UNL     1      46.963   4.400  17.836  0.00  0.00    +0.000 NA
ATOM     35  H   UNL     1      48.821   2.142  16.582  0.00  0.00    +0.000 HD
ENDBRANCH  29  30
ENDBRANCH  27  29
ENDBRANCH  26  27
ENDBRANCH  23  26
ENDBRANCH  19  20
ENDBRANCH   1  19
TORSDOF 10
ENDMDL
MODEL 8
REMARK VINA RESULT:    -6.351      3.039      8.895
REMARK INTER + INTRA:         -10.679
REMARK INTER:                 -10.190
REMARK INTRA:                  -0.489
REMARK UNBOUND:                -0.801
REMARK  Name = 
REMARK  10 active torsions:
REMARK  status: ('A' for Active; 'I' for Inactive)
REMARK    1  A    between atoms: N_1  and  C_2
REMARK    2  A    between atoms: C_2  and  C_3
REMARK    3  A    between atoms: C_3  and  N_4
REMARK    4  A    between atoms: C_3  and  C_20
REMARK    5  A    between atoms: N_4  and  C_5
REMARK    6  A    between atoms: C_5  and  C_6
REMARK    7  A    between atoms: C_9  and  C_10
REMARK    8  A    between atoms: C_10  and  N_11
REMARK    9  A    between atoms: N_11  and  C_12
REMARK   10  A    between atoms: C_12  and  C_13
REMARK                            x       y       z     vdW  Elec       q    Type
REMARK                         _______ _______ _______ _____ _____    ______ ____
ROOT
ATOM      1  N   UNL     1      44.993   4.473  13.662  0.00  0.00    +0.000 NA
ATOM      2  H   UNL     1      44.621   3.540  13.464  0.00  0.00    +0.000 HD
ENDROOT
BRANCH   1   3
ATOM      3  C   UNL     1      44.335   5.445  12.771  0.00  0.00    +0.000 C 
BRANCH   3   4
ATOM      4  C   UNL     1      44.853   5.150  11.361  0.00  0.00    +0.000 A 
ATOM      5  C   UNL     1      45.608   6.036  10.603  0.00  0.00    +0.000 A 
ATOM      6  S   UNL     1      46.044   5.426   9.071  0.00  0.00    +0.000 S 
ATOM      7  C   UNL     1      45.274   3.942   9.380  0.00  0.00    +0.000 A 
ATOM      8  N   UNL     1      45.302   2.935   8.465  0.00  0.00    +0.000 NA
ATOM      9  C   UNL     1      44.703   1.856   8.846  0.00  0.00    +0.000 A 
ATOM     10  N   UNL     1      44.072   1.695  10.053  0.00  0.00    +0.000 N 
ATOM     11  C   UNL     1      43.995   2.691  11.003  0.00  0.00    +0.000 A 
ATOM     12  O   UNL     1      43.410   2.523  12.067  0.00  0.00    +0.000 OA
ATOM     13  C   UNL     1      44.674   3.919  10.626  0.00  0.00    +0.000 A 
ATOM     14  H   UNL     1      43.621   0.823  10.284  0.00  0.00    +0.000 HD
ENDBRANCH   3   4
BRANCH   3  15
ATOM     15  C   UNL     1      42.767   5.382  12.769  0.00  0.00    +0.000 C 
BRANCH  15  16
ATOM     16  N   UNL     1      42.078   6.240  11.792  0.00  0.00    +0.000 NA
ATOM     17  H   UNL     1      41.612   7.001  12.283  0.00  0.00    +0.000 HD
ATOM     18  H   UNL     1      41.354   5.703  11.318  0.00  0.00    +0.000 HD
ENDBRANCH  15  16
ENDBRANCH   3  15
ENDBRANCH   1   3
BRANCH   1  19
ATOM     19  C   UNL     1      46.441   4.378  13.472  0.00  0.00    +0.000 C 
BRANCH  19  20
ATOM     20  C   UNL     1      47.179   4.612  14.779  0.00  0.00    +0.000 A 
ATOM     21  C   UNL     1      47.908   5.785  14.963  0.00  0.00    +0.000 A 
ATOM     22  C   UNL     1      48.576   5.979  16.167  0.00  0.00    +0.000 A 
ATOM     23  C   UNL     1      48.496   5.009  17.166  0.00  0.00    +0.000 A 
ATOM     24  C   UNL     1      47.740   3.874  16.896  0.00  0.00    +0.000 A 
ATOM     25  N   UNL     1      47.089   3.648  15.732  0.00  0.00    +0.000 NA
BRANCH  23  26
ATOM     26  C   UNL     1      49.228   5.162  18.473  0.00  0.00    +0.000 C 
BRANCH  26  27
ATOM     27  N   UNL     1      50.015   3.976  18.793  0.00  0.00    +0.000 NA
ATOM     28  H   UNL     1      49.765   3.219  18.154  0.00  0.00    +0.000 HD
BRANCH  27  29
ATOM     29  C   UNL     1      51.445   4.244  18.620  0.00  0.00    +0.000 C 
BRANCH  29  30
ATOM     30  C   UNL     1      52.105   2.978  18.184  0.00  0.00    +0.000 A 
ATOM     31  C   UNL     1      53.427   2.598  18.310  0.00  0.00    +0.000 A 
ATOM     32  N   UNL     1      53.494   1.345  17.779  0.00  0.00    +0.000 N 
ATOM     33  C   UNL     1      52.244   1.007  17.352  0.00  0.00    +0.000 A 
ATOM     34  N   UNL     1      51.380   1.972  17.579  0.00  0.00    +0.000 NA
ATOM     35  H   UNL     1      54.319   0.761  17.720  0.00  0.00    +0.000 HD
ENDBRANCH  29  30
ENDBRANCH  27  29
ENDBRANCH  26  27
ENDBRANCH  23  26
ENDBRANCH  19  20
ENDBRANCH   1  19
TORSDOF 10
ENDMDL
MODEL 9
REMARK VINA RESULT:    -5.994      5.071      8.245
REMARK INTER + INTRA:         -10.124
REMARK INTER:                  -9.089
REMARK INTRA:                  -1.035
REMARK UNBOUND:                -0.801
REMARK  Name = 
REMARK  10 active torsions:
REMARK  status: ('A' for Active; 'I' for Inactive)
REMARK    1  A    between atoms: N_1  and  C_2
REMARK    2  A    between atoms: C_2  and  C_3
REMARK    3  A    between atoms: C_3  and  N_4
REMARK    4  A    between atoms: C_3  and  C_20
REMARK    5  A    between atoms: N_4  and  C_5
REMARK    6  A    between atoms: C_5  and  C_6
REMARK    7  A    between atoms: C_9  and  C_10
REMARK    8  A    between atoms: C_10  and  N_11
REMARK    9  A    between atoms: N_11  and  C_12
REMARK   10  A    between atoms: C_12  and  C_13
REMARK                            x       y       z     vdW  Elec       q    Type
REMARK                         _______ _______ _______ _____ _____    ______ ____
ROOT
ATOM      1  N   UNL     1      46.896   6.573  12.856  0.00  0.00    +0.000 NA
ATOM      2  H   UNL     1      47.709   6.086  12.471  0.00  0.00    +0.000 HD
ENDROOT
BRANCH   1   3
ATOM      3  C   UNL     1      45.868   6.687  11.807  0.00  0.00    +0.000 C 
BRANCH   3   4
ATOM      4  C   UNL     1      45.167   5.328  11.746  0.00  0.00    +0.000 A 
ATOM      5  C   UNL     1      44.509   4.737  12.817  0.00  0.00    +0.000 A 
ATOM      6  S   UNL     1      43.821   3.222  12.446  0.00  0.00    +0.000 S 
ATOM      7  C   UNL     1      44.342   3.318  10.830  0.00  0.00    +0.000 A 
ATOM      8  N   UNL     1      44.044   2.333   9.939  0.00  0.00    +0.000 NA
ATOM      9  C   UNL     1      44.477   2.553   8.742  0.00  0.00    +0.000 A 
ATOM     10  N   UNL     1      45.187   3.661   8.357  0.00  0.00    +0.000 N 
ATOM     11  C   UNL     1      45.535   4.674   9.226  0.00  0.00    +0.000 A 
ATOM     12  O   UNL     1      46.184   5.645   8.856  0.00  0.00    +0.000 OA
ATOM     13  C   UNL     1      45.050   4.479  10.582  0.00  0.00    +0.000 A 
ATOM     14  H   UNL     1      45.497   3.767   7.403  0.00  0.00    +0.000 HD
ENDBRANCH   3   4
BRANCH   3  15
ATOM     15  C   UNL     1      44.798   7.809  12.052  0.00  0.00    +0.000 C 
BRANCH  15  16
ATOM     16  N   UNL     1      43.860   8.072  10.948  0.00  0.00    +0.000 NA
ATOM     17  H   UNL     1      44.335   8.612  10.226  0.00  0.00    +0.000 HD
ATOM     18  H   UNL     1      43.087   8.643  11.287  0.00  0.00    +0.000 HD
ENDBRANCH  15  16
ENDBRANCH   3  15
ENDBRANCH   1   3
BRANCH   1  19
ATOM     19  C   UNL     1      47.392   7.861  13.344  0.00  0.00    +0.000 C 
BRANCH  19  20
ATOM     20  C   UNL     1      48.607   8.312  12.552  0.00  0.00    +0.000 A 
ATOM     21  C   UNL     1      49.580   7.384  12.186  0.00  0.00    +0.000 A 
ATOM     22  C   UNL     1      50.685   7.819  11.461  0.00  0.00    +0.000 A 
ATOM     23  C   UNL     1      50.793   9.165  11.107  0.00  0.00    +0.000 A 
ATOM     24  C   UNL     1      49.771  10.016  11.510  0.00  0.00    +0.000 A 
ATOM     25  N   UNL     1      48.690   9.628  12.226  0.00  0.00    +0.000 NA
BRANCH  23  26
ATOM     26  C   UNL     1      51.986   9.685  10.351  0.00  0.00    +0.000 C 
BRANCH  26  27
ATOM     27  N   UNL     1      52.617   8.640   9.552  0.00  0.00    +0.000 NA
ATOM     28  H   UNL     1      52.600   8.908   8.566  0.00  0.00    +0.000 HD
BRANCH  27  29
ATOM     29  C   UNL     1      54.020   8.472   9.938  0.00  0.00    +0.000 C 
BRANCH  29  30
ATOM     30  C   UNL     1      54.224   7.048  10.338  0.00  0.00    +0.000 A 
ATOM     31  C   UNL     1      53.555   5.919   9.907  0.00  0.00    +0.000 A 
ATOM     32  N   UNL     1      54.147   4.879  10.559  0.00  0.00    +0.000 N 
ATOM     33  C   UNL     1      55.131   5.391  11.350  0.00  0.00    +0.000 A 
ATOM     34  N   UNL     1      55.203   6.699  11.244  0.00  0.00    +0.000 NA
ATOM     35  H   UNL     1      53.910   3.899  10.466  0.00  0.00    +0.000 HD
ENDBRANCH  29  30
ENDBRANCH  27  29
ENDBRANCH  26  27
ENDBRANCH  23  26
ENDBRANCH  19  20
ENDBRANCH   1  19
TORSDOF 10
ENDMDL
