MODEL 1
REMARK VINA RESULT:    -8.115      0.000      0.000
REMARK INTER + INTRA:         -13.138
REMARK INTER:                 -11.911
REMARK INTRA:                  -1.227
REMARK UNBOUND:                -1.227
REMARK  Name = 
REMARK  9 active torsions:
REMARK  status: ('A' for Active; 'I' for Inactive)
REMARK    1  A    between atoms: C_1  and  O_2
REMARK    2  A    between atoms: O_2  and  C_3
REMARK    3  A    between atoms: C_10  and  C_11
REMARK    4  A    between atoms: N_13  and  C_14
REMARK    5  A    between atoms: C_14  and  C_15
REMARK    6  A    between atoms: C_18  and  O_19
REMARK    7  A    between atoms: O_19  and  C_20
REMARK    8  A    between atoms: C_20  and  C_21
REMARK    9  A    between atoms: C_21  and  C_22
REMARK                            x       y       z     vdW  Elec       q    Type
REMARK                         _______ _______ _______ _____ _____    ______ ____
ROOT
ATOM      1  C   UNL     1      47.775   7.182  13.190  0.00  0.00    +0.000 C 
ENDROOT
BRANCH   1   2
ATOM      2  C   UNL     1      46.816   6.133  12.679  0.00  0.00    +0.000 A 
ATOM      3  C   UNL     1      46.546   4.990  13.447  0.00  0.00    +0.000 A 
ATOM      4  C   UNL     1      45.652   4.010  12.992  0.00  0.00    +0.000 A 
ATOM      5  C   UNL     1      45.021   4.134  11.751  0.00  0.00    +0.000 A 
ATOM      6  C   UNL     1      45.299   5.257  10.972  0.00  0.00    +0.000 A 
ATOM      7  C   UNL     1      46.176   6.252  11.435  0.00  0.00    +0.000 A 
BRANCH   5   8
ATOM      8  O   UNL     1      44.152   3.214  11.207  0.00  0.00    +0.000 OA
BRANCH   8   9
ATOM      9  C   UNL     1      44.131   3.196   9.775  0.00  0.00    +0.000 C 
BRANCH   9  10
ATOM     10  C   UNL     1      44.699   1.891   9.198  0.00  0.00    +0.000 C 
BRANCH  10  11
ATOM     11  C   UNL     1      45.842   2.147   8.239  0.00  0.00    +0.000 A 
ATOM     12  N   UNL     1      46.063   3.442   7.887  0.00  0.00    +0.000 NA
ATOM     13  C   UNL     1      47.060   3.694   7.000  0.00  0.00    +0.000 A 
ATOM     14  C   UNL     1      47.855   2.718   6.429  0.00  0.00    +0.000 A 
ATOM     15  C   UNL     1      47.622   1.397   6.790  0.00  0.00    +0.000 A 
ATOM     16  C   UNL     1      46.609   1.107   7.702  0.00  0.00    +0.000 A 
ATOM     17  F   UNL     1      46.398  -0.167   8.046  0.00  0.00    +0.000 F 
ENDBRANCH  10  11
ENDBRANCH   9  10
ENDBRANCH   8   9
ENDBRANCH   5   8
ENDBRANCH   1   2
BRANCH   1  20
ATOM     18  C   UNL     1      48.954   7.024  15.365  0.00  0.00    +0.000 C 
ATOM     19  O   UNL     1      50.040   6.783  14.831  0.00  0.00    +0.000 OA
ATOM     20  N   UNL     1      47.822   7.233  14.628  0.00  0.00    +0.000 N 
ATOM     21  H   UNL     1      46.941   7.393  15.104  0.00  0.00    +0.000 HD
BRANCH  18  29
ATOM     22  C   UNL     1      48.851   4.651  17.852  0.00  0.00    +0.000 A 
ATOM     23  N   UNL     1      48.809   3.942  18.995  0.00  0.00    +0.000 NA
ATOM     24  C   UNL     1      48.699   4.611  20.144  0.00  0.00    +0.000 A 
ATOM     25  N   UNL     1      48.609   5.928  20.292  0.00  0.00    +0.000 NA
ATOM     26  C   UNL     1      48.653   6.602  19.130  0.00  0.00    +0.000 A 
ATOM     27  S   UNL     1      48.559   8.294  19.128  0.00  0.00    +0.000 S 
ATOM     28  C   UNL     1      48.691   8.353  17.433  0.00  0.00    +0.000 A 
ATOM     29  C   UNL     1      48.816   7.107  16.835  0.00  0.00    +0.000 A 
ATOM     30  C   UNL     1      48.784   6.052  17.852  0.00  0.00    +0.000 A 
BRANCH  22  32
ATOM     31  C   UNL     1      47.985   3.026  16.425  0.00  0.00    +0.000 C 
ATOM     32  O   UNL     1      49.035   3.953  16.678  0.00  0.00    +0.000 OA
ENDBRANCH  22  32
ENDBRANCH  18  29
ENDBRANCH   1  20
TORSDOF 8
ENDMDL
MODEL 2
REMARK VINA RESULT:    -7.790      2.206      2.790
REMARK INTER + INTRA:         -12.659
REMARK INTER:                 -11.390
REMARK INTRA:                  -1.270
REMARK UNBOUND:                -1.227
REMARK  Name = 
REMARK  9 active torsions:
REMARK  status: ('A' for Active; 'I' for Inactive)
REMARK    1  A    between atoms: C_1  and  O_2
REMARK    2  A    between atoms: O_2  and  C_3
REMARK    3  A    between atoms: C_10  and  C_11
REMARK    4  A    between atoms: N_13  and  C_14
REMARK    5  A    between atoms: C_14  and  C_15
REMARK    6  A    between atoms: C_18  and  O_19
REMARK    7  A    between atoms: O_19  and  C_20
REMARK    8  A    between atoms: C_20  and  C_21
REMARK    9  A    between atoms: C_21  and  C_22
REMARK                            x       y       z     vdW  Elec       q    Type
REMARK                         _______ _______ _______ _____ _____    ______ ____
ROOT
ATOM      1  C   UNL     1      48.188   7.450  14.571  0.00  0.00    +0.000 C 
ENDROOT
BRANCH   1   2
ATOM      2  C   UNL     1      47.327   6.710  13.573  0.00  0.00    +0.000 A 
ATOM      3  C   UNL     1      47.017   7.296  12.338  0.00  0.00    +0.000 A 
ATOM      4  C   UNL     1      46.227   6.619  11.397  0.00  0.00    +0.000 A 
ATOM      5  C   UNL     1      45.709   5.351  11.673  0.00  0.00    +0.000 A 
ATOM      6  C   UNL     1      45.995   4.769  12.908  0.00  0.00    +0.000 A 
ATOM      7  C   UNL     1      46.806   5.435  13.843  0.00  0.00    +0.000 A 
BRANCH   5   8
ATOM      8  O   UNL     1      44.902   4.621  10.828  0.00  0.00    +0.000 OA
BRANCH   8   9
ATOM      9  C   UNL     1      45.148   3.211  10.847  0.00  0.00    +0.000 C 
BRANCH   9  10
ATOM     10  C   UNL     1      44.534   2.492   9.637  0.00  0.00    +0.000 C 
BRANCH  10  11
ATOM     11  C   UNL     1      45.547   2.276   8.533  0.00  0.00    +0.000 A 
ATOM     12  N   UNL     1      46.048   1.018   8.405  0.00  0.00    +0.000 NA
ATOM     13  C   UNL     1      46.985   0.805   7.446  0.00  0.00    +0.000 A 
ATOM     14  C   UNL     1      47.465   1.787   6.600  0.00  0.00    +0.000 A 
ATOM     15  C   UNL     1      46.951   3.071   6.737  0.00  0.00    +0.000 A 
ATOM     16  C   UNL     1      45.985   3.318   7.710  0.00  0.00    +0.000 A 
ATOM     17  F   UNL     1      45.494   4.556   7.828  0.00  0.00    +0.000 F 
ENDBRANCH  10  11
ENDBRANCH   9  10
ENDBRANCH   8   9
ENDBRANCH   5   8
ENDBRANCH   1   2
BRANCH   1  20
ATOM     18  C   UNL     1      49.304   6.525  16.580  0.00  0.00    +0.000 C 
ATOM     19  O   UNL     1      48.627   7.210  17.351  0.00  0.00    +0.000 OA
ATOM     20  N   UNL     1      49.137   6.589  15.226  0.00  0.00    +0.000 N 
ATOM     21  H   UNL     1      49.737   6.036  14.623  0.00  0.00    +0.000 HD
BRANCH  18  29
ATOM     22  C   UNL     1      49.508   3.094  16.673  0.00  0.00    +0.000 A 
ATOM     23  N   UNL     1      49.843   1.797  16.806  0.00  0.00    +0.000 NA
ATOM     24  C   UNL     1      51.026   1.509  17.352  0.00  0.00    +0.000 A 
ATOM     25  N   UNL     1      51.927   2.375  17.803  0.00  0.00    +0.000 NA
ATOM     26  C   UNL     1      51.557   3.659  17.653  0.00  0.00    +0.000 A 
ATOM     27  S   UNL     1      52.588   4.901  18.167  0.00  0.00    +0.000 S 
ATOM     28  C   UNL     1      51.491   6.096  17.653  0.00  0.00    +0.000 A 
ATOM     29  C   UNL     1      50.333   5.587  17.081  0.00  0.00    +0.000 A 
ATOM     30  C   UNL     1      50.366   4.122  17.088  0.00  0.00    +0.000 A 
BRANCH  22  32
ATOM     31  C   UNL     1      47.224   3.453  16.956  0.00  0.00    +0.000 C 
ATOM     32  O   UNL     1      48.314   3.379  16.045  0.00  0.00    +0.000 OA
ENDBRANCH  22  32
ENDBRANCH  18  29
ENDBRANCH   1  20
TORSDOF 8
ENDMDL
MODEL 3
REMARK VINA RESULT:    -7.480      1.678      2.700
REMARK INTER + INTRA:         -12.205
REMARK INTER:                 -10.895
REMARK INTRA:                  -1.310
REMARK UNBOUND:                -1.227
REMARK  Name = 
REMARK  9 active torsions:
REMARK  status: ('A' for Active; 'I' for Inactive)
REMARK    1  A    between atoms: C_1  and  O_2
REMARK    2  A    between atoms: O_2  and  C_3
REMARK    3  A    between atoms: C_10  and  C_11
REMARK    4  A    between atoms: N_13  and  C_14
REMARK    5  A    between atoms: C_14  and  C_15
REMARK    6  A    between atoms: C_18  and  O_19
REMARK    7  A    between atoms: O_19  and  C_20
REMARK    8  A    between atoms: C_20  and  C_21
REMARK    9  A    between atoms: C_21  and  C_22
REMARK                            x       y       z     vdW  Elec       q    Type
REMARK                         _______ _______ _______ _____ _____    ______ ____
ROOT
ATOM      1  C   UNL     1      48.410   6.626  13.963  0.00  0.00    +0.000 C 
ENDROOT
BRANCH   1   2
ATOM      2  C   UNL     1      47.264   5.952  13.243  0.00  0.00    +0.000 A 
ATOM      3  C   UNL     1      46.743   4.743  13.726  0.00  0.00    +0.000 A 
ATOM      4  C   UNL     1      45.674   4.108  13.076  0.00  0.00    +0.000 A 
ATOM      5  C   UNL     1      45.114   4.652  11.916  0.00  0.00    +0.000 A 
ATOM      6  C   UNL     1      45.640   5.844  11.418  0.00  0.00    +0.000 A 
ATOM      7  C   UNL     1      46.695   6.494  12.081  0.00  0.00    +0.000 A 
BRANCH   5   8
ATOM      8  O   UNL     1      44.084   4.090  11.193  0.00  0.00    +0.000 OA
BRANCH   8   9
ATOM      9  C   UNL     1      44.362   3.928   9.798  0.00  0.00    +0.000 C 
BRANCH   9  10
ATOM     10  C   UNL     1      44.926   2.538   9.470  0.00  0.00    +0.000 C 
BRANCH  10  11
ATOM     11  C   UNL     1      45.809   2.560   8.240  0.00  0.00    +0.000 A 
ATOM     12  N   UNL     1      45.988   3.768   7.641  0.00  0.00    +0.000 NA
ATOM     13  C   UNL     1      46.746   3.809   6.516  0.00  0.00    +0.000 A 
ATOM     14  C   UNL     1      47.337   2.702   5.939  0.00  0.00    +0.000 A 
ATOM     15  C   UNL     1      47.149   1.470   6.553  0.00  0.00    +0.000 A 
ATOM     16  C   UNL     1      46.379   1.397   7.713  0.00  0.00    +0.000 A 
ATOM     17  F   UNL     1      46.210   0.207   8.298  0.00  0.00    +0.000 F 
ENDBRANCH  10  11
ENDBRANCH   9  10
ENDBRANCH   8   9
ENDBRANCH   5   8
ENDBRANCH   1   2
BRANCH   1  20
ATOM     18  C   UNL     1      48.974   6.411  16.367  0.00  0.00    +0.000 C 
ATOM     19  O   UNL     1      50.043   5.841  16.131  0.00  0.00    +0.000 OA
ATOM     20  N   UNL     1      48.142   6.821  15.363  0.00  0.00    +0.000 N 
ATOM     21  H   UNL     1      47.255   7.255  15.598  0.00  0.00    +0.000 HD
BRANCH  18  29
ATOM     22  C   UNL     1      47.906   9.263  17.963  0.00  0.00    +0.000 A 
ATOM     23  N   UNL     1      47.441  10.208  18.801  0.00  0.00    +0.000 NA
ATOM     24  C   UNL     1      47.151   9.848  20.053  0.00  0.00    +0.000 A 
ATOM     25  N   UNL     1      47.285   8.638  20.584  0.00  0.00    +0.000 NA
ATOM     26  C   UNL     1      47.751   7.721  19.718  0.00  0.00    +0.000 A 
ATOM     27  S   UNL     1      47.978   6.120  20.221  0.00  0.00    +0.000 S 
ATOM     28  C   UNL     1      48.520   5.655  18.677  0.00  0.00    +0.000 A 
ATOM     29  C   UNL     1      48.536   6.689  17.751  0.00  0.00    +0.000 A 
ATOM     30  C   UNL     1      48.083   7.935  18.377  0.00  0.00    +0.000 A 
BRANCH  22  32
ATOM     31  C   UNL     1      49.359  10.341  16.497  0.00  0.00    +0.000 C 
ATOM     32  O   UNL     1      48.136   9.632  16.655  0.00  0.00    +0.000 OA
ENDBRANCH  22  32
ENDBRANCH  18  29
ENDBRANCH   1  20
TORSDOF 8
ENDMDL
MODEL 4
REMARK VINA RESULT:    -7.362      1.675      2.129
REMARK INTER + INTRA:         -12.032
REMARK INTER:                 -10.919
REMARK INTRA:                  -1.114
REMARK UNBOUND:                -1.227
REMARK  Name = 
REMARK  9 active torsions:
REMARK  status: ('A' for Active; 'I' for Inactive)
REMARK    1  A    between atoms: C_1  and  O_2
REMARK    2  A    between atoms: O_2  and  C_3
REMARK    3  A    between atoms: C_10  and  C_11
REMARK    4  A    between atoms: N_13  and  C_14
REMARK    5  A    between atoms: C_14  and  C_15
REMARK    6  A    between atoms: C_18  and  O_19
REMARK    7  A    between atoms: O_19  and  C_20
REMARK    8  A    between atoms: C_20  and  C_21
REMARK    9  A    between atoms: C_21  and  C_22
REMARK                            x       y       z     vdW  Elec       q    Type
REMARK                         _______ _______ _______ _____ _____    ______ ____
ROOT
ATOM      1  C   UNL     1      47.751   8.935  13.808  0.00  0.00    +0.000 C 
ENDROOT
BRANCH   1   2
ATOM      2  C   UNL     1      46.831   8.046  13.004  0.00  0.00    +0.000 A 
ATOM      3  C   UNL     1      47.219   6.737  12.683  0.00  0.00    +0.000 A 
ATOM      4  C   UNL     1      46.374   5.895  11.945  0.00  0.00    +0.000 A 
ATOM      5  C   UNL     1      45.132   6.345  11.491  0.00  0.00    +0.000 A 
ATOM      6  C   UNL     1      44.746   7.652  11.788  0.00  0.00    +0.000 A 
ATOM      7  C   UNL     1      45.581   8.489  12.547  0.00  0.00    +0.000 A 
BRANCH   5   8
ATOM      8  O   UNL     1      44.246   5.604  10.738  0.00  0.00    +0.000 OA
BRANCH   8   9
ATOM      9  C   UNL     1      44.761   4.345  10.289  0.00  0.00    +0.000 C 
BRANCH   9  10
ATOM     10  C   UNL     1      44.553   4.132   8.782  0.00  0.00    +0.000 C 
BRANCH  10  11
ATOM     11  C   UNL     1      45.635   3.261   8.179  0.00  0.00    +0.000 A 
ATOM     12  N   UNL     1      46.545   3.885   7.383  0.00  0.00    +0.000 NA
ATOM     13  C   UNL     1      47.504   3.121   6.801  0.00  0.00    +0.000 A 
ATOM     14  C   UNL     1      47.608   1.752   6.961  0.00  0.00    +0.000 A 
ATOM     15  C   UNL     1      46.675   1.120   7.773  0.00  0.00    +0.000 A 
ATOM     16  C   UNL     1      45.680   1.879   8.388  0.00  0.00    +0.000 A 
ATOM     17  F   UNL     1      44.791   1.260   9.171  0.00  0.00    +0.000 F 
ENDBRANCH  10  11
ENDBRANCH   9  10
ENDBRANCH   8   9
ENDBRANCH   5   8
ENDBRANCH   1   2
BRANCH   1  20
ATOM     18  C   UNL     1      48.303   9.439  16.171  0.00  0.00    +0.000 C 
ATOM     19  O   UNL     1      49.190  10.238  15.862  0.00  0.00    +0.000 OA
ATOM     20  N   UNL     1      47.567   8.780  15.227  0.00  0.00    +0.000 N 
ATOM     21  H   UNL     1      46.870   8.104  15.521  0.00  0.00    +0.000 HD
BRANCH  18  29
ATOM     22  C   UNL     1      48.254   6.545  18.029  0.00  0.00    +0.000 A 
ATOM     23  N   UNL     1      48.181   5.583  18.968  0.00  0.00    +0.000 NA
ATOM     24  C   UNL     1      47.838   5.942  20.206  0.00  0.00    +0.000 A 
ATOM     25  N   UNL     1      47.538   7.166  20.627  0.00  0.00    +0.000 NA
ATOM     26  C   UNL     1      47.622   8.099  19.662  0.00  0.00    +0.000 A 
ATOM     27  S   UNL     1      47.281   9.719  20.020  0.00  0.00    +0.000 S 
ATOM     28  C   UNL     1      47.604  10.196  18.419  0.00  0.00    +0.000 A 
ATOM     29  C   UNL     1      47.980   9.152  17.586  0.00  0.00    +0.000 A 
ATOM     30  C   UNL     1      47.982   7.888  18.328  0.00  0.00    +0.000 A 
BRANCH  22  32
ATOM     31  C   UNL     1      50.090   6.246  16.628  0.00  0.00    +0.000 C 
ATOM     32  O   UNL     1      48.677   6.173  16.771  0.00  0.00    +0.000 OA
ENDBRANCH  22  32
ENDBRANCH  18  29
ENDBRANCH   1  20
TORSDOF 8
ENDMDL
MODEL 5
REMARK VINA RESULT:    -7.328      1.635      2.885
REMARK INTER + INTRA:         -11.981
REMARK INTER:                 -10.722
REMARK INTRA:                  -1.259
REMARK UNBOUND:                -1.227
REMARK  Name = 
REMARK  9 active torsions:
REMARK  status: ('A' for Active; 'I' for Inactive)
REMARK    1  A    between atoms: C_1  and  O_2
REMARK    2  A    between atoms: O_2  and  C_3
REMARK    3  A    between atoms: C_10  and  C_11
REMARK    4  A    between atoms: N_13  and  C_14
REMARK    5  A    between atoms: C_14  and  C_15
REMARK    6  A    between atoms: C_18  and  O_19
REMARK    7  A    between atoms: O_19  and  C_20
REMARK    8  A    between atoms: C_20  and  C_21
REMARK    9  A    between atoms: C_21  and  C_22
REMARK                            x       y       z     vdW  Elec       q    Type
REMARK                         _______ _______ _______ _____ _____    ______ ____
ROOT
ATOM      1  C   UNL     1      47.428   3.817  15.291  0.00  0.00    +0.000 C 
ENDROOT
BRANCH   1   2
ATOM      2  C   UNL     1      46.730   4.260  14.025  0.00  0.00    +0.000 A 
ATOM      3  C   UNL     1      46.747   5.610  13.647  0.00  0.00    +0.000 A 
ATOM      4  C   UNL     1      46.112   6.037  12.471  0.00  0.00    +0.000 A 
ATOM      5  C   UNL     1      45.426   5.133  11.656  0.00  0.00    +0.000 A 
ATOM      6  C   UNL     1      45.387   3.791  12.036  0.00  0.00    +0.000 A 
ATOM      7  C   UNL     1      46.042   3.357  13.201  0.00  0.00    +0.000 A 
BRANCH   5   8
ATOM      8  O   UNL     1      44.750   5.459  10.501  0.00  0.00    +0.000 OA
BRANCH   8   9
ATOM      9  C   UNL     1      45.473   5.186   9.296  0.00  0.00    +0.000 C 
BRANCH   9  10
ATOM     10  C   UNL     1      44.830   4.062   8.470  0.00  0.00    +0.000 C 
BRANCH  10  11
ATOM     11  C   UNL     1      45.858   3.068   7.971  0.00  0.00    +0.000 A 
ATOM     12  N   UNL     1      46.858   3.565   7.195  0.00  0.00    +0.000 NA
ATOM     13  C   UNL     1      47.773   2.689   6.705  0.00  0.00    +0.000 A 
ATOM     14  C   UNL     1      47.744   1.327   6.939  0.00  0.00    +0.000 A 
ATOM     15  C   UNL     1      46.718   0.824   7.729  0.00  0.00    +0.000 A 
ATOM     16  C   UNL     1      45.767   1.701   8.250  0.00  0.00    +0.000 A 
ATOM     17  F   UNL     1      44.788   1.206   9.014  0.00  0.00    +0.000 F 
ENDBRANCH  10  11
ENDBRANCH   9  10
ENDBRANCH   8   9
ENDBRANCH   5   8
ENDBRANCH   1   2
BRANCH   1  20
ATOM     18  C   UNL     1      47.906   4.798  17.516  0.00  0.00    +0.000 C 
ATOM     19  O   UNL     1      47.821   3.707  18.087  0.00  0.00    +0.000 OA
ATOM     20  N   UNL     1      47.733   4.918  16.166  0.00  0.00    +0.000 N 
ATOM     21  H   UNL     1      47.777   5.837  15.738  0.00  0.00    +0.000 HD
BRANCH  18  29
ATOM     22  C   UNL     1      49.960   7.481  16.877  0.00  0.00    +0.000 A 
ATOM     23  N   UNL     1      50.651   8.636  16.858  0.00  0.00    +0.000 NA
ATOM     24  C   UNL     1      50.495   9.476  17.882  0.00  0.00    +0.000 A 
ATOM     25  N   UNL     1      49.729   9.294  18.952  0.00  0.00    +0.000 NA
ATOM     26  C   UNL     1      49.055   8.131  18.936  0.00  0.00    +0.000 A 
ATOM     27  S   UNL     1      48.022   7.733  20.218  0.00  0.00    +0.000 S 
ATOM     28  C   UNL     1      47.591   6.260  19.486  0.00  0.00    +0.000 A 
ATOM     29  C   UNL     1      48.208   6.039  18.262  0.00  0.00    +0.000 A 
ATOM     30  C   UNL     1      49.096   7.158  17.934  0.00  0.00    +0.000 A 
BRANCH  22  32
ATOM     31  C   UNL     1      49.900   7.349  14.552  0.00  0.00    +0.000 C 
ATOM     32  O   UNL     1      50.076   6.653  15.781  0.00  0.00    +0.000 OA
ENDBRANCH  22  32
ENDBRANCH  18  29
ENDBRANCH   1  20
TORSDOF 8
ENDMDL
MODEL 6
REMARK VINA RESULT:    -7.143      1.625      2.417
REMARK INTER + INTRA:         -11.711
REMARK INTER:                 -10.639
REMARK INTRA:                  -1.071
REMARK UNBOUND:                -1.227
REMARK  Name = 
REMARK  9 active torsions:
REMARK  status: ('A' for Active; 'I' for Inactive)
REMARK    1  A    between atoms: C_1  and  O_2
REMARK    2  A    between atoms: O_2  and  C_3
REMARK    3  A    between atoms: C_10  and  C_11
REMARK    4  A    between atoms: N_13  and  C_14
REMARK    5  A    between atoms: C_14  and  C_15
REMARK    6  A    between atoms: C_18  and  O_19
REMARK    7  A    between atoms: O_19  and  C_20
REMARK    8  A    between atoms: C_20  and  C_21
REMARK    9  A    between atoms: C_21  and  C_22
REMARK                            x       y       z     vdW  Elec       q    Type
REMARK                         _______ _______ _______ _____ _____    ______ ____
ROOT
ATOM      1  C   UNL     1      47.392   4.208  15.254  0.00  0.00    +0.000 C 
ENDROOT
BRANCH   1   2
ATOM      2  C   UNL     1      46.581   4.393  13.992  0.00  0.00    +0.000 A 
ATOM      3  C   UNL     1      46.233   5.681  13.561  0.00  0.00    +0.000 A 
ATOM      4  C   UNL     1      45.489   5.872  12.387  0.00  0.00    +0.000 A 
ATOM      5  C   UNL     1      45.055   4.782  11.627  0.00  0.00    +0.000 A 
ATOM      6  C   UNL     1      45.380   3.496  12.059  0.00  0.00    +0.000 A 
ATOM      7  C   UNL     1      46.145   3.304  13.222  0.00  0.00    +0.000 A 
BRANCH   5   8
ATOM      8  O   UNL     1      44.298   4.866  10.478  0.00  0.00    +0.000 OA
BRANCH   8   9
ATOM      9  C   UNL     1      45.064   4.926   9.269  0.00  0.00    +0.000 C 
BRANCH   9  10
ATOM     10  C   UNL     1      44.596   3.897   8.229  0.00  0.00    +0.000 C 
BRANCH  10  11
ATOM     11  C   UNL     1      45.748   3.082   7.681  0.00  0.00    +0.000 A 
ATOM     12  N   UNL     1      46.522   3.680   6.736  0.00  0.00    +0.000 NA
ATOM     13  C   UNL     1      47.540   2.957   6.203  0.00  0.00    +0.000 A 
ATOM     14  C   UNL     1      47.831   1.653   6.554  0.00  0.00    +0.000 A 
ATOM     15  C   UNL     1      47.036   1.046   7.518  0.00  0.00    +0.000 A 
ATOM     16  C   UNL     1      45.986   1.765   8.087  0.00  0.00    +0.000 A 
ATOM     17  F   UNL     1      45.231   1.172   9.018  0.00  0.00    +0.000 F 
ENDBRANCH  10  11
ENDBRANCH   9  10
ENDBRANCH   8   9
ENDBRANCH   5   8
ENDBRANCH   1   2
BRANCH   1  20
ATOM     18  C   UNL     1      48.681   5.753  16.701  0.00  0.00    +0.000 C 
ATOM     19  O   UNL     1      49.650   4.991  16.761  0.00  0.00    +0.000 OA
ATOM     20  N   UNL     1      47.561   5.436  15.985  0.00  0.00    +0.000 N 
ATOM     21  H   UNL     1      46.771   6.073  15.989  0.00  0.00    +0.000 HD
BRANCH  18  29
ATOM     22  C   UNL     1      47.827   6.712  19.891  0.00  0.00    +0.000 A 
ATOM     23  N   UNL     1      47.587   7.335  21.059  0.00  0.00    +0.000 NA
ATOM     24  C   UNL     1      47.817   8.648  21.128  0.00  0.00    +0.000 A 
ATOM     25  N   UNL     1      48.253   9.432  20.148  0.00  0.00    +0.000 NA
ATOM     26  C   UNL     1      48.481   8.774  18.997  0.00  0.00    +0.000 A 
ATOM     27  S   UNL     1      49.048   9.615  17.640  0.00  0.00    +0.000 S 
ATOM     28  C   UNL     1      49.085   8.192  16.708  0.00  0.00    +0.000 A 
ATOM     29  C   UNL     1      48.680   7.057  17.397  0.00  0.00    +0.000 A 
ATOM     30  C   UNL     1      48.307   7.406  18.771  0.00  0.00    +0.000 A 
BRANCH  22  32
ATOM     31  C   UNL     1      48.790   4.637  20.327  0.00  0.00    +0.000 C 
ATOM     32  O   UNL     1      47.651   5.345  19.853  0.00  0.00    +0.000 OA
ENDBRANCH  22  32
ENDBRANCH  18  29
ENDBRANCH   1  20
TORSDOF 8
ENDMDL
MODEL 7
REMARK VINA RESULT:    -6.817      3.784      8.366
REMARK INTER + INTRA:         -11.232
REMARK INTER:                  -9.537
REMARK INTRA:                  -1.695
REMARK UNBOUND:                -1.227
REMARK  Name = 
REMARK  9 active torsions:
REMARK  status: ('A' for Active; 'I' for Inactive)
REMARK    1  A    between atoms: C_1  and  O_2
REMARK    2  A    between atoms: O_2  and  C_3
REMARK    3  A    between atoms: C_10  and  C_11
REMARK    4  A    between atoms: N_13  and  C_14
REMARK    5  A    between atoms: C_14  and  C_15
REMARK    6  A    between atoms: C_18  and  O_19
REMARK    7  A    between atoms: O_19  and  C_20
REMARK    8  A    between atoms: C_20  and  C_21
REMARK    9  A    between atoms: C_21  and  C_22
REMARK                            x       y       z     vdW  Elec       q    Type
REMARK                         _______ _______ _______ _____ _____    ______ ____
ROOT
ATOM      1  C   UNL     1      48.413   8.040  11.861  0.00  0.00    +0.000 C 
ENDROOT
BRANCH   1   2
ATOM      2  C   UNL     1      48.504   7.977  13.369  0.00  0.00    +0.000 A 
ATOM      3  C   UNL     1      48.147   9.091  14.143  0.00  0.00    +0.000 A 
ATOM      4  C   UNL     1      48.217   9.048  15.543  0.00  0.00    +0.000 A 
ATOM      5  C   UNL     1      48.665   7.902  16.205  0.00  0.00    +0.000 A 
ATOM      6  C   UNL     1      49.042   6.797  15.442  0.00  0.00    +0.000 A 
ATOM      7  C   UNL     1      48.951   6.829  14.040  0.00  0.00    +0.000 A 
BRANCH   5   8
ATOM      8  O   UNL     1      48.795   7.773  17.571  0.00  0.00    +0.000 OA
BRANCH   8   9
ATOM      9  C   UNL     1      49.885   6.941  17.985  0.00  0.00    +0.000 C 
BRANCH   9  10
ATOM     10  C   UNL     1      49.434   5.807  18.917  0.00  0.00    +0.000 C 
BRANCH  10  11
ATOM     11  C   UNL     1      49.250   4.501  18.172  0.00  0.00    +0.000 A 
ATOM     12  N   UNL     1      50.360   3.733  18.007  0.00  0.00    +0.000 NA
ATOM     13  C   UNL     1      50.229   2.575  17.312  0.00  0.00    +0.000 A 
ATOM     14  C   UNL     1      49.043   2.134  16.756  0.00  0.00    +0.000 A 
ATOM     15  C   UNL     1      47.913   2.923  16.925  0.00  0.00    +0.000 A 
ATOM     16  C   UNL     1      48.016   4.117  17.639  0.00  0.00    +0.000 A 
ATOM     17  F   UNL     1      46.920   4.865  17.800  0.00  0.00    +0.000 F 
ENDBRANCH  10  11
ENDBRANCH   9  10
ENDBRANCH   8   9
ENDBRANCH   5   8
ENDBRANCH   1   2
BRANCH   1  20
ATOM     18  C   UNL     1      46.272   6.899  11.356  0.00  0.00    +0.000 C 
ATOM     19  O   UNL     1      45.598   7.794  11.874  0.00  0.00    +0.000 OA
ATOM     20  N   UNL     1      47.636   6.961  11.311  0.00  0.00    +0.000 N 
ATOM     21  H   UNL     1      48.156   6.189  10.908  0.00  0.00    +0.000 HD
BRANCH  18  29
ATOM     22  C   UNL     1      44.465   4.275  12.651  0.00  0.00    +0.000 A 
ATOM     23  N   UNL     1      43.726   3.177  12.892  0.00  0.00    +0.000 NA
ATOM     24  C   UNL     1      43.384   2.412  11.853  0.00  0.00    +0.000 A 
ATOM     25  N   UNL     1      43.710   2.606  10.580  0.00  0.00    +0.000 NA
ATOM     26  C   UNL     1      44.448   3.712  10.379  0.00  0.00    +0.000 A 
ATOM     27  S   UNL     1      44.949   4.121   8.813  0.00  0.00    +0.000 S 
ATOM     28  C   UNL     1      45.739   5.519   9.374  0.00  0.00    +0.000 A 
ATOM     29  C   UNL     1      45.638   5.711  10.745  0.00  0.00    +0.000 A 
ATOM     30  C   UNL     1      44.870   4.620  11.353  0.00  0.00    +0.000 A 
BRANCH  22  32
ATOM     31  C   UNL     1      46.017   4.804  14.305  0.00  0.00    +0.000 C 
ATOM     32  O   UNL     1      44.753   5.095  13.722  0.00  0.00    +0.000 OA
ENDBRANCH  22  32
ENDBRANCH  18  29
ENDBRANCH   1  20
TORSDOF 8
ENDMDL
MODEL 8
REMARK VINA RESULT:    -6.575      2.127      3.678
REMARK INTER + INTRA:         -10.876
REMARK INTER:                 -10.406
REMARK INTRA:                  -0.470
REMARK UNBOUND:                -1.227
REMARK  Name = 
REMARK  9 active torsions:
REMARK  status: ('A' for Active; 'I' for Inactive)
REMARK    1  A    between atoms: C_1  and  O_2
REMARK    2  A    between atoms: O_2  and  C_3
REMARK    3  A    between atoms: C_10  and  C_11
REMARK    4  A    between atoms: N_13  and  C_14
REMARK    5  A    between atoms: C_14  and  C_15
REMARK    6  A    between atoms: C_18  and  O_19
REMARK    7  A    between atoms: O_19  and  C_20
REMARK    8  A    between atoms: C_20  and  C_21
REMARK    9  A    between atoms: C_21  and  C_22
REMARK                            x       y       z     vdW  Elec       q    Type
REMARK                         _______ _______ _______ _____ _____    ______ ____
ROOT
ATOM      1  C   UNL     1      47.277   4.560  15.154  0.00  0.00    +0.000 C 
ENDROOT
BRANCH   1   2
ATOM      2  C   UNL     1      46.355   4.557  13.956  0.00  0.00    +0.000 A 
ATOM      3  C   UNL     1      46.106   3.363  13.263  0.00  0.00    +0.000 A 
ATOM      4  C   UNL     1      45.246   3.340  12.154  0.00  0.00    +0.000 A 
ATOM      5  C   UNL     1      44.633   4.509  11.697  0.00  0.00    +0.000 A 
ATOM      6  C   UNL     1      44.892   5.704  12.368  0.00  0.00    +0.000 A 
ATOM      7  C   UNL     1      45.733   5.726  13.493  0.00  0.00    +0.000 A 
BRANCH   5   8
ATOM      8  O   UNL     1      43.798   4.592  10.603  0.00  0.00    +0.000 OA
BRANCH   8   9
ATOM      9  C   UNL     1      44.428   4.286   9.354  0.00  0.00    +0.000 C 
BRANCH   9  10
ATOM     10  C   UNL     1      44.416   2.782   9.046  0.00  0.00    +0.000 C 
BRANCH  10  11
ATOM     11  C   UNL     1      45.611   2.365   8.214  0.00  0.00    +0.000 A 
ATOM     12  N   UNL     1      45.978   1.057   8.289  0.00  0.00    +0.000 NA
ATOM     13  C   UNL     1      47.068   0.666   7.580  0.00  0.00    +0.000 A 
ATOM     14  C   UNL     1      47.829   1.513   6.798  0.00  0.00    +0.000 A 
ATOM     15  C   UNL     1      47.451   2.848   6.727  0.00  0.00    +0.000 A 
ATOM     16  C   UNL     1      46.334   3.279   7.441  0.00  0.00    +0.000 A 
ATOM     17  F   UNL     1      45.977   4.564   7.361  0.00  0.00    +0.000 F 
ENDBRANCH  10  11
ENDBRANCH   9  10
ENDBRANCH   8   9
ENDBRANCH   5   8
ENDBRANCH   1   2
BRANCH   1  20
ATOM     18  C   UNL     1      48.886   6.121  16.212  0.00  0.00    +0.000 C 
ATOM     19  O   UNL     1      49.580   5.204  16.659  0.00  0.00    +0.000 OA
ATOM     20  N   UNL     1      47.763   5.877  15.471  0.00  0.00    +0.000 N 
ATOM     21  H   UNL     1      47.199   6.657  15.151  0.00  0.00    +0.000 HD
BRANCH  18  29
ATOM     22  C   UNL     1      49.037   8.872  14.155  0.00  0.00    +0.000 A 
ATOM     23  N   UNL     1      49.148  10.087  13.585  0.00  0.00    +0.000 NA
ATOM     24  C   UNL     1      49.497  11.113  14.362  0.00  0.00    +0.000 A 
ATOM     25  N   UNL     1      49.769  11.072  15.662  0.00  0.00    +0.000 NA
ATOM     26  C   UNL     1      49.648   9.844  16.195  0.00  0.00    +0.000 A 
ATOM     27  S   UNL     1      49.949   9.604  17.845  0.00  0.00    +0.000 S 
ATOM     28  C   UNL     1      49.593   7.945  17.724  0.00  0.00    +0.000 A 
ATOM     29  C   UNL     1      49.234   7.539  16.446  0.00  0.00    +0.000 A 
ATOM     30  C   UNL     1      49.276   8.677  15.523  0.00  0.00    +0.000 A 
BRANCH  22  32
ATOM     31  C   UNL     1      49.480   7.596  12.258  0.00  0.00    +0.000 C 
ATOM     32  O   UNL     1      48.608   7.833  13.357  0.00  0.00    +0.000 OA
ENDBRANCH  22  32
ENDBRANCH  18  29
ENDBRANCH   1  20
TORSDOF 8
ENDMDL
MODEL 9
REMARK VINA RESULT:    -6.471      4.200      8.686
REMARK INTER + INTRA:         -10.724
REMARK INTER:                  -8.647
REMARK INTRA:                  -2.078
REMARK UNBOUND:                -1.227
REMARK  Name = 
REMARK  9 active torsions:
REMARK  status: ('A' for Active; 'I' for Inactive)
REMARK    1  A    between atoms: C_1  and  O_2
REMARK    2  A    between atoms: O_2  and  C_3
REMARK    3  A    between atoms: C_10  and  C_11
REMARK    4  A    between atoms: N_13  and  C_14
REMARK    5  A    between atoms: C_14  and  C_15
REMARK    6  A    between atoms: C_18  and  O_19
REMARK    7  A    between atoms: O_19  and  C_20
REMARK    8  A    between atoms: C_20  and  C_21
REMARK    9  A    between atoms: C_21  and  C_22
REMARK                            x       y       z     vdW  Elec       q    Type
REMARK                         _______ _______ _______ _____ _____    ______ ____
ROOT
ATOM      1  C   UNL     1      48.504   8.480  14.879  0.00  0.00    +0.000 C 
ENDROOT
BRANCH   1   2
ATOM      2  C   UNL     1      48.964   8.041  16.250  0.00  0.00    +0.000 A 
ATOM      3  C   UNL     1      48.305   8.506  17.397  0.00  0.00    +0.000 A 
ATOM      4  C   UNL     1      48.712   8.102  18.677  0.00  0.00    +0.000 A 
ATOM      5  C   UNL     1      49.801   7.242  18.845  0.00  0.00    +0.000 A 
ATOM      6  C   UNL     1      50.476   6.790  17.711  0.00  0.00    +0.000 A 
ATOM      7  C   UNL     1      50.054   7.175  16.427  0.00  0.00    +0.000 A 
BRANCH   5   8
ATOM      8  O   UNL     1      50.293   6.812  20.059  0.00  0.00    +0.000 OA
BRANCH   8   9
ATOM      9  C   UNL     1      50.329   5.389  20.211  0.00  0.00    +0.000 C 
BRANCH   9  10
ATOM     10  C   UNL     1      48.925   4.767  20.234  0.00  0.00    +0.000 C 
BRANCH  10  11
ATOM     11  C   UNL     1      48.543   4.182  18.890  0.00  0.00    +0.000 A 
ATOM     12  N   UNL     1      49.384   3.246  18.373  0.00  0.00    +0.000 NA
ATOM     13  C   UNL     1      49.083   2.732  17.153  0.00  0.00    +0.000 A 
ATOM     14  C   UNL     1      47.984   3.106  16.403  0.00  0.00    +0.000 A 
ATOM     15  C   UNL     1      47.130   4.065  16.935  0.00  0.00    +0.000 A 
ATOM     16  C   UNL     1      47.411   4.608  18.188  0.00  0.00    +0.000 A 
ATOM     17  F   UNL     1      46.579   5.525  18.692  0.00  0.00    +0.000 F 
ENDBRANCH  10  11
ENDBRANCH   9  10
ENDBRANCH   8   9
ENDBRANCH   5   8
ENDBRANCH   1   2
BRANCH   1  20
ATOM     18  C   UNL     1      47.805   6.530  13.518  0.00  0.00    +0.000 C 
ATOM     19  O   UNL     1      48.967   6.240  13.220  0.00  0.00    +0.000 OA
ATOM     20  N   UNL     1      47.514   7.597  14.321  0.00  0.00    +0.000 N 
ATOM     21  H   UNL     1      46.545   7.824  14.515  0.00  0.00    +0.000 HD
BRANCH  18  29
ATOM     22  C   UNL     1      44.860   7.370  11.954  0.00  0.00    +0.000 A 
ATOM     23  N   UNL     1      43.671   7.424  11.325  0.00  0.00    +0.000 NA
ATOM     24  C   UNL     1      43.032   6.275  11.093  0.00  0.00    +0.000 A 
ATOM     25  N   UNL     1      43.437   5.057  11.434  0.00  0.00    +0.000 NA
ATOM     26  C   UNL     1      44.626   5.043  12.060  0.00  0.00    +0.000 A 
ATOM     27  S   UNL     1      45.302   3.572  12.561  0.00  0.00    +0.000 S 
ATOM     28  C   UNL     1      46.676   4.355  13.187  0.00  0.00    +0.000 A 
ATOM     29  C   UNL     1      46.660   5.734  13.027  0.00  0.00    +0.000 A 
ATOM     30  C   UNL     1      45.424   6.150  12.359  0.00  0.00    +0.000 A 
BRANCH  22  32
ATOM     31  C   UNL     1      44.745   9.692  11.814  0.00  0.00    +0.000 C 
ATOM     32  O   UNL     1      45.542   8.555  12.125  0.00  0.00    +0.000 OA
ENDBRANCH  22  32
ENDBRANCH  18  29
ENDBRANCH   1  20
TORSDOF 8
ENDMDL
