MODEL 1
REMARK VINA RESULT:    -8.102      0.000      0.000
REMARK INTER + INTRA:         -12.618
REMARK INTER:                 -11.417
REMARK INTRA:                  -1.201
REMARK UNBOUND:                -1.201
REMARK  Name = 
REMARK  8 active torsions:
REMARK  status: ('A' for Active; 'I' for Inactive)
REMARK    1  A    between atoms: C_1  and  O_2
REMARK    2  A    between atoms: O_2  and  C_3
REMARK    3  A    between atoms: C_10  and  C_11
REMARK    4  A    between atoms: N_13  and  C_14
REMARK    5  A    between atoms: C_14  and  C_15
REMARK    6  A    between atoms: C_18  and  C_19
REMARK    7  A    between atoms: C_19  and  C_20
REMARK    8  A    between atoms: C_21  and  C_22
REMARK                            x       y       z     vdW  Elec       q    Type
REMARK                         _______ _______ _______ _____ _____    ______ ____
ROOT
ATOM      1  C   UNL     1      47.230   8.326  13.599  0.00  0.00    +0.000 C 
ENDROOT
BRANCH   1   2
ATOM      2  C   UNL     1      46.392   7.486  12.678  0.00  0.00    +0.000 A 
ATOM      3  C   UNL     1      46.911   6.942  11.501  0.00  0.00    +0.000 A 
ATOM      4  C   UNL     1      46.110   6.128  10.697  0.00  0.00    +0.000 A 
ATOM      5  C   UNL     1      44.800   5.870  11.090  0.00  0.00    +0.000 A 
ATOM      6  N   UNL     1      44.259   6.434  12.199  0.00  0.00    +0.000 NA
ATOM      7  C   UNL     1      45.056   7.227  12.956  0.00  0.00    +0.000 A 
BRANCH   5   8
ATOM      8  C   UNL     1      43.934   4.906  10.303  0.00  0.00    +0.000 C 
BRANCH   8   9
ATOM      9  C   UNL     1      44.718   3.891   9.525  0.00  0.00    +0.000 C 
ATOM     10  C   UNL     1      45.202   4.059   8.278  0.00  0.00    +0.000 C 
BRANCH  10  11
ATOM     11  C   UNL     1      46.006   3.035   7.588  0.00  0.00    +0.000 A 
ATOM     12  C   UNL     1      46.650   3.319   6.388  0.00  0.00    +0.000 A 
ATOM     13  C   UNL     1      47.391   2.312   5.766  0.00  0.00    +0.000 A 
ATOM     14  C   UNL     1      47.473   1.059   6.360  0.00  0.00    +0.000 A 
ATOM     15  C   UNL     1      46.812   0.864   7.560  0.00  0.00    +0.000 A 
ATOM     16  N   UNL     1      46.084   1.817   8.176  0.00  0.00    +0.000 NA
ENDBRANCH  10  11
ENDBRANCH   8   9
ENDBRANCH   5   8
ENDBRANCH   1   2
BRANCH   1  19
ATOM     17  C   UNL     1      48.841   6.942  14.840  0.00  0.00    +0.000 C 
ATOM     18  O   UNL     1      49.632   6.966  13.901  0.00  0.00    +0.000 OA
ATOM     19  N   UNL     1      47.638   7.592  14.770  0.00  0.00    +0.000 N 
ATOM     20  H   UNL     1      46.985   7.531  15.538  0.00  0.00    +0.000 HD
BRANCH  17  28
ATOM     21  C   UNL     1      47.416   4.225  16.398  0.00  0.00    +0.000 A 
ATOM     22  N   UNL     1      47.079   3.188  17.189  0.00  0.00    +0.000 NA
ATOM     23  C   UNL     1      47.807   2.976  18.288  0.00  0.00    +0.000 A 
ATOM     24  N   UNL     1      48.848   3.689  18.710  0.00  0.00    +0.000 NA
ATOM     25  C   UNL     1      49.157   4.705  17.889  0.00  0.00    +0.000 A 
ATOM     26  S   UNL     1      50.456   5.728  18.272  0.00  0.00    +0.000 S 
ATOM     27  C   UNL     1      50.206   6.654  16.869  0.00  0.00    +0.000 A 
ATOM     28  C   UNL     1      49.146   6.213  16.085  0.00  0.00    +0.000 A 
ATOM     29  C   UNL     1      48.512   5.052  16.704  0.00  0.00    +0.000 A 
BRANCH  21  31
ATOM     30  C   UNL     1      47.077   3.615  14.161  0.00  0.00    +0.000 C 
ATOM     31  O   UNL     1      46.678   4.437  15.253  0.00  0.00    +0.000 OA
ENDBRANCH  21  31
ENDBRANCH  17  28
ENDBRANCH   1  19
TORSDOF 7
ENDMDL
MODEL 2
REMARK VINA RESULT:    -7.228      1.715      2.026
REMARK INTER + INTRA:         -11.387
REMARK INTER:                 -10.331
REMARK INTRA:                  -1.056
REMARK UNBOUND:                -1.201
REMARK  Name = 
REMARK  8 active torsions:
REMARK  status: ('A' for Active; 'I' for Inactive)
REMARK    1  A    between atoms: C_1  and  O_2
REMARK    2  A    between atoms: O_2  and  C_3
REMARK    3  A    between atoms: C_10  and  C_11
REMARK    4  A    between atoms: N_13  and  C_14
REMARK    5  A    between atoms: C_14  and  C_15
REMARK    6  A    between atoms: C_18  and  C_19
REMARK    7  A    between atoms: C_19  and  C_20
REMARK    8  A    between atoms: C_21  and  C_22
REMARK                            x       y       z     vdW  Elec       q    Type
REMARK                         _______ _______ _______ _____ _____    ______ ____
ROOT
ATOM      1  C   UNL     1      48.467   8.130  14.628  0.00  0.00    +0.000 C 
ENDROOT
BRANCH   1   2
ATOM      2  C   UNL     1      47.440   7.487  13.741  0.00  0.00    +0.000 A 
ATOM      3  C   UNL     1      46.368   8.208  13.211  0.00  0.00    +0.000 A 
ATOM      4  C   UNL     1      45.462   7.582  12.353  0.00  0.00    +0.000 A 
ATOM      5  C   UNL     1      45.649   6.239  12.036  0.00  0.00    +0.000 A 
ATOM      6  N   UNL     1      46.650   5.505  12.585  0.00  0.00    +0.000 NA
ATOM      7  C   UNL     1      47.509   6.136  13.421  0.00  0.00    +0.000 A 
BRANCH   5   8
ATOM      8  C   UNL     1      44.753   5.553  11.026  0.00  0.00    +0.000 C 
BRANCH   8   9
ATOM      9  C   UNL     1      45.481   4.600  10.124  0.00  0.00    +0.000 C 
ATOM     10  C   UNL     1      44.952   3.968   9.057  0.00  0.00    +0.000 C 
BRANCH  10  11
ATOM     11  C   UNL     1      45.740   3.080   8.184  0.00  0.00    +0.000 A 
ATOM     12  C   UNL     1      46.277   3.545   6.988  0.00  0.00    +0.000 A 
ATOM     13  C   UNL     1      47.005   2.662   6.188  0.00  0.00    +0.000 A 
ATOM     14  C   UNL     1      47.182   1.349   6.607  0.00  0.00    +0.000 A 
ATOM     15  C   UNL     1      46.625   0.971   7.815  0.00  0.00    +0.000 A 
ATOM     16  N   UNL     1      45.910   1.802   8.601  0.00  0.00    +0.000 NA
ENDBRANCH  10  11
ENDBRANCH   8   9
ENDBRANCH   5   8
ENDBRANCH   1   2
BRANCH   1  19
ATOM     17  C   UNL     1      49.484   6.989  16.555  0.00  0.00    +0.000 C 
ATOM     18  O   UNL     1      48.822   7.661  17.342  0.00  0.00    +0.000 OA
ATOM     19  N   UNL     1      49.363   7.158  15.202  0.00  0.00    +0.000 N 
ATOM     20  H   UNL     1      49.942   6.622  14.572  0.00  0.00    +0.000 HD
BRANCH  17  28
ATOM     21  C   UNL     1      49.394   3.553  16.724  0.00  0.00    +0.000 A 
ATOM     22  N   UNL     1      49.631   2.236  16.877  0.00  0.00    +0.000 NA
ATOM     23  C   UNL     1      50.808   1.867  17.389  0.00  0.00    +0.000 A 
ATOM     24  N   UNL     1      51.798   2.664  17.782  0.00  0.00    +0.000 NA
ATOM     25  C   UNL     1      51.526   3.967  17.603  0.00  0.00    +0.000 A 
ATOM     26  S   UNL     1      52.672   5.133  18.055  0.00  0.00    +0.000 S 
ATOM     27  C   UNL     1      51.658   6.400  17.548  0.00  0.00    +0.000 A 
ATOM     28  C   UNL     1      50.442   5.973  17.028  0.00  0.00    +0.000 A 
ATOM     29  C   UNL     1      50.360   4.515  17.072  0.00  0.00    +0.000 A 
BRANCH  21  31
ATOM     30  C   UNL     1      47.157   4.105  17.150  0.00  0.00    +0.000 C 
ATOM     31  O   UNL     1      48.187   3.939  16.181  0.00  0.00    +0.000 OA
ENDBRANCH  21  31
ENDBRANCH  17  28
ENDBRANCH   1  19
TORSDOF 7
ENDMDL
MODEL 3
REMARK VINA RESULT:    -6.714      2.298      3.493
REMARK INTER + INTRA:         -10.662
REMARK INTER:                  -9.536
REMARK INTRA:                  -1.126
REMARK UNBOUND:                -1.201
REMARK  Name = 
REMARK  8 active torsions:
REMARK  status: ('A' for Active; 'I' for Inactive)
REMARK    1  A    between atoms: C_1  and  O_2
REMARK    2  A    between atoms: O_2  and  C_3
REMARK    3  A    between atoms: C_10  and  C_11
REMARK    4  A    between atoms: N_13  and  C_14
REMARK    5  A    between atoms: C_14  and  C_15
REMARK    6  A    between atoms: C_18  and  C_19
REMARK    7  A    between atoms: C_19  and  C_20
REMARK    8  A    between atoms: C_21  and  C_22
REMARK                            x       y       z     vdW  Elec       q    Type
REMARK                         _______ _______ _______ _____ _____    ______ ____
ROOT
ATOM      1  C   UNL     1      47.272   8.769  13.860  0.00  0.00    +0.000 C 
ENDROOT
BRANCH   1   2
ATOM      2  C   UNL     1      46.349   7.861  13.098  0.00  0.00    +0.000 A 
ATOM      3  C   UNL     1      45.370   8.360  12.236  0.00  0.00    +0.000 A 
ATOM      4  C   UNL     1      44.564   7.479  11.512  0.00  0.00    +0.000 A 
ATOM      5  C   UNL     1      44.757   6.108  11.662  0.00  0.00    +0.000 A 
ATOM      6  N   UNL     1      45.663   5.603  12.536  0.00  0.00    +0.000 NA
ATOM      7  C   UNL     1      46.425   6.480  13.233  0.00  0.00    +0.000 A 
BRANCH   5   8
ATOM      8  C   UNL     1      43.978   5.123  10.814  0.00  0.00    +0.000 C 
BRANCH   8   9
ATOM      9  C   UNL     1      44.848   4.189  10.025  0.00  0.00    +0.000 C 
ATOM     10  C   UNL     1      44.719   3.918   8.711  0.00  0.00    +0.000 C 
BRANCH  10  11
ATOM     11  C   UNL     1      45.640   3.024   7.986  0.00  0.00    +0.000 A 
ATOM     12  C   UNL     1      46.311   3.460   6.847  0.00  0.00    +0.000 A 
ATOM     13  C   UNL     1      47.164   2.572   6.187  0.00  0.00    +0.000 A 
ATOM     14  C   UNL     1      47.327   1.285   6.685  0.00  0.00    +0.000 A 
ATOM     15  C   UNL     1      46.632   0.937   7.829  0.00  0.00    +0.000 A 
ATOM     16  N   UNL     1      45.796   1.772   8.479  0.00  0.00    +0.000 NA
ENDBRANCH  10  11
ENDBRANCH   8   9
ENDBRANCH   5   8
ENDBRANCH   1   2
BRANCH   1  19
ATOM     17  C   UNL     1      48.748   8.107  15.712  0.00  0.00    +0.000 C 
ATOM     18  O   UNL     1      48.087   8.762  16.514  0.00  0.00    +0.000 OA
ATOM     19  N   UNL     1      48.408   8.057  14.387  0.00  0.00    +0.000 N 
ATOM     20  H   UNL     1      48.984   7.543  13.736  0.00  0.00    +0.000 HD
BRANCH  17  28
ATOM     21  C   UNL     1      52.033   8.095  14.685  0.00  0.00    +0.000 A 
ATOM     22  N   UNL     1      53.354   7.909  14.502  0.00  0.00    +0.000 NA
ATOM     23  C   UNL     1      53.973   7.012  15.275  0.00  0.00    +0.000 A 
ATOM     24  N   UNL     1      53.426   6.257  16.223  0.00  0.00    +0.000 NA
ATOM     25  C   UNL     1      52.111   6.481  16.380  0.00  0.00    +0.000 A 
ATOM     26  S   UNL     1      51.243   5.601  17.543  0.00  0.00    +0.000 S 
ATOM     27  C   UNL     1      49.798   6.403  17.146  0.00  0.00    +0.000 A 
ATOM     28  C   UNL     1      49.939   7.348  16.136  0.00  0.00    +0.000 A 
ATOM     29  C   UNL     1      51.324   7.385  15.671  0.00  0.00    +0.000 A 
BRANCH  21  31
ATOM     30  C   UNL     1      51.540   8.797  12.504  0.00  0.00    +0.000 C 
ATOM     31  O   UNL     1      51.392   9.032  13.901  0.00  0.00    +0.000 OA
ENDBRANCH  21  31
ENDBRANCH  17  28
ENDBRANCH   1  19
TORSDOF 7
ENDMDL
MODEL 4
REMARK VINA RESULT:    -6.551      1.770      2.301
REMARK INTER + INTRA:         -10.432
REMARK INTER:                  -9.330
REMARK INTRA:                  -1.102
REMARK UNBOUND:                -1.201
REMARK  Name = 
REMARK  8 active torsions:
REMARK  status: ('A' for Active; 'I' for Inactive)
REMARK    1  A    between atoms: C_1  and  O_2
REMARK    2  A    between atoms: O_2  and  C_3
REMARK    3  A    between atoms: C_10  and  C_11
REMARK    4  A    between atoms: N_13  and  C_14
REMARK    5  A    between atoms: C_14  and  C_15
REMARK    6  A    between atoms: C_18  and  C_19
REMARK    7  A    between atoms: C_19  and  C_20
REMARK    8  A    between atoms: C_21  and  C_22
REMARK                            x       y       z     vdW  Elec       q    Type
REMARK                         _______ _______ _______ _____ _____    ______ ____
ROOT
ATOM      1  C   UNL     1      47.182   8.411  14.255  0.00  0.00    +0.000 C 
ENDROOT
BRANCH   1   2
ATOM      2  C   UNL     1      46.471   7.554  13.248  0.00  0.00    +0.000 A 
ATOM      3  C   UNL     1      46.684   6.176  13.172  0.00  0.00    +0.000 A 
ATOM      4  C   UNL     1      45.967   5.410  12.251  0.00  0.00    +0.000 A 
ATOM      5  C   UNL     1      45.043   6.040  11.421  0.00  0.00    +0.000 A 
ATOM      6  N   UNL     1      44.863   7.385  11.439  0.00  0.00    +0.000 NA
ATOM      7  C   UNL     1      45.579   8.105  12.336  0.00  0.00    +0.000 A 
BRANCH   5   8
ATOM      8  C   UNL     1      44.168   5.231  10.485  0.00  0.00    +0.000 C 
BRANCH   8   9
ATOM      9  C   UNL     1      44.933   4.524   9.406  0.00  0.00    +0.000 C 
ATOM     10  C   UNL     1      45.157   3.196   9.342  0.00  0.00    +0.000 C 
BRANCH  10  11
ATOM     11  C   UNL     1      45.879   2.560   8.226  0.00  0.00    +0.000 A 
ATOM     12  C   UNL     1      46.173   3.272   7.067  0.00  0.00    +0.000 A 
ATOM     13  C   UNL     1      46.848   2.622   6.031  0.00  0.00    +0.000 A 
ATOM     14  C   UNL     1      47.215   1.291   6.184  0.00  0.00    +0.000 A 
ATOM     15  C   UNL     1      46.895   0.661   7.374  0.00  0.00    +0.000 A 
ATOM     16  N   UNL     1      46.237   1.263   8.385  0.00  0.00    +0.000 NA
ENDBRANCH  10  11
ENDBRANCH   8   9
ENDBRANCH   5   8
ENDBRANCH   1   2
BRANCH   1  19
ATOM     17  C   UNL     1      49.490   8.478  15.104  0.00  0.00    +0.000 C 
ATOM     18  O   UNL     1      49.525   9.702  15.000  0.00  0.00    +0.000 OA
ATOM     19  N   UNL     1      48.369   7.770  14.761  0.00  0.00    +0.000 N 
ATOM     20  H   UNL     1      48.371   6.762  14.819  0.00  0.00    +0.000 HD
BRANCH  17  28
ATOM     21  C   UNL     1      49.812   5.729  17.149  0.00  0.00    +0.000 A 
ATOM     22  N   UNL     1      50.217   4.674  17.882  0.00  0.00    +0.000 NA
ATOM     23  C   UNL     1      51.528   4.429  17.957  0.00  0.00    +0.000 A 
ATOM     24  N   UNL     1      52.508   5.124  17.385  0.00  0.00    +0.000 NA
ATOM     25  C   UNL     1      52.061   6.159  16.656  0.00  0.00    +0.000 A 
ATOM     26  S   UNL     1      53.172   7.164  15.858  0.00  0.00    +0.000 S 
ATOM     27  C   UNL     1      51.924   8.128  15.226  0.00  0.00    +0.000 A 
ATOM     28  C   UNL     1      50.650   7.714  15.599  0.00  0.00    +0.000 A 
ATOM     29  C   UNL     1      50.735   6.541  16.465  0.00  0.00    +0.000 A 
BRANCH  21  31
ATOM     30  C   UNL     1      47.733   5.602  18.221  0.00  0.00    +0.000 C 
ATOM     31  O   UNL     1      48.459   5.976  17.054  0.00  0.00    +0.000 OA
ENDBRANCH  21  31
ENDBRANCH  17  28
ENDBRANCH   1  19
TORSDOF 7
ENDMDL
MODEL 5
REMARK VINA RESULT:    -6.199      3.395      5.093
REMARK INTER + INTRA:          -9.937
REMARK INTER:                  -8.759
REMARK INTRA:                  -1.178
REMARK UNBOUND:                -1.201
REMARK  Name = 
REMARK  8 active torsions:
REMARK  status: ('A' for Active; 'I' for Inactive)
REMARK    1  A    between atoms: C_1  and  O_2
REMARK    2  A    between atoms: O_2  and  C_3
REMARK    3  A    between atoms: C_10  and  C_11
REMARK    4  A    between atoms: N_13  and  C_14
REMARK    5  A    between atoms: C_14  and  C_15
REMARK    6  A    between atoms: C_18  and  C_19
REMARK    7  A    between atoms: C_19  and  C_20
REMARK    8  A    between atoms: C_21  and  C_22
REMARK                            x       y       z     vdW  Elec       q    Type
REMARK                         _______ _______ _______ _____ _____    ______ ____
ROOT
ATOM      1  C   UNL     1      47.919   8.527  14.621  0.00  0.00    +0.000 C 
ENDROOT
BRANCH   1   2
ATOM      2  C   UNL     1      47.154   7.729  13.604  0.00  0.00    +0.000 A 
ATOM      3  C   UNL     1      47.236   6.336  13.547  0.00  0.00    +0.000 A 
ATOM      4  C   UNL     1      46.472   5.631  12.614  0.00  0.00    +0.000 A 
ATOM      5  C   UNL     1      45.633   6.336  11.755  0.00  0.00    +0.000 A 
ATOM      6  N   UNL     1      45.582   7.692  11.756  0.00  0.00    +0.000 NA
ATOM      7  C   UNL     1      46.341   8.352  12.665  0.00  0.00    +0.000 A 
BRANCH   5   8
ATOM      8  C   UNL     1      44.709   5.603  10.805  0.00  0.00    +0.000 C 
BRANCH   8   9
ATOM      9  C   UNL     1      45.398   4.552   9.985  0.00  0.00    +0.000 C 
ATOM     10  C   UNL     1      45.064   4.191   8.730  0.00  0.00    +0.000 C 
BRANCH  10  11
ATOM     11  C   UNL     1      45.816   3.181   7.963  0.00  0.00    +0.000 A 
ATOM     12  C   UNL     1      46.425   3.509   6.756  0.00  0.00    +0.000 A 
ATOM     13  C   UNL     1      47.116   2.515   6.059  0.00  0.00    +0.000 A 
ATOM     14  C   UNL     1      47.185   1.232   6.589  0.00  0.00    +0.000 A 
ATOM     15  C   UNL     1      46.561   0.995   7.800  0.00  0.00    +0.000 A 
ATOM     16  N   UNL     1      45.881   1.934   8.488  0.00  0.00    +0.000 NA
ENDBRANCH  10  11
ENDBRANCH   8   9
ENDBRANCH   5   8
ENDBRANCH   1   2
BRANCH   1  19
ATOM     17  C   UNL     1      50.321   8.052  14.395  0.00  0.00    +0.000 C 
ATOM     18  O   UNL     1      50.203   6.997  15.014  0.00  0.00    +0.000 OA
ATOM     19  N   UNL     1      49.241   8.859  14.157  0.00  0.00    +0.000 N 
ATOM     20  H   UNL     1      49.364   9.739  13.678  0.00  0.00    +0.000 HD
BRANCH  17  28
ATOM     21  C   UNL     1      51.330   9.523  11.453  0.00  0.00    +0.000 A 
ATOM     22  N   UNL     1      51.980  10.113  10.431  0.00  0.00    +0.000 NA
ATOM     23  C   UNL     1      53.297  10.301  10.552  0.00  0.00    +0.000 A 
ATOM     24  N   UNL     1      54.065   9.960  11.583  0.00  0.00    +0.000 NA
ATOM     25  C   UNL     1      53.377   9.385  12.583  0.00  0.00    +0.000 A 
ATOM     26  S   UNL     1      54.195   8.877  13.980  0.00  0.00    +0.000 S 
ATOM     27  C   UNL     1      52.752   8.316  14.682  0.00  0.00    +0.000 A 
ATOM     28  C   UNL     1      51.629   8.501  13.883  0.00  0.00    +0.000 A 
ATOM     29  C   UNL     1      52.008   9.131  12.621  0.00  0.00    +0.000 A 
BRANCH  21  31
ATOM     30  C   UNL     1      49.256  10.548  11.082  0.00  0.00    +0.000 C 
ATOM     31  O   UNL     1      49.968   9.342  11.340  0.00  0.00    +0.000 OA
ENDBRANCH  21  31
ENDBRANCH  17  28
ENDBRANCH   1  19
TORSDOF 7
ENDMDL
MODEL 6
REMARK VINA RESULT:    -6.166      2.417      3.576
REMARK INTER + INTRA:          -9.890
REMARK INTER:                  -8.694
REMARK INTRA:                  -1.196
REMARK UNBOUND:                -1.201
REMARK  Name = 
REMARK  8 active torsions:
REMARK  status: ('A' for Active; 'I' for Inactive)
REMARK    1  A    between atoms: C_1  and  O_2
REMARK    2  A    between atoms: O_2  and  C_3
REMARK    3  A    between atoms: C_10  and  C_11
REMARK    4  A    between atoms: N_13  and  C_14
REMARK    5  A    between atoms: C_14  and  C_15
REMARK    6  A    between atoms: C_18  and  C_19
REMARK    7  A    between atoms: C_19  and  C_20
REMARK    8  A    between atoms: C_21  and  C_22
REMARK                            x       y       z     vdW  Elec       q    Type
REMARK                         _______ _______ _______ _____ _____    ______ ____
ROOT
ATOM      1  C   UNL     1      47.796   7.085  14.624  0.00  0.00    +0.000 C 
ENDROOT
BRANCH   1   2
ATOM      2  C   UNL     1      46.970   6.151  13.788  0.00  0.00    +0.000 A 
ATOM      3  C   UNL     1      47.116   4.764  13.869  0.00  0.00    +0.000 A 
ATOM      4  C   UNL     1      46.295   3.931  13.107  0.00  0.00    +0.000 A 
ATOM      5  C   UNL     1      45.334   4.504  12.278  0.00  0.00    +0.000 A 
ATOM      6  N   UNL     1      45.214   5.848  12.142  0.00  0.00    +0.000 NA
ATOM      7  C   UNL     1      46.030   6.633  12.885  0.00  0.00    +0.000 A 
BRANCH   5   8
ATOM      8  C   UNL     1      44.352   3.634  11.520  0.00  0.00    +0.000 C 
BRANCH   8   9
ATOM      9  C   UNL     1      44.932   3.003  10.288  0.00  0.00    +0.000 C 
ATOM     10  C   UNL     1      45.419   3.666   9.220  0.00  0.00    +0.000 C 
BRANCH  10  11
ATOM     11  C   UNL     1      46.019   2.982   8.061  0.00  0.00    +0.000 A 
ATOM     12  C   UNL     1      46.350   1.632   8.120  0.00  0.00    +0.000 A 
ATOM     13  C   UNL     1      46.928   1.031   7.000  0.00  0.00    +0.000 A 
ATOM     14  C   UNL     1      47.151   1.789   5.857  0.00  0.00    +0.000 A 
ATOM     15  C   UNL     1      46.782   3.122   5.879  0.00  0.00    +0.000 A 
ATOM     16  N   UNL     1      46.230   3.728   6.950  0.00  0.00    +0.000 NA
ENDBRANCH  10  11
ENDBRANCH   8   9
ENDBRANCH   5   8
ENDBRANCH   1   2
BRANCH   1  19
ATOM     17  C   UNL     1      49.081   6.219  16.534  0.00  0.00    +0.000 C 
ATOM     18  O   UNL     1      48.214   6.586  17.324  0.00  0.00    +0.000 OA
ATOM     19  N   UNL     1      48.946   6.425  15.187  0.00  0.00    +0.000 N 
ATOM     20  H   UNL     1      49.685   6.148  14.558  0.00  0.00    +0.000 HD
BRANCH  17  28
ATOM     21  C   UNL     1      52.435   6.817  16.055  0.00  0.00    +0.000 A 
ATOM     22  N   UNL     1      53.782   6.834  16.052  0.00  0.00    +0.000 NA
ATOM     23  C   UNL     1      54.422   5.885  16.740  0.00  0.00    +0.000 A 
ATOM     24  N   UNL     1      53.875   4.894  17.439  0.00  0.00    +0.000 NA
ATOM     25  C   UNL     1      52.533   4.918  17.423  0.00  0.00    +0.000 A 
ATOM     26  S   UNL     1      51.662   3.724  18.258  0.00  0.00    +0.000 S 
ATOM     27  C   UNL     1      50.178   4.406  17.787  0.00  0.00    +0.000 A 
ATOM     28  C   UNL     1      50.306   5.543  16.998  0.00  0.00    +0.000 A 
ATOM     29  C   UNL     1      51.719   5.842  16.772  0.00  0.00    +0.000 A 
BRANCH  21  31
ATOM     30  C   UNL     1      52.519   8.332  14.269  0.00  0.00    +0.000 C 
ATOM     31  O   UNL     1      51.770   7.804  15.360  0.00  0.00    +0.000 OA
ENDBRANCH  21  31
ENDBRANCH  17  28
ENDBRANCH   1  19
TORSDOF 7
ENDMDL
MODEL 7
REMARK VINA RESULT:    -5.991      3.708      8.113
REMARK INTER + INTRA:          -9.643
REMARK INTER:                  -8.219
REMARK INTRA:                  -1.425
REMARK UNBOUND:                -1.201
REMARK  Name = 
REMARK  8 active torsions:
REMARK  status: ('A' for Active; 'I' for Inactive)
REMARK    1  A    between atoms: C_1  and  O_2
REMARK    2  A    between atoms: O_2  and  C_3
REMARK    3  A    between atoms: C_10  and  C_11
REMARK    4  A    between atoms: N_13  and  C_14
REMARK    5  A    between atoms: C_14  and  C_15
REMARK    6  A    between atoms: C_18  and  C_19
REMARK    7  A    between atoms: C_19  and  C_20
REMARK    8  A    between atoms: C_21  and  C_22
REMARK                            x       y       z     vdW  Elec       q    Type
REMARK                         _______ _______ _______ _____ _____    ______ ____
ROOT
ATOM      1  C   UNL     1      48.298   9.781  15.446  0.00  0.00    +0.000 C 
ENDROOT
BRANCH   1   2
ATOM      2  C   UNL     1      48.765   9.089  16.694  0.00  0.00    +0.000 A 
ATOM      3  C   UNL     1      47.867   8.549  17.617  0.00  0.00    +0.000 A 
ATOM      4  C   UNL     1      48.345   7.873  18.741  0.00  0.00    +0.000 A 
ATOM      5  C   UNL     1      49.721   7.746  18.919  0.00  0.00    +0.000 A 
ATOM      6  N   UNL     1      50.610   8.312  18.065  0.00  0.00    +0.000 NA
ATOM      7  C   UNL     1      50.118   8.971  16.988  0.00  0.00    +0.000 A 
BRANCH   5   8
ATOM      8  C   UNL     1      50.278   6.928  20.066  0.00  0.00    +0.000 C 
BRANCH   8   9
ATOM      9  C   UNL     1      50.817   5.592  19.647  0.00  0.00    +0.000 C 
ATOM     10  C   UNL     1      50.502   4.939  18.511  0.00  0.00    +0.000 C 
BRANCH  10  11
ATOM     11  C   UNL     1      51.107   3.647  18.138  0.00  0.00    +0.000 A 
ATOM     12  C   UNL     1      52.401   3.323  18.533  0.00  0.00    +0.000 A 
ATOM     13  C   UNL     1      52.935   2.093  18.145  0.00  0.00    +0.000 A 
ATOM     14  C   UNL     1      52.163   1.223  17.385  0.00  0.00    +0.000 A 
ATOM     15  C   UNL     1      50.882   1.618  17.045  0.00  0.00    +0.000 A 
ATOM     16  N   UNL     1      50.346   2.804  17.400  0.00  0.00    +0.000 NA
ENDBRANCH  10  11
ENDBRANCH   8   9
ENDBRANCH   5   8
ENDBRANCH   1   2
BRANCH   1  19
ATOM     17  C   UNL     1      47.762   8.108  13.724  0.00  0.00    +0.000 C 
ATOM     18  O   UNL     1      48.950   7.976  13.439  0.00  0.00    +0.000 OA
ATOM     19  N   UNL     1      47.361   8.976  14.705  0.00  0.00    +0.000 N 
ATOM     20  H   UNL     1      46.378   9.097  14.901  0.00  0.00    +0.000 HD
BRANCH  17  28
ATOM     21  C   UNL     1      46.885   4.781  13.690  0.00  0.00    +0.000 A 
ATOM     22  N   UNL     1      46.323   3.569  13.514  0.00  0.00    +0.000 NA
ATOM     23  C   UNL     1      45.272   3.479  12.695  0.00  0.00    +0.000 A 
ATOM     24  N   UNL     1      44.703   4.466  12.009  0.00  0.00    +0.000 NA
ATOM     25  C   UNL     1      45.286   5.657  12.220  0.00  0.00    +0.000 A 
ATOM     26  S   UNL     1      44.696   7.034  11.421  0.00  0.00    +0.000 S 
ATOM     27  C   UNL     1      45.861   8.025  12.162  0.00  0.00    +0.000 A 
ATOM     28  C   UNL     1      46.713   7.344  13.024  0.00  0.00    +0.000 A 
ATOM     29  C   UNL     1      46.374   5.924  13.049  0.00  0.00    +0.000 A 
BRANCH  21  31
ATOM     30  C   UNL     1      47.622   4.638  15.910  0.00  0.00    +0.000 C 
ATOM     31  O   UNL     1      47.959   4.883  14.548  0.00  0.00    +0.000 OA
ENDBRANCH  21  31
ENDBRANCH  17  28
ENDBRANCH   1  19
TORSDOF 7
ENDMDL
MODEL 8
REMARK VINA RESULT:    -5.950      3.526      8.199
REMARK INTER + INTRA:          -9.585
REMARK INTER:                  -8.821
REMARK INTRA:                  -0.764
REMARK UNBOUND:                -1.201
REMARK  Name = 
REMARK  8 active torsions:
REMARK  status: ('A' for Active; 'I' for Inactive)
REMARK    1  A    between atoms: C_1  and  O_2
REMARK    2  A    between atoms: O_2  and  C_3
REMARK    3  A    between atoms: C_10  and  C_11
REMARK    4  A    between atoms: N_13  and  C_14
REMARK    5  A    between atoms: C_14  and  C_15
REMARK    6  A    between atoms: C_18  and  C_19
REMARK    7  A    between atoms: C_19  and  C_20
REMARK    8  A    between atoms: C_21  and  C_22
REMARK                            x       y       z     vdW  Elec       q    Type
REMARK                         _______ _______ _______ _____ _____    ______ ____
ROOT
ATOM      1  C   UNL     1      48.266   8.181  11.773  0.00  0.00    +0.000 C 
ENDROOT
BRANCH   1   2
ATOM      2  C   UNL     1      48.755   7.912  13.167  0.00  0.00    +0.000 A 
ATOM      3  C   UNL     1      48.519   6.694  13.808  0.00  0.00    +0.000 A 
ATOM      4  C   UNL     1      49.031   6.470  15.087  0.00  0.00    +0.000 A 
ATOM      5  C   UNL     1      49.778   7.471  15.702  0.00  0.00    +0.000 A 
ATOM      6  N   UNL     1      49.970   8.682  15.120  0.00  0.00    +0.000 NA
ATOM      7  C   UNL     1      49.453   8.876  13.883  0.00  0.00    +0.000 A 
BRANCH   5   8
ATOM      8  C   UNL     1      50.442   7.227  17.042  0.00  0.00    +0.000 C 
BRANCH   8   9
ATOM      9  C   UNL     1      51.144   5.905  17.134  0.00  0.00    +0.000 C 
ATOM     10  C   UNL     1      50.690   4.816  17.786  0.00  0.00    +0.000 C 
BRANCH  10  11
ATOM     11  C   UNL     1      51.411   3.531  17.796  0.00  0.00    +0.000 A 
ATOM     12  C   UNL     1      50.786   2.357  17.386  0.00  0.00    +0.000 A 
ATOM     13  C   UNL     1      51.507   1.162  17.425  0.00  0.00    +0.000 A 
ATOM     14  C   UNL     1      52.826   1.174  17.861  0.00  0.00    +0.000 A 
ATOM     15  C   UNL     1      53.375   2.386  18.240  0.00  0.00    +0.000 A 
ATOM     16  N   UNL     1      52.697   3.552  18.220  0.00  0.00    +0.000 NA
ENDBRANCH  10  11
ENDBRANCH   8   9
ENDBRANCH   5   8
ENDBRANCH   1   2
BRANCH   1  19
ATOM     17  C   UNL     1      46.214   6.925  11.263  0.00  0.00    +0.000 C 
ATOM     18  O   UNL     1      45.516   7.796  11.778  0.00  0.00    +0.000 OA
ATOM     19  N   UNL     1      47.577   7.045  11.218  0.00  0.00    +0.000 N 
ATOM     20  H   UNL     1      48.136   6.302  10.823  0.00  0.00    +0.000 HD
BRANCH  17  28
ATOM     21  C   UNL     1      44.438   4.287  12.577  0.00  0.00    +0.000 A 
ATOM     22  N   UNL     1      43.717   3.174  12.816  0.00  0.00    +0.000 NA
ATOM     23  C   UNL     1      43.430   2.379  11.782  0.00  0.00    +0.000 A 
ATOM     24  N   UNL     1      43.785   2.555  10.512  0.00  0.00    +0.000 NA
ATOM     25  C   UNL     1      44.493   3.679  10.315  0.00  0.00    +0.000 A 
ATOM     26  S   UNL     1      45.038   4.065   8.755  0.00  0.00    +0.000 S 
ATOM     27  C   UNL     1      45.771   5.494   9.310  0.00  0.00    +0.000 A 
ATOM     28  C   UNL     1      45.619   5.712  10.674  0.00  0.00    +0.000 A 
ATOM     29  C   UNL     1      44.862   4.617  11.277  0.00  0.00    +0.000 A 
BRANCH  21  31
ATOM     30  C   UNL     1      45.949   4.804  14.291  0.00  0.00    +0.000 C 
ATOM     31  O   UNL     1      44.723   5.119  13.638  0.00  0.00    +0.000 OA
ENDBRANCH  21  31
ENDBRANCH  17  28
ENDBRANCH   1  19
TORSDOF 7
ENDMDL
MODEL 9
REMARK VINA RESULT:    -5.664      3.847      8.551
REMARK INTER + INTRA:          -9.182
REMARK INTER:                  -7.852
REMARK INTRA:                  -1.330
REMARK UNBOUND:                -1.201
REMARK  Name = 
REMARK  8 active torsions:
REMARK  status: ('A' for Active; 'I' for Inactive)
REMARK    1  A    between atoms: C_1  and  O_2
REMARK    2  A    between atoms: O_2  and  C_3
REMARK    3  A    between atoms: C_10  and  C_11
REMARK    4  A    between atoms: N_13  and  C_14
REMARK    5  A    between atoms: C_14  and  C_15
REMARK    6  A    between atoms: C_18  and  C_19
REMARK    7  A    between atoms: C_19  and  C_20
REMARK    8  A    between atoms: C_21  and  C_22
REMARK                            x       y       z     vdW  Elec       q    Type
REMARK                         _______ _______ _______ _____ _____    ______ ____
ROOT
ATOM      1  C   UNL     1      48.474   8.651  15.529  0.00  0.00    +0.000 C 
ENDROOT
BRANCH   1   2
ATOM      2  C   UNL     1      49.371   7.775  16.356  0.00  0.00    +0.000 A 
ATOM      3  C   UNL     1      50.505   7.164  15.817  0.00  0.00    +0.000 A 
ATOM      4  C   UNL     1      51.336   6.395  16.634  0.00  0.00    +0.000 A 
ATOM      5  C   UNL     1      51.018   6.255  17.982  0.00  0.00    +0.000 A 
ATOM      6  N   UNL     1      49.891   6.793  18.512  0.00  0.00    +0.000 NA
ATOM      7  C   UNL     1      49.097   7.527  17.695  0.00  0.00    +0.000 A 
BRANCH   5   8
ATOM      8  C   UNL     1      51.951   5.521  18.923  0.00  0.00    +0.000 C 
BRANCH   8   9
ATOM      9  C   UNL     1      52.644   4.350  18.292  0.00  0.00    +0.000 C 
ATOM     10  C   UNL     1      53.145   3.284  18.949  0.00  0.00    +0.000 C 
BRANCH  10  11
ATOM     11  C   UNL     1      53.773   2.143  18.259  0.00  0.00    +0.000 A 
ATOM     12  C   UNL     1      54.842   2.334  17.389  0.00  0.00    +0.000 A 
ATOM     13  C   UNL     1      55.397   1.224  16.749  0.00  0.00    +0.000 A 
ATOM     14  C   UNL     1      54.876  -0.040  17.003  0.00  0.00    +0.000 A 
ATOM     15  C   UNL     1      53.821  -0.143  17.891  0.00  0.00    +0.000 A 
ATOM     16  N   UNL     1      53.263   0.915  18.514  0.00  0.00    +0.000 NA
ENDBRANCH  10  11
ENDBRANCH   8   9
ENDBRANCH   5   8
ENDBRANCH   1   2
BRANCH   1  19
ATOM     17  C   UNL     1      47.353   8.057  13.422  0.00  0.00    +0.000 C 
ATOM     18  O   UNL     1      48.014   8.885  12.800  0.00  0.00    +0.000 OA
ATOM     19  N   UNL     1      47.525   7.880  14.768  0.00  0.00    +0.000 N 
ATOM     20  H   UNL     1      46.947   7.220  15.269  0.00  0.00    +0.000 HD
BRANCH  17  28
ATOM     21  C   UNL     1      46.684   4.682  13.451  0.00  0.00    +0.000 A 
ATOM     22  N   UNL     1      46.196   3.435  13.302  0.00  0.00    +0.000 NA
ATOM     23  C   UNL     1      45.140   3.267  12.501  0.00  0.00    +0.000 A 
ATOM     24  N   UNL     1      44.500   4.206  11.810  0.00  0.00    +0.000 NA
ATOM     25  C   UNL     1      45.011   5.434  11.995  0.00  0.00    +0.000 A 
ATOM     26  S   UNL     1      44.324   6.759  11.186  0.00  0.00    +0.000 S 
ATOM     27  C   UNL     1      45.437   7.832  11.892  0.00  0.00    +0.000 A 
ATOM     28  C   UNL     1      46.343   7.219  12.750  0.00  0.00    +0.000 A 
ATOM     29  C   UNL     1      46.093   5.780  12.802  0.00  0.00    +0.000 A 
BRANCH  21  31
ATOM     30  C   UNL     1      47.524   4.425  15.624  0.00  0.00    +0.000 C 
ATOM     31  O   UNL     1      47.763   4.863  14.289  0.00  0.00    +0.000 OA
ENDBRANCH  21  31
ENDBRANCH  17  28
ENDBRANCH   1  19
TORSDOF 7
ENDMDL
