MODEL 1
REMARK VINA RESULT:    -7.201      0.000      0.000
REMARK INTER + INTRA:          -9.487
REMARK INTER:                  -9.096
REMARK INTRA:                  -0.391
REMARK UNBOUND:                -0.391
REMARK  Name = 
REMARK  5 active torsions:
REMARK  status: ('A' for Active; 'I' for Inactive)
REMARK    1  A    between atoms: N_1  and  C_2
REMARK    2  A    between atoms: C_2  and  C_3
REMARK    3  A    between atoms: C_6  and  O_7
REMARK    4  A    between atoms: O_7  and  C_8
REMARK    5  A    between atoms: C_8  and  C_9
REMARK                            x       y       z     vdW  Elec       q    Type
REMARK                         _______ _______ _______ _____ _____    ______ ____
ROOT
ATOM      1  C   UNL     1      46.509   2.291   7.598  0.00  0.00    +0.000 A 
ATOM      2  C   UNL     1      46.350   3.684   7.643  0.00  0.00    +0.000 A 
ATOM      3  C   UNL     1      45.405   4.275   8.493  0.00  0.00    +0.000 A 
ATOM      4  C   UNL     1      44.604   3.476   9.307  0.00  0.00    +0.000 A 
ATOM      5  C   UNL     1      44.763   2.090   9.273  0.00  0.00    +0.000 A 
ATOM      6  C   UNL     1      45.700   1.499   8.421  0.00  0.00    +0.000 A 
ENDROOT
BRANCH   1   7
ATOM      7  C   UNL     1      47.520   1.660   6.675  0.00  0.00    +0.000 C 
BRANCH   7   8
ATOM      8  N   UNL     1      48.609   2.577   6.357  0.00  0.00    +0.000 NA
ATOM      9  H   UNL     1      49.275   2.582   7.127  0.00  0.00    +0.000 HD
ATOM     10  H   UNL     1      48.232   3.522   6.297  0.00  0.00    +0.000 HD
ENDBRANCH   7   8
ENDBRANCH   1   7
BRANCH   4  11
ATOM     11  O   UNL     1      43.682   3.928  10.210  0.00  0.00    +0.000 OA
BRANCH  11  12
ATOM     12  C   UNL     1      43.752   3.366  11.524  0.00  0.00    +0.000 C 
BRANCH  12  13
ATOM     13  C   UNL     1      44.854   4.055  12.305  0.00  0.00    +0.000 A 
ATOM     14  N   UNL     1      44.846   5.406  12.339  0.00  0.00    +0.000 NA
ATOM     15  C   UNL     1      45.848   5.997  13.016  0.00  0.00    +0.000 A 
ATOM     16  C   UNL     1      46.843   5.304  13.662  0.00  0.00    +0.000 A 
ATOM     17  C   UNL     1      46.758   3.934  13.578  0.00  0.00    +0.000 A 
ATOM     18  N   UNL     1      45.782   3.286  12.916  0.00  0.00    +0.000 NA
ENDBRANCH  12  13
ENDBRANCH  11  12
ENDBRANCH   4  11
TORSDOF 5
ENDMDL
MODEL 2
REMARK VINA RESULT:    -6.312      1.730      5.598
REMARK INTER + INTRA:          -8.363
REMARK INTER:                  -8.061
REMARK INTRA:                  -0.302
REMARK UNBOUND:                -0.391
REMARK  Name = 
REMARK  5 active torsions:
REMARK  status: ('A' for Active; 'I' for Inactive)
REMARK    1  A    between atoms: N_1  and  C_2
REMARK    2  A    between atoms: C_2  and  C_3
REMARK    3  A    between atoms: C_6  and  O_7
REMARK    4  A    between atoms: O_7  and  C_8
REMARK    5  A    between atoms: C_8  and  C_9
REMARK                            x       y       z     vdW  Elec       q    Type
REMARK                         _______ _______ _______ _____ _____    ______ ____
ROOT
ATOM      1  C   UNL     1      46.216   4.931  12.979  0.00  0.00    +0.000 A 
ATOM      2  C   UNL     1      46.100   5.775  11.865  0.00  0.00    +0.000 A 
ATOM      3  C   UNL     1      45.424   5.358  10.710  0.00  0.00    +0.000 A 
ATOM      4  C   UNL     1      44.858   4.086  10.655  0.00  0.00    +0.000 A 
ATOM      5  C   UNL     1      44.962   3.244  11.764  0.00  0.00    +0.000 A 
ATOM      6  C   UNL     1      45.642   3.656  12.913  0.00  0.00    +0.000 A 
ENDROOT
BRANCH   1   7
ATOM      7  C   UNL     1      46.953   5.381  14.215  0.00  0.00    +0.000 C 
BRANCH   7   8
ATOM      8  N   UNL     1      46.802   4.430  15.311  0.00  0.00    +0.000 NA
ATOM      9  H   UNL     1      47.610   4.503  15.928  0.00  0.00    +0.000 HD
ATOM     10  H   UNL     1      46.818   3.485  14.928  0.00  0.00    +0.000 HD
ENDBRANCH   7   8
ENDBRANCH   1   7
BRANCH   4  11
ATOM     11  O   UNL     1      44.137   3.578   9.612  0.00  0.00    +0.000 OA
BRANCH  11  12
ATOM     12  C   UNL     1      44.444   2.236   9.221  0.00  0.00    +0.000 C 
BRANCH  12  13
ATOM     13  C   UNL     1      45.584   2.253   8.223  0.00  0.00    +0.000 A 
ATOM     14  N   UNL     1      45.731   3.359   7.460  0.00  0.00    +0.000 NA
ATOM     15  C   UNL     1      46.734   3.344   6.563  0.00  0.00    +0.000 A 
ATOM     16  C   UNL     1      47.595   2.285   6.402  0.00  0.00    +0.000 A 
ATOM     17  C   UNL     1      47.371   1.211   7.232  0.00  0.00    +0.000 A 
ATOM     18  N   UNL     1      46.385   1.167   8.146  0.00  0.00    +0.000 NA
ENDBRANCH  12  13
ENDBRANCH  11  12
ENDBRANCH   4  11
TORSDOF 5
ENDMDL
MODEL 3
REMARK VINA RESULT:    -6.213      1.979      5.700
REMARK INTER + INTRA:          -8.238
REMARK INTER:                  -7.934
REMARK INTRA:                  -0.304
REMARK UNBOUND:                -0.391
REMARK  Name = 
REMARK  5 active torsions:
REMARK  status: ('A' for Active; 'I' for Inactive)
REMARK    1  A    between atoms: N_1  and  C_2
REMARK    2  A    between atoms: C_2  and  C_3
REMARK    3  A    between atoms: C_6  and  O_7
REMARK    4  A    between atoms: O_7  and  C_8
REMARK    5  A    between atoms: C_8  and  C_9
REMARK                            x       y       z     vdW  Elec       q    Type
REMARK                         _______ _______ _______ _____ _____    ______ ____
ROOT
ATOM      1  C   UNL     1      46.977   5.883  13.018  0.00  0.00    +0.000 A 
ATOM      2  C   UNL     1      46.897   6.565  11.794  0.00  0.00    +0.000 A 
ATOM      3  C   UNL     1      46.005   6.153  10.795  0.00  0.00    +0.000 A 
ATOM      4  C   UNL     1      45.183   5.048  11.007  0.00  0.00    +0.000 A 
ATOM      5  C   UNL     1      45.251   4.370  12.225  0.00  0.00    +0.000 A 
ATOM      6  C   UNL     1      46.145   4.776  13.219  0.00  0.00    +0.000 A 
ENDROOT
BRANCH   1   7
ATOM      7  C   UNL     1      47.945   6.324  14.085  0.00  0.00    +0.000 C 
BRANCH   7   8
ATOM      8  N   UNL     1      47.852   5.490  15.279  0.00  0.00    +0.000 NA
ATOM      9  H   UNL     1      48.724   4.976  15.394  0.00  0.00    +0.000 HD
ATOM     10  H   UNL     1      47.124   4.792  15.132  0.00  0.00    +0.000 HD
ENDBRANCH   7   8
ENDBRANCH   1   7
BRANCH   4  11
ATOM     11  O   UNL     1      44.242   4.574  10.135  0.00  0.00    +0.000 OA
BRANCH  11  12
ATOM     12  C   UNL     1      44.252   3.163   9.896  0.00  0.00    +0.000 C 
BRANCH  12  13
ATOM     13  C   UNL     1      45.218   2.852   8.770  0.00  0.00    +0.000 A 
ATOM     14  N   UNL     1      45.773   1.620   8.744  0.00  0.00    +0.000 NA
ATOM     15  C   UNL     1      46.646   1.374   7.750  0.00  0.00    +0.000 A 
ATOM     16  C   UNL     1      46.981   2.294   6.786  0.00  0.00    +0.000 A 
ATOM     17  C   UNL     1      46.356   3.514   6.892  0.00  0.00    +0.000 A 
ATOM     18  N   UNL     1      45.475   3.820   7.862  0.00  0.00    +0.000 NA
ENDBRANCH  12  13
ENDBRANCH  11  12
ENDBRANCH   4  11
TORSDOF 5
ENDMDL
MODEL 4
REMARK VINA RESULT:    -6.151      2.124      6.040
REMARK INTER + INTRA:          -8.160
REMARK INTER:                  -7.875
REMARK INTRA:                  -0.286
REMARK UNBOUND:                -0.391
REMARK  Name = 
REMARK  5 active torsions:
REMARK  status: ('A' for Active; 'I' for Inactive)
REMARK    1  A    between atoms: N_1  and  C_2
REMARK    2  A    between atoms: C_2  and  C_3
REMARK    3  A    between atoms: C_6  and  O_7
REMARK    4  A    between atoms: O_7  and  C_8
REMARK    5  A    between atoms: C_8  and  C_9
REMARK                            x       y       z     vdW  Elec       q    Type
REMARK                         _______ _______ _______ _____ _____    ______ ____
ROOT
ATOM      1  C   UNL     1      45.775   7.300  12.493  0.00  0.00    +0.000 A 
ATOM      2  C   UNL     1      46.298   6.190  13.174  0.00  0.00    +0.000 A 
ATOM      3  C   UNL     1      46.017   4.884  12.749  0.00  0.00    +0.000 A 
ATOM      4  C   UNL     1      45.205   4.673  11.636  0.00  0.00    +0.000 A 
ATOM      5  C   UNL     1      44.689   5.773  10.949  0.00  0.00    +0.000 A 
ATOM      6  C   UNL     1      44.962   7.075  11.377  0.00  0.00    +0.000 A 
ENDROOT
BRANCH   1   7
ATOM      7  C   UNL     1      46.072   8.702  12.961  0.00  0.00    +0.000 C 
BRANCH   7   8
ATOM      8  N   UNL     1      44.898   9.563  12.866  0.00  0.00    +0.000 NA
ATOM      9  H   UNL     1      45.145  10.405  12.348  0.00  0.00    +0.000 HD
ATOM     10  H   UNL     1      44.642   9.869  13.804  0.00  0.00    +0.000 HD
ENDBRANCH   7   8
ENDBRANCH   1   7
BRANCH   4  11
ATOM     11  O   UNL     1      44.894   3.457  11.094  0.00  0.00    +0.000 OA
BRANCH  11  12
ATOM     12  C   UNL     1      44.273   3.477   9.805  0.00  0.00    +0.000 C 
BRANCH  12  13
ATOM     13  C   UNL     1      45.286   3.069   8.754  0.00  0.00    +0.000 A 
ATOM     14  N   UNL     1      45.659   1.770   8.716  0.00  0.00    +0.000 NA
ATOM     15  C   UNL     1      46.578   1.434   7.792  0.00  0.00    +0.000 A 
ATOM     16  C   UNL     1      47.130   2.329   6.907  0.00  0.00    +0.000 A 
ATOM     17  C   UNL     1      46.679   3.623   7.018  0.00  0.00    +0.000 A 
ATOM     18  N   UNL     1      45.763   4.020   7.921  0.00  0.00    +0.000 NA
ENDBRANCH  12  13
ENDBRANCH  11  12
ENDBRANCH   4  11
TORSDOF 5
ENDMDL
MODEL 5
REMARK VINA RESULT:    -6.011      1.379      1.968
REMARK INTER + INTRA:          -7.983
REMARK INTER:                  -7.715
REMARK INTRA:                  -0.268
REMARK UNBOUND:                -0.391
REMARK  Name = 
REMARK  5 active torsions:
REMARK  status: ('A' for Active; 'I' for Inactive)
REMARK    1  A    between atoms: N_1  and  C_2
REMARK    2  A    between atoms: C_2  and  C_3
REMARK    3  A    between atoms: C_6  and  O_7
REMARK    4  A    between atoms: O_7  and  C_8
REMARK    5  A    between atoms: C_8  and  C_9
REMARK                            x       y       z     vdW  Elec       q    Type
REMARK                         _______ _______ _______ _____ _____    ______ ____
ROOT
ATOM      1  C   UNL     1      45.546   2.753   8.616  0.00  0.00    +0.000 A 
ATOM      2  C   UNL     1      44.779   2.089   9.585  0.00  0.00    +0.000 A 
ATOM      3  C   UNL     1      43.949   2.802  10.462  0.00  0.00    +0.000 A 
ATOM      4  C   UNL     1      43.881   4.192  10.382  0.00  0.00    +0.000 A 
ATOM      5  C   UNL     1      44.635   4.858   9.414  0.00  0.00    +0.000 A 
ATOM      6  C   UNL     1      45.468   4.148   8.544  0.00  0.00    +0.000 A 
ENDROOT
BRANCH   1   7
ATOM      7  C   UNL     1      46.444   1.982   7.682  0.00  0.00    +0.000 C 
BRANCH   7   8
ATOM      8  N   UNL     1      46.446   0.556   7.989  0.00  0.00    +0.000 NA
ATOM      9  H   UNL     1      45.514   0.179   7.826  0.00  0.00    +0.000 HD
ATOM     10  H   UNL     1      46.634   0.436   8.983  0.00  0.00    +0.000 HD
ENDBRANCH   7   8
ENDBRANCH   1   7
BRANCH   4  11
ATOM     11  O   UNL     1      43.081   4.997  11.143  0.00  0.00    +0.000 OA
BRANCH  11  12
ATOM     12  C   UNL     1      43.201   4.854  12.562  0.00  0.00    +0.000 C 
BRANCH  12  13
ATOM     13  C   UNL     1      44.617   5.194  12.981  0.00  0.00    +0.000 A 
ATOM     14  N   UNL     1      45.051   6.455  12.755  0.00  0.00    +0.000 NA
ATOM     15  C   UNL     1      46.319   6.729  13.112  0.00  0.00    +0.000 A 
ATOM     16  C   UNL     1      47.163   5.810  13.687  0.00  0.00    +0.000 A 
ATOM     17  C   UNL     1      46.627   4.559  13.885  0.00  0.00    +0.000 A 
ATOM     18  N   UNL     1      45.367   4.225  13.549  0.00  0.00    +0.000 NA
ENDBRANCH  12  13
ENDBRANCH  11  12
ENDBRANCH   4  11
TORSDOF 5
ENDMDL
MODEL 6
REMARK VINA RESULT:    -5.659      3.107      4.322
REMARK INTER + INTRA:          -7.538
REMARK INTER:                  -7.298
REMARK INTRA:                  -0.240
REMARK UNBOUND:                -0.391
REMARK  Name = 
REMARK  5 active torsions:
REMARK  status: ('A' for Active; 'I' for Inactive)
REMARK    1  A    between atoms: N_1  and  C_2
REMARK    2  A    between atoms: C_2  and  C_3
REMARK    3  A    between atoms: C_6  and  O_7
REMARK    4  A    between atoms: O_7  and  C_8
REMARK    5  A    between atoms: C_8  and  C_9
REMARK                            x       y       z     vdW  Elec       q    Type
REMARK                         _______ _______ _______ _____ _____    ______ ____
ROOT
ATOM      1  C   UNL     1      44.960   4.259  10.114  0.00  0.00    +0.000 A 
ATOM      2  C   UNL     1      45.522   5.426  10.652  0.00  0.00    +0.000 A 
ATOM      3  C   UNL     1      45.854   5.507  12.011  0.00  0.00    +0.000 A 
ATOM      4  C   UNL     1      45.625   4.419  12.851  0.00  0.00    +0.000 A 
ATOM      5  C   UNL     1      45.074   3.251  12.320  0.00  0.00    +0.000 A 
ATOM      6  C   UNL     1      44.736   3.172  10.967  0.00  0.00    +0.000 A 
ENDROOT
BRANCH   1   7
ATOM      7  C   UNL     1      44.595   4.180   8.654  0.00  0.00    +0.000 C 
BRANCH   7   8
ATOM      8  N   UNL     1      45.757   4.376   7.794  0.00  0.00    +0.000 NA
ATOM      9  H   UNL     1      45.444   4.483   6.830  0.00  0.00    +0.000 HD
ATOM     10  H   UNL     1      46.327   3.532   7.819  0.00  0.00    +0.000 HD
ENDBRANCH   7   8
ENDBRANCH   1   7
BRANCH   4  11
ATOM     11  O   UNL     1      45.945   4.354  14.178  0.00  0.00    +0.000 OA
BRANCH  11  12
ATOM     12  C   UNL     1      47.165   4.992  14.569  0.00  0.00    +0.000 C 
BRANCH  12  13
ATOM     13  C   UNL     1      47.657   4.379  15.865  0.00  0.00    +0.000 A 
ATOM     14  N   UNL     1      48.871   4.765  16.318  0.00  0.00    +0.000 NA
ATOM     15  C   UNL     1      49.300   4.190  17.457  0.00  0.00    +0.000 A 
ATOM     16  C   UNL     1      48.573   3.261  18.161  0.00  0.00    +0.000 A 
ATOM     17  C   UNL     1      47.348   2.941  17.625  0.00  0.00    +0.000 A 
ATOM     18  N   UNL     1      46.865   3.481  16.490  0.00  0.00    +0.000 NA
ENDBRANCH  12  13
ENDBRANCH  11  12
ENDBRANCH   4  11
TORSDOF 5
ENDMDL
MODEL 7
REMARK VINA RESULT:    -5.469      3.975      8.024
REMARK INTER + INTRA:          -7.298
REMARK INTER:                  -7.004
REMARK INTRA:                  -0.294
REMARK UNBOUND:                -0.391
REMARK  Name = 
REMARK  5 active torsions:
REMARK  status: ('A' for Active; 'I' for Inactive)
REMARK    1  A    between atoms: N_1  and  C_2
REMARK    2  A    between atoms: C_2  and  C_3
REMARK    3  A    between atoms: C_6  and  O_7
REMARK    4  A    between atoms: O_7  and  C_8
REMARK    5  A    between atoms: C_8  and  C_9
REMARK                            x       y       z     vdW  Elec       q    Type
REMARK                         _______ _______ _______ _____ _____    ______ ____
ROOT
ATOM      1  C   UNL     1      48.595   4.432  18.471  0.00  0.00    +0.000 A 
ATOM      2  C   UNL     1      48.394   3.080  18.154  0.00  0.00    +0.000 A 
ATOM      3  C   UNL     1      47.927   2.697  16.890  0.00  0.00    +0.000 A 
ATOM      4  C   UNL     1      47.652   3.665  15.926  0.00  0.00    +0.000 A 
ATOM      5  C   UNL     1      47.859   5.011  16.231  0.00  0.00    +0.000 A 
ATOM      6  C   UNL     1      48.317   5.394  17.495  0.00  0.00    +0.000 A 
ENDROOT
BRANCH   1   7
ATOM      7  C   UNL     1      49.088   4.839  19.836  0.00  0.00    +0.000 C 
BRANCH   7   8
ATOM      8  N   UNL     1      48.509   4.011  20.890  0.00  0.00    +0.000 NA
ATOM      9  H   UNL     1      47.595   3.680  20.587  0.00  0.00    +0.000 HD
ATOM     10  H   UNL     1      48.347   4.594  21.710  0.00  0.00    +0.000 HD
ENDBRANCH   7   8
ENDBRANCH   1   7
BRANCH   4  11
ATOM     11  O   UNL     1      47.238   3.422  14.646  0.00  0.00    +0.000 OA
BRANCH  11  12
ATOM     12  C   UNL     1      46.985   4.571  13.831  0.00  0.00    +0.000 C 
BRANCH  12  13
ATOM     13  C   UNL     1      45.602   4.457  13.222  0.00  0.00    +0.000 A 
ATOM     14  N   UNL     1      44.811   5.553  13.256  0.00  0.00    +0.000 NA
ATOM     15  C   UNL     1      43.578   5.423  12.732  0.00  0.00    +0.000 A 
ATOM     16  C   UNL     1      43.108   4.259  12.173  0.00  0.00    +0.000 A 
ATOM     17  C   UNL     1      43.990   3.204  12.176  0.00  0.00    +0.000 A 
ATOM     18  N   UNL     1      45.234   3.272  12.686  0.00  0.00    +0.000 NA
ENDBRANCH  12  13
ENDBRANCH  11  12
ENDBRANCH   4  11
TORSDOF 5
ENDMDL
MODEL 8
REMARK VINA RESULT:    -4.876      3.986      7.767
REMARK INTER + INTRA:          -6.549
REMARK INTER:                  -6.341
REMARK INTRA:                  -0.208
REMARK UNBOUND:                -0.391
REMARK  Name = 
REMARK  5 active torsions:
REMARK  status: ('A' for Active; 'I' for Inactive)
REMARK    1  A    between atoms: N_1  and  C_2
REMARK    2  A    between atoms: C_2  and  C_3
REMARK    3  A    between atoms: C_6  and  O_7
REMARK    4  A    between atoms: O_7  and  C_8
REMARK    5  A    between atoms: C_8  and  C_9
REMARK                            x       y       z     vdW  Elec       q    Type
REMARK                         _______ _______ _______ _____ _____    ______ ____
ROOT
ATOM      1  C   UNL     1      49.637   4.506  17.972  0.00  0.00    +0.000 A 
ATOM      2  C   UNL     1      49.315   5.565  17.111  0.00  0.00    +0.000 A 
ATOM      3  C   UNL     1      48.268   5.451  16.186  0.00  0.00    +0.000 A 
ATOM      4  C   UNL     1      47.532   4.270  16.109  0.00  0.00    +0.000 A 
ATOM      5  C   UNL     1      47.841   3.215  16.969  0.00  0.00    +0.000 A 
ATOM      6  C   UNL     1      48.889   3.326  17.887  0.00  0.00    +0.000 A 
ENDROOT
BRANCH   1   7
ATOM      7  C   UNL     1      50.770   4.631  18.959  0.00  0.00    +0.000 C 
BRANCH   7   8
ATOM      8  N   UNL     1      51.733   3.544  18.817  0.00  0.00    +0.000 NA
ATOM      9  H   UNL     1      51.266   2.737  18.407  0.00  0.00    +0.000 HD
ATOM     10  H   UNL     1      52.040   3.258  19.745  0.00  0.00    +0.000 HD
ENDBRANCH   7   8
ENDBRANCH   1   7
BRANCH   4  11
ATOM     11  O   UNL     1      46.463   4.048  15.287  0.00  0.00    +0.000 OA
BRANCH  11  12
ATOM     12  C   UNL     1      46.667   4.310  13.895  0.00  0.00    +0.000 C 
BRANCH  12  13
ATOM     13  C   UNL     1      45.326   4.332  13.188  0.00  0.00    +0.000 A 
ATOM     14  N   UNL     1      44.970   3.233  12.486  0.00  0.00    +0.000 NA
ATOM     15  C   UNL     1      43.788   3.283  11.846  0.00  0.00    +0.000 A 
ATOM     16  C   UNL     1      42.949   4.371  11.882  0.00  0.00    +0.000 A 
ATOM     17  C   UNL     1      43.395   5.435  12.629  0.00  0.00    +0.000 A 
ATOM     18  N   UNL     1      44.567   5.445  13.291  0.00  0.00    +0.000 NA
ENDBRANCH  12  13
ENDBRANCH  11  12
ENDBRANCH   4  11
TORSDOF 5
ENDMDL
MODEL 9
REMARK VINA RESULT:    -4.697      2.934      4.094
REMARK INTER + INTRA:          -6.323
REMARK INTER:                  -6.069
REMARK INTRA:                  -0.254
REMARK UNBOUND:                -0.391
REMARK  Name = 
REMARK  5 active torsions:
REMARK  status: ('A' for Active; 'I' for Inactive)
REMARK    1  A    between atoms: N_1  and  C_2
REMARK    2  A    between atoms: C_2  and  C_3
REMARK    3  A    between atoms: C_6  and  O_7
REMARK    4  A    between atoms: O_7  and  C_8
REMARK    5  A    between atoms: C_8  and  C_9
REMARK                            x       y       z     vdW  Elec       q    Type
REMARK                         _______ _______ _______ _____ _____    ______ ____
ROOT
ATOM      1  C   UNL     1      44.879   3.362  10.031  0.00  0.00    +0.000 A 
ATOM      2  C   UNL     1      44.868   3.249  11.429  0.00  0.00    +0.000 A 
ATOM      3  C   UNL     1      45.244   4.327  12.243  0.00  0.00    +0.000 A 
ATOM      4  C   UNL     1      45.641   5.531  11.665  0.00  0.00    +0.000 A 
ATOM      5  C   UNL     1      45.646   5.653  10.274  0.00  0.00    +0.000 A 
ATOM      6  C   UNL     1      45.277   4.576   9.462  0.00  0.00    +0.000 A 
ENDROOT
BRANCH   1   7
ATOM      7  C   UNL     1      44.483   2.197   9.160  0.00  0.00    +0.000 C 
BRANCH   7   8
ATOM      8  N   UNL     1      45.630   1.362   8.818  0.00  0.00    +0.000 NA
ATOM      9  H   UNL     1      45.874   0.787   9.622  0.00  0.00    +0.000 HD
ATOM     10  H   UNL     1      46.431   1.966   8.643  0.00  0.00    +0.000 HD
ENDBRANCH   7   8
ENDBRANCH   1   7
BRANCH   4  11
ATOM     11  O   UNL     1      45.985   6.667  12.343  0.00  0.00    +0.000 OA
BRANCH  11  12
ATOM     12  C   UNL     1      47.354   7.074  12.246  0.00  0.00    +0.000 C 
BRANCH  12  13
ATOM     13  C   UNL     1      47.889   7.364  13.634  0.00  0.00    +0.000 A 
ATOM     14  N   UNL     1      47.796   8.634  14.089  0.00  0.00    +0.000 NA
ATOM     15  C   UNL     1      48.300   8.874  15.313  0.00  0.00    +0.000 A 
ATOM     16  C   UNL     1      48.881   7.909  16.100  0.00  0.00    +0.000 A 
ATOM     17  C   UNL     1      48.920   6.648  15.554  0.00  0.00    +0.000 A 
ATOM     18  N   UNL     1      48.433   6.345  14.336  0.00  0.00    +0.000 NA
ENDBRANCH  12  13
ENDBRANCH  11  12
ENDBRANCH   4  11
TORSDOF 5
ENDMDL
