MODEL 1
REMARK VINA RESULT:    -9.017      0.000      0.000
REMARK INTER + INTRA:         -13.007
REMARK INTER:                 -12.180
REMARK INTRA:                  -0.828
REMARK UNBOUND:                -0.828
REMARK  Name = 
REMARK  6 active torsions:
REMARK  status: ('A' for Active; 'I' for Inactive)
REMARK    1  A    between atoms: C_2  and  C_4
REMARK    2  A    between atoms: N_8  and  C_9
REMARK    3  A    between atoms: C_9  and  C_10
REMARK    4  A    between atoms: C_10  and  C_11
REMARK    5  A    between atoms: C_15  and  O_16
REMARK    6  A    between atoms: O_16  and  C_17
REMARK                            x       y       z     vdW  Elec       q    Type
REMARK                         _______ _______ _______ _____ _____    ______ ____
ROOT
ATOM      1  C   UNL     1      46.474   2.523   7.711  0.00  0.00    +0.000 A 
ATOM      2  C   UNL     1      45.607   1.883   8.590  0.00  0.00    +0.000 A 
ATOM      3  C   UNL     1      44.684   2.642   9.312  0.00  0.00    +0.000 A 
ATOM      4  C   UNL     1      44.658   4.026   9.161  0.00  0.00    +0.000 A 
ATOM      5  N   UNL     1      43.717   4.837   9.780  0.00  0.00    +0.000 N 
ATOM      6  N   UNL     1      45.516   4.661   8.337  0.00  0.00    +0.000 NA
ATOM      7  C   UNL     1      46.405   3.904   7.636  0.00  0.00    +0.000 A 
ATOM      8  H   UNL     1      44.008   5.797   9.618  0.00  0.00    +0.000 HD
ENDROOT
BRANCH   1  10
ATOM      9  N   UNL     1      48.538   2.490   6.435  0.00  0.00    +0.000 N 
ATOM     10  C   UNL     1      47.445   1.791   6.872  0.00  0.00    +0.000 C 
ATOM     11  O   UNL     1      47.301   0.607   6.613  0.00  0.00    +0.000 OA
ATOM     12  H   UNL     1      49.251   1.956   5.952  0.00  0.00    +0.000 HD
ATOM     13  H   UNL     1      48.812   3.378   6.833  0.00  0.00    +0.000 HD
ENDBRANCH   1  10
BRANCH   5  14
ATOM     14  C   UNL     1      43.297   4.517  11.141  0.00  0.00    +0.000 C 
BRANCH  14  15
ATOM     15  C   UNL     1      43.529   5.718  12.068  0.00  0.00    +0.000 C 
BRANCH  15  16
ATOM     16  C   UNL     1      44.921   5.718  12.660  0.00  0.00    +0.000 A 
ATOM     17  C   UNL     1      45.787   6.792  12.419  0.00  0.00    +0.000 A 
ATOM     18  C   UNL     1      47.066   6.808  12.978  0.00  0.00    +0.000 A 
ATOM     19  C   UNL     1      47.496   5.751  13.785  0.00  0.00    +0.000 A 
ATOM     20  C   UNL     1      46.647   4.676  14.029  0.00  0.00    +0.000 A 
ATOM     21  C   UNL     1      45.359   4.667  13.479  0.00  0.00    +0.000 A 
BRANCH  20  22
ATOM     22  O   UNL     1      46.963   3.601  14.823  0.00  0.00    +0.000 OA
BRANCH  22  23
ATOM     23  C   UNL     1      47.847   3.798  15.951  0.00  0.00    +0.000 C 
ATOM     24  C   UNL     1      48.473   2.531  16.582  0.00  0.00    +0.000 C 
ATOM     25  C   UNL     1      48.055   3.034  17.969  0.00  0.00    +0.000 C 
ATOM     26  C   UNL     1      47.114   4.038  17.293  0.00  0.00    +0.000 C 
ENDBRANCH  22  23
ENDBRANCH  20  22
ENDBRANCH  15  16
ENDBRANCH  14  15
ENDBRANCH   5  14
TORSDOF 6
ENDMDL
MODEL 2
REMARK VINA RESULT:    -8.318      1.939      3.595
REMARK INTER + INTRA:         -12.064
REMARK INTER:                 -11.204
REMARK INTRA:                  -0.860
REMARK UNBOUND:                -0.828
REMARK  Name = 
REMARK  6 active torsions:
REMARK  status: ('A' for Active; 'I' for Inactive)
REMARK    1  A    between atoms: C_2  and  C_4
REMARK    2  A    between atoms: N_8  and  C_9
REMARK    3  A    between atoms: C_9  and  C_10
REMARK    4  A    between atoms: C_10  and  C_11
REMARK    5  A    between atoms: C_15  and  O_16
REMARK    6  A    between atoms: O_16  and  C_17
REMARK                            x       y       z     vdW  Elec       q    Type
REMARK                         _______ _______ _______ _____ _____    ______ ____
ROOT
ATOM      1  C   UNL     1      46.495   2.511   7.717  0.00  0.00    +0.000 A 
ATOM      2  C   UNL     1      45.607   1.848   8.556  0.00  0.00    +0.000 A 
ATOM      3  C   UNL     1      44.663   2.587   9.271  0.00  0.00    +0.000 A 
ATOM      4  C   UNL     1      44.637   3.974   9.154  0.00  0.00    +0.000 A 
ATOM      5  N   UNL     1      43.678   4.767   9.768  0.00  0.00    +0.000 N 
ATOM      6  N   UNL     1      45.516   4.631   8.370  0.00  0.00    +0.000 NA
ATOM      7  C   UNL     1      46.425   3.894   7.676  0.00  0.00    +0.000 A 
ATOM      8  H   UNL     1      43.971   5.732   9.638  0.00  0.00    +0.000 HD
ENDROOT
BRANCH   1  10
ATOM      9  N   UNL     1      48.565   2.530   6.448  0.00  0.00    +0.000 N 
ATOM     10  C   UNL     1      47.491   1.802   6.887  0.00  0.00    +0.000 C 
ATOM     11  O   UNL     1      47.383   0.612   6.636  0.00  0.00    +0.000 OA
ATOM     12  H   UNL     1      49.294   2.014   5.972  0.00  0.00    +0.000 HD
ATOM     13  H   UNL     1      48.810   3.428   6.841  0.00  0.00    +0.000 HD
ENDBRANCH   1  10
BRANCH   5  14
ATOM     14  C   UNL     1      43.222   4.413  11.108  0.00  0.00    +0.000 C 
BRANCH  14  15
ATOM     15  C   UNL     1      43.385   5.604  12.061  0.00  0.00    +0.000 C 
BRANCH  15  16
ATOM     16  C   UNL     1      44.797   5.716  12.593  0.00  0.00    +0.000 A 
ATOM     17  C   UNL     1      45.407   4.613  13.203  0.00  0.00    +0.000 A 
ATOM     18  C   UNL     1      46.717   4.703  13.678  0.00  0.00    +0.000 A 
ATOM     19  C   UNL     1      47.434   5.896  13.550  0.00  0.00    +0.000 A 
ATOM     20  C   UNL     1      46.837   7.000  12.949  0.00  0.00    +0.000 A 
ATOM     21  C   UNL     1      45.529   6.906  12.460  0.00  0.00    +0.000 A 
BRANCH  20  22
ATOM     22  O   UNL     1      47.460   8.209  12.754  0.00  0.00    +0.000 OA
BRANCH  22  23
ATOM     23  C   UNL     1      48.462   8.323  11.717  0.00  0.00    +0.000 C 
ATOM     24  C   UNL     1      49.921   7.988  12.110  0.00  0.00    +0.000 C 
ATOM     25  C   UNL     1      50.383   9.294  11.452  0.00  0.00    +0.000 C 
ATOM     26  C   UNL     1      48.927   9.774  11.444  0.00  0.00    +0.000 C 
ENDBRANCH  22  23
ENDBRANCH  20  22
ENDBRANCH  15  16
ENDBRANCH  14  15
ENDBRANCH   5  14
TORSDOF 6
ENDMDL
MODEL 3
REMARK VINA RESULT:    -7.248      3.263      7.953
REMARK INTER + INTRA:         -10.618
REMARK INTER:                  -9.788
REMARK INTRA:                  -0.830
REMARK UNBOUND:                -0.828
REMARK  Name = 
REMARK  6 active torsions:
REMARK  status: ('A' for Active; 'I' for Inactive)
REMARK    1  A    between atoms: C_2  and  C_4
REMARK    2  A    between atoms: N_8  and  C_9
REMARK    3  A    between atoms: C_9  and  C_10
REMARK    4  A    between atoms: C_10  and  C_11
REMARK    5  A    between atoms: C_15  and  O_16
REMARK    6  A    between atoms: O_16  and  C_17
REMARK                            x       y       z     vdW  Elec       q    Type
REMARK                         _______ _______ _______ _____ _____    ______ ____
ROOT
ATOM      1  C   UNL     1      48.417   4.260  16.646  0.00  0.00    +0.000 A 
ATOM      2  C   UNL     1      47.409   3.757  15.830  0.00  0.00    +0.000 A 
ATOM      3  C   UNL     1      46.988   4.504  14.728  0.00  0.00    +0.000 A 
ATOM      4  C   UNL     1      47.563   5.746  14.473  0.00  0.00    +0.000 A 
ATOM      5  N   UNL     1      47.255   6.506  13.354  0.00  0.00    +0.000 N 
ATOM      6  N   UNL     1      48.517   6.258  15.276  0.00  0.00    +0.000 NA
ATOM      7  C   UNL     1      48.920   5.514  16.342  0.00  0.00    +0.000 A 
ATOM      8  H   UNL     1      47.699   7.411  13.485  0.00  0.00    +0.000 HD
ENDROOT
BRANCH   1  10
ATOM      9  N   UNL     1      48.169   3.447  18.919  0.00  0.00    +0.000 N 
ATOM     10  C   UNL     1      48.956   3.513  17.801  0.00  0.00    +0.000 C 
ATOM     11  O   UNL     1      50.037   2.947  17.748  0.00  0.00    +0.000 OA
ATOM     12  H   UNL     1      48.498   2.846  19.666  0.00  0.00    +0.000 HD
ATOM     13  H   UNL     1      47.186   3.680  18.908  0.00  0.00    +0.000 HD
ENDBRANCH   1  10
BRANCH   5  14
ATOM     14  C   UNL     1      45.876   6.535  12.878  0.00  0.00    +0.000 C 
BRANCH  14  15
ATOM     15  C   UNL     1      45.837   6.468  11.346  0.00  0.00    +0.000 C 
BRANCH  15  16
ATOM     16  C   UNL     1      45.281   5.152  10.850  0.00  0.00    +0.000 A 
ATOM     17  C   UNL     1      44.531   4.337  11.708  0.00  0.00    +0.000 A 
ATOM     18  C   UNL     1      43.997   3.131  11.251  0.00  0.00    +0.000 A 
ATOM     19  C   UNL     1      44.206   2.722   9.931  0.00  0.00    +0.000 A 
ATOM     20  C   UNL     1      44.952   3.520   9.069  0.00  0.00    +0.000 A 
ATOM     21  C   UNL     1      45.476   4.737   9.524  0.00  0.00    +0.000 A 
BRANCH  20  22
ATOM     22  O   UNL     1      45.197   3.223   7.751  0.00  0.00    +0.000 OA
BRANCH  22  23
ATOM     23  C   UNL     1      46.564   3.211   7.277  0.00  0.00    +0.000 C 
ATOM     24  C   UNL     1      46.776   3.219   5.744  0.00  0.00    +0.000 C 
ATOM     25  C   UNL     1      47.762   2.054   5.889  0.00  0.00    +0.000 C 
ATOM     26  C   UNL     1      47.230   1.814   7.307  0.00  0.00    +0.000 C 
ENDBRANCH  22  23
ENDBRANCH  20  22
ENDBRANCH  15  16
ENDBRANCH  14  15
ENDBRANCH   5  14
TORSDOF 6
ENDMDL
MODEL 4
REMARK VINA RESULT:    -7.059      3.739      8.700
REMARK INTER + INTRA:         -10.363
REMARK INTER:                  -9.924
REMARK INTRA:                  -0.440
REMARK UNBOUND:                -0.828
REMARK  Name = 
REMARK  6 active torsions:
REMARK  status: ('A' for Active; 'I' for Inactive)
REMARK    1  A    between atoms: C_2  and  C_4
REMARK    2  A    between atoms: N_8  and  C_9
REMARK    3  A    between atoms: C_9  and  C_10
REMARK    4  A    between atoms: C_10  and  C_11
REMARK    5  A    between atoms: C_15  and  O_16
REMARK    6  A    between atoms: O_16  and  C_17
REMARK                            x       y       z     vdW  Elec       q    Type
REMARK                         _______ _______ _______ _____ _____    ______ ____
ROOT
ATOM      1  C   UNL     1      48.509   4.593  18.183  0.00  0.00    +0.000 A 
ATOM      2  C   UNL     1      48.664   5.630  17.270  0.00  0.00    +0.000 A 
ATOM      3  C   UNL     1      48.000   5.564  16.044  0.00  0.00    +0.000 A 
ATOM      4  C   UNL     1      47.212   4.456  15.742  0.00  0.00    +0.000 A 
ATOM      5  N   UNL     1      46.459   4.358  14.581  0.00  0.00    +0.000 N 
ATOM      6  N   UNL     1      47.082   3.429  16.605  0.00  0.00    +0.000 NA
ATOM      7  C   UNL     1      47.732   3.513  17.799  0.00  0.00    +0.000 A 
ATOM      8  H   UNL     1      46.100   3.407  14.546  0.00  0.00    +0.000 HD
ENDROOT
BRANCH   1  10
ATOM      9  N   UNL     1      48.643   3.724  20.446  0.00  0.00    +0.000 N 
ATOM     10  C   UNL     1      49.135   4.607  19.521  0.00  0.00    +0.000 C 
ATOM     11  O   UNL     1      50.073   5.344  19.781  0.00  0.00    +0.000 OA
ATOM     12  H   UNL     1      49.145   3.665  21.323  0.00  0.00    +0.000 HD
ATOM     13  H   UNL     1      48.054   2.942  20.193  0.00  0.00    +0.000 HD
ENDBRANCH   1  10
BRANCH   5  14
ATOM     14  C   UNL     1      47.011   4.879  13.335  0.00  0.00    +0.000 C 
BRANCH  14  15
ATOM     15  C   UNL     1      45.921   5.592  12.524  0.00  0.00    +0.000 C 
BRANCH  15  16
ATOM     16  C   UNL     1      45.349   4.706  11.440  0.00  0.00    +0.000 A 
ATOM     17  C   UNL     1      44.435   3.696  11.767  0.00  0.00    +0.000 A 
ATOM     18  C   UNL     1      43.887   2.888  10.769  0.00  0.00    +0.000 A 
ATOM     19  C   UNL     1      44.247   3.076   9.432  0.00  0.00    +0.000 A 
ATOM     20  C   UNL     1      45.158   4.073   9.094  0.00  0.00    +0.000 A 
ATOM     21  C   UNL     1      45.696   4.893  10.093  0.00  0.00    +0.000 A 
BRANCH  20  22
ATOM     22  O   UNL     1      45.560   4.356   7.812  0.00  0.00    +0.000 OA
BRANCH  22  23
ATOM     23  C   UNL     1      46.728   3.687   7.280  0.00  0.00    +0.000 C 
ATOM     24  C   UNL     1      46.661   3.224   5.805  0.00  0.00    +0.000 C 
ATOM     25  C   UNL     1      47.171   1.842   6.231  0.00  0.00    +0.000 C 
ATOM     26  C   UNL     1      46.841   2.197   7.685  0.00  0.00    +0.000 C 
ENDBRANCH  22  23
ENDBRANCH  20  22
ENDBRANCH  15  16
ENDBRANCH  14  15
ENDBRANCH   5  14
TORSDOF 6
ENDMDL
MODEL 5
REMARK VINA RESULT:    -6.942      4.256      8.304
REMARK INTER + INTRA:         -10.205
REMARK INTER:                  -9.711
REMARK INTRA:                  -0.494
REMARK UNBOUND:                -0.828
REMARK  Name = 
REMARK  6 active torsions:
REMARK  status: ('A' for Active; 'I' for Inactive)
REMARK    1  A    between atoms: C_2  and  C_4
REMARK    2  A    between atoms: N_8  and  C_9
REMARK    3  A    between atoms: C_9  and  C_10
REMARK    4  A    between atoms: C_10  and  C_11
REMARK    5  A    between atoms: C_15  and  O_16
REMARK    6  A    between atoms: O_16  and  C_17
REMARK                            x       y       z     vdW  Elec       q    Type
REMARK                         _______ _______ _______ _____ _____    ______ ____
ROOT
ATOM      1  C   UNL     1      50.990   3.023  17.559  0.00  0.00    +0.000 A 
ATOM      2  C   UNL     1      50.310   4.235  17.616  0.00  0.00    +0.000 A 
ATOM      3  C   UNL     1      49.063   4.347  16.999  0.00  0.00    +0.000 A 
ATOM      4  C   UNL     1      48.528   3.257  16.317  0.00  0.00    +0.000 A 
ATOM      5  N   UNL     1      47.261   3.268  15.751  0.00  0.00    +0.000 N 
ATOM      6  N   UNL     1      49.193   2.088  16.227  0.00  0.00    +0.000 NA
ATOM      7  C   UNL     1      50.405   1.995  16.840  0.00  0.00    +0.000 A 
ATOM      8  H   UNL     1      47.179   2.415  15.204  0.00  0.00    +0.000 HD
ENDROOT
BRANCH   1  10
ATOM      9  N   UNL     1      52.736   1.512  18.306  0.00  0.00    +0.000 N 
ATOM     10  C   UNL     1      52.289   2.804  18.227  0.00  0.00    +0.000 C 
ATOM     11  O   UNL     1      52.953   3.735  18.656  0.00  0.00    +0.000 OA
ATOM     12  H   UNL     1      53.673   1.382  18.668  0.00  0.00    +0.000 HD
ATOM     13  H   UNL     1      52.344   0.765  17.749  0.00  0.00    +0.000 HD
ENDBRANCH   1  10
BRANCH   5  14
ATOM     14  C   UNL     1      46.786   4.488  15.106  0.00  0.00    +0.000 C 
BRANCH  14  15
ATOM     15  C   UNL     1      46.957   4.390  13.584  0.00  0.00    +0.000 C 
BRANCH  15  16
ATOM     16  C   UNL     1      45.628   4.261  12.872  0.00  0.00    +0.000 A 
ATOM     17  C   UNL     1      44.559   5.096  13.223  0.00  0.00    +0.000 A 
ATOM     18  C   UNL     1      43.336   4.997  12.557  0.00  0.00    +0.000 A 
ATOM     19  C   UNL     1      43.165   4.063  11.532  0.00  0.00    +0.000 A 
ATOM     20  C   UNL     1      44.218   3.225  11.176  0.00  0.00    +0.000 A 
ATOM     21  C   UNL     1      45.449   3.334  11.835  0.00  0.00    +0.000 A 
BRANCH  20  22
ATOM     22  O   UNL     1      44.162   2.290  10.171  0.00  0.00    +0.000 OA
BRANCH  22  23
ATOM     23  C   UNL     1      44.466   2.698   8.817  0.00  0.00    +0.000 C 
ATOM     24  C   UNL     1      45.860   2.316   8.264  0.00  0.00    +0.000 C 
ATOM     25  C   UNL     1      46.051   3.761   7.787  0.00  0.00    +0.000 C 
ATOM     26  C   UNL     1      44.881   4.183   8.683  0.00  0.00    +0.000 C 
ENDBRANCH  22  23
ENDBRANCH  20  22
ENDBRANCH  15  16
ENDBRANCH  14  15
ENDBRANCH   5  14
TORSDOF 6
ENDMDL
MODEL 6
REMARK VINA RESULT:    -6.501      2.766      3.199
REMARK INTER + INTRA:          -9.609
REMARK INTER:                  -9.263
REMARK INTRA:                  -0.346
REMARK UNBOUND:                -0.828
REMARK  Name = 
REMARK  6 active torsions:
REMARK  status: ('A' for Active; 'I' for Inactive)
REMARK    1  A    between atoms: C_2  and  C_4
REMARK    2  A    between atoms: N_8  and  C_9
REMARK    3  A    between atoms: C_9  and  C_10
REMARK    4  A    between atoms: C_10  and  C_11
REMARK    5  A    between atoms: C_15  and  O_16
REMARK    6  A    between atoms: O_16  and  C_17
REMARK                            x       y       z     vdW  Elec       q    Type
REMARK                         _______ _______ _______ _____ _____    ______ ____
ROOT
ATOM      1  C   UNL     1      46.511   2.457   7.745  0.00  0.00    +0.000 A 
ATOM      2  C   UNL     1      45.778   2.022   8.843  0.00  0.00    +0.000 A 
ATOM      3  C   UNL     1      45.044   2.951   9.584  0.00  0.00    +0.000 A 
ATOM      4  C   UNL     1      45.075   4.298   9.230  0.00  0.00    +0.000 A 
ATOM      5  N   UNL     1      44.309   5.264   9.867  0.00  0.00    +0.000 N 
ATOM      6  N   UNL     1      45.810   4.735   8.188  0.00  0.00    +0.000 NA
ATOM      7  C   UNL     1      46.513   3.815   7.473  0.00  0.00    +0.000 A 
ATOM      8  H   UNL     1      44.623   6.164   9.514  0.00  0.00    +0.000 HD
ENDROOT
BRANCH   1  10
ATOM      9  N   UNL     1      48.329   2.064   6.184  0.00  0.00    +0.000 N 
ATOM     10  C   UNL     1      47.273   1.535   6.877  0.00  0.00    +0.000 C 
ATOM     11  O   UNL     1      46.999   0.347   6.811  0.00  0.00    +0.000 OA
ATOM     12  H   UNL     1      48.909   1.407   5.677  0.00  0.00    +0.000 HD
ATOM     13  H   UNL     1      48.731   2.964   6.408  0.00  0.00    +0.000 HD
ENDBRANCH   1  10
BRANCH   5  14
ATOM     14  C   UNL     1      44.119   5.175  11.311  0.00  0.00    +0.000 C 
BRANCH  14  15
ATOM     15  C   UNL     1      44.197   6.569  11.948  0.00  0.00    +0.000 C 
BRANCH  15  16
ATOM     16  C   UNL     1      45.626   7.013  12.167  0.00  0.00    +0.000 A 
ATOM     17  C   UNL     1      46.662   6.448  11.410  0.00  0.00    +0.000 A 
ATOM     18  C   UNL     1      47.981   6.868  11.592  0.00  0.00    +0.000 A 
ATOM     19  C   UNL     1      48.283   7.856  12.533  0.00  0.00    +0.000 A 
ATOM     20  C   UNL     1      47.264   8.422  13.294  0.00  0.00    +0.000 A 
ATOM     21  C   UNL     1      45.940   8.011  13.101  0.00  0.00    +0.000 A 
BRANCH  20  22
ATOM     22  O   UNL     1      47.450   9.413  14.227  0.00  0.00    +0.000 OA
BRANCH  22  23
ATOM     23  C   UNL     1      48.618   9.363  15.080  0.00  0.00    +0.000 C 
ATOM     24  C   UNL     1      48.571   8.388  16.280  0.00  0.00    +0.000 C 
ATOM     25  C   UNL     1      49.056   9.516  17.197  0.00  0.00    +0.000 C 
ATOM     26  C   UNL     1      48.706  10.525  16.098  0.00  0.00    +0.000 C 
ENDBRANCH  22  23
ENDBRANCH  20  22
ENDBRANCH  15  16
ENDBRANCH  14  15
ENDBRANCH   5  14
TORSDOF 6
ENDMDL
MODEL 7
REMARK VINA RESULT:    -6.486      3.760      7.318
REMARK INTER + INTRA:          -9.588
REMARK INTER:                  -9.045
REMARK INTRA:                  -0.543
REMARK UNBOUND:                -0.828
REMARK  Name = 
REMARK  6 active torsions:
REMARK  status: ('A' for Active; 'I' for Inactive)
REMARK    1  A    between atoms: C_2  and  C_4
REMARK    2  A    between atoms: N_8  and  C_9
REMARK    3  A    between atoms: C_9  and  C_10
REMARK    4  A    between atoms: C_10  and  C_11
REMARK    5  A    between atoms: C_15  and  O_16
REMARK    6  A    between atoms: O_16  and  C_17
REMARK                            x       y       z     vdW  Elec       q    Type
REMARK                         _______ _______ _______ _____ _____    ______ ____
ROOT
ATOM      1  C   UNL     1      47.933   8.847  12.046  0.00  0.00    +0.000 A 
ATOM      2  C   UNL     1      46.621   9.213  12.322  0.00  0.00    +0.000 A 
ATOM      3  C   UNL     1      45.708   8.233  12.717  0.00  0.00    +0.000 A 
ATOM      4  C   UNL     1      46.115   6.904  12.807  0.00  0.00    +0.000 A 
ATOM      5  N   UNL     1      45.289   5.890  13.270  0.00  0.00    +0.000 N 
ATOM      6  N   UNL     1      47.376   6.533  12.510  0.00  0.00    +0.000 NA
ATOM      7  C   UNL     1      48.254   7.502  12.132  0.00  0.00    +0.000 A 
ATOM      8  H   UNL     1      45.778   5.015  13.102  0.00  0.00    +0.000 HD
ENDROOT
BRANCH   1  10
ATOM      9  N   UNL     1      50.228   9.336  11.422  0.00  0.00    +0.000 N 
ATOM     10  C   UNL     1      48.974   9.827  11.672  0.00  0.00    +0.000 C 
ATOM     11  O   UNL     1      48.720  11.015  11.552  0.00  0.00    +0.000 OA
ATOM     12  H   UNL     1      50.906   9.997  11.064  0.00  0.00    +0.000 HD
ATOM     13  H   UNL     1      50.407   8.353  11.266  0.00  0.00    +0.000 HD
ENDBRANCH   1  10
BRANCH   5  14
ATOM     14  C   UNL     1      43.875   5.911  12.910  0.00  0.00    +0.000 C 
BRANCH  14  15
ATOM     15  C   UNL     1      43.713   5.988  11.386  0.00  0.00    +0.000 C 
BRANCH  15  16
ATOM     16  C   UNL     1      43.954   4.650  10.722  0.00  0.00    +0.000 A 
ATOM     17  C   UNL     1      43.686   3.463  11.416  0.00  0.00    +0.000 A 
ATOM     18  C   UNL     1      43.887   2.224  10.803  0.00  0.00    +0.000 A 
ATOM     19  C   UNL     1      44.359   2.156   9.490  0.00  0.00    +0.000 A 
ATOM     20  C   UNL     1      44.634   3.328   8.791  0.00  0.00    +0.000 A 
ATOM     21  C   UNL     1      44.419   4.570   9.401  0.00  0.00    +0.000 A 
BRANCH  20  22
ATOM     22  O   UNL     1      45.080   3.373   7.492  0.00  0.00    +0.000 OA
BRANCH  22  23
ATOM     23  C   UNL     1      46.501   3.288   7.235  0.00  0.00    +0.000 C 
ATOM     24  C   UNL     1      46.948   3.283   5.754  0.00  0.00    +0.000 C 
ATOM     25  C   UNL     1      47.837   2.067   6.041  0.00  0.00    +0.000 C 
ATOM     26  C   UNL     1      47.080   1.857   7.358  0.00  0.00    +0.000 C 
ENDBRANCH  22  23
ENDBRANCH  20  22
ENDBRANCH  15  16
ENDBRANCH  14  15
ENDBRANCH   5  14
TORSDOF 6
ENDMDL
MODEL 8
REMARK VINA RESULT:    -6.298      3.792      7.173
REMARK INTER + INTRA:          -9.335
REMARK INTER:                  -8.643
REMARK INTRA:                  -0.692
REMARK UNBOUND:                -0.828
REMARK  Name = 
REMARK  6 active torsions:
REMARK  status: ('A' for Active; 'I' for Inactive)
REMARK    1  A    between atoms: C_2  and  C_4
REMARK    2  A    between atoms: N_8  and  C_9
REMARK    3  A    between atoms: C_9  and  C_10
REMARK    4  A    between atoms: C_10  and  C_11
REMARK    5  A    between atoms: C_15  and  O_16
REMARK    6  A    between atoms: O_16  and  C_17
REMARK                            x       y       z     vdW  Elec       q    Type
REMARK                         _______ _______ _______ _____ _____    ______ ____
ROOT
ATOM      1  C   UNL     1      50.504   8.119  11.929  0.00  0.00    +0.000 A 
ATOM      2  C   UNL     1      49.405   8.080  11.078  0.00  0.00    +0.000 A 
ATOM      3  C   UNL     1      48.125   7.966  11.624  0.00  0.00    +0.000 A 
ATOM      4  C   UNL     1      47.966   7.870  13.004  0.00  0.00    +0.000 A 
ATOM      5  N   UNL     1      46.724   7.837  13.621  0.00  0.00    +0.000 N 
ATOM      6  N   UNL     1      49.027   7.873  13.836  0.00  0.00    +0.000 NA
ATOM      7  C   UNL     1      50.267   7.991  13.288  0.00  0.00    +0.000 A 
ATOM      8  H   UNL     1      46.891   7.625  14.601  0.00  0.00    +0.000 HD
ENDROOT
BRANCH   1  10
ATOM      9  N   UNL     1      52.542   7.161  11.025  0.00  0.00    +0.000 N 
ATOM     10  C   UNL     1      51.888   8.290  11.439  0.00  0.00    +0.000 C 
ATOM     11  O   UNL     1      52.411   9.391  11.370  0.00  0.00    +0.000 OA
ATOM     12  H   UNL     1      53.448   7.299  10.592  0.00  0.00    +0.000 HD
ATOM     13  H   UNL     1      52.063   6.292  10.833  0.00  0.00    +0.000 HD
ENDBRANCH   1  10
BRANCH   5  14
ATOM     14  C   UNL     1      45.639   7.098  12.984  0.00  0.00    +0.000 C 
BRANCH  14  15
ATOM     15  C   UNL     1      45.815   5.591  13.205  0.00  0.00    +0.000 C 
BRANCH  15  16
ATOM     16  C   UNL     1      45.148   4.776  12.119  0.00  0.00    +0.000 A 
ATOM     17  C   UNL     1      44.165   3.835  12.449  0.00  0.00    +0.000 A 
ATOM     18  C   UNL     1      43.530   3.094  11.450  0.00  0.00    +0.000 A 
ATOM     19  C   UNL     1      43.871   3.283  10.109  0.00  0.00    +0.000 A 
ATOM     20  C   UNL     1      44.849   4.212   9.767  0.00  0.00    +0.000 A 
ATOM     21  C   UNL     1      45.475   4.965  10.768  0.00  0.00    +0.000 A 
BRANCH  20  22
ATOM     22  O   UNL     1      45.242   4.490   8.480  0.00  0.00    +0.000 OA
BRANCH  22  23
ATOM     23  C   UNL     1      45.489   3.393   7.570  0.00  0.00    +0.000 C 
ATOM     24  C   UNL     1      46.155   2.127   8.160  0.00  0.00    +0.000 C 
ATOM     25  C   UNL     1      47.161   2.135   7.003  0.00  0.00    +0.000 C 
ATOM     26  C   UNL     1      46.747   3.576   6.687  0.00  0.00    +0.000 C 
ENDBRANCH  22  23
ENDBRANCH  20  22
ENDBRANCH  15  16
ENDBRANCH  14  15
ENDBRANCH   5  14
TORSDOF 6
ENDMDL
MODEL 9
REMARK VINA RESULT:    -6.165      3.732      5.321
REMARK INTER + INTRA:          -9.155
REMARK INTER:                  -7.757
REMARK INTRA:                  -1.397
REMARK UNBOUND:                -0.828
REMARK  Name = 
REMARK  6 active torsions:
REMARK  status: ('A' for Active; 'I' for Inactive)
REMARK    1  A    between atoms: C_2  and  C_4
REMARK    2  A    between atoms: N_8  and  C_9
REMARK    3  A    between atoms: C_9  and  C_10
REMARK    4  A    between atoms: C_10  and  C_11
REMARK    5  A    between atoms: C_15  and  O_16
REMARK    6  A    between atoms: O_16  and  C_17
REMARK                            x       y       z     vdW  Elec       q    Type
REMARK                         _______ _______ _______ _____ _____    ______ ____
ROOT
ATOM      1  C   UNL     1      44.916   4.859  12.709  0.00  0.00    +0.000 A 
ATOM      2  C   UNL     1      45.943   4.873  13.645  0.00  0.00    +0.000 A 
ATOM      3  C   UNL     1      47.038   5.717  13.444  0.00  0.00    +0.000 A 
ATOM      4  C   UNL     1      47.098   6.512  12.302  0.00  0.00    +0.000 A 
ATOM      5  N   UNL     1      48.111   7.432  12.074  0.00  0.00    +0.000 N 
ATOM      6  N   UNL     1      46.124   6.481  11.371  0.00  0.00    +0.000 NA
ATOM      7  C   UNL     1      45.061   5.658  11.587  0.00  0.00    +0.000 A 
ATOM      8  H   UNL     1      47.992   7.767  11.122  0.00  0.00    +0.000 HD
ENDROOT
BRANCH   1  10
ATOM      9  N   UNL     1      43.813   2.700  12.589  0.00  0.00    +0.000 N 
ATOM     10  C   UNL     1      43.700   4.035  12.870  0.00  0.00    +0.000 C 
ATOM     11  O   UNL     1      42.651   4.515  13.273  0.00  0.00    +0.000 OA
ATOM     12  H   UNL     1      43.007   2.125  12.804  0.00  0.00    +0.000 HD
ATOM     13  H   UNL     1      44.706   2.235  12.502  0.00  0.00    +0.000 HD
ENDBRANCH   1  10
BRANCH   5  14
ATOM     14  C   UNL     1      49.475   7.092  12.467  0.00  0.00    +0.000 C 
BRANCH  14  15
ATOM     15  C   UNL     1      50.070   8.200  13.345  0.00  0.00    +0.000 C 
BRANCH  15  16
ATOM     16  C   UNL     1      49.521   8.164  14.754  0.00  0.00    +0.000 A 
ATOM     17  C   UNL     1      48.888   9.293  15.291  0.00  0.00    +0.000 A 
ATOM     18  C   UNL     1      48.360   9.261  16.583  0.00  0.00    +0.000 A 
ATOM     19  C   UNL     1      48.458   8.101  17.356  0.00  0.00    +0.000 A 
ATOM     20  C   UNL     1      49.087   6.974  16.836  0.00  0.00    +0.000 A 
ATOM     21  C   UNL     1      49.604   7.002  15.535  0.00  0.00    +0.000 A 
BRANCH  20  22
ATOM     22  O   UNL     1      49.217   5.780  17.502  0.00  0.00    +0.000 OA
BRANCH  22  23
ATOM     23  C   UNL     1      48.670   4.580  16.904  0.00  0.00    +0.000 C 
ATOM     24  C   UNL     1      47.168   4.299  17.142  0.00  0.00    +0.000 C 
ATOM     25  C   UNL     1      47.515   2.861  17.545  0.00  0.00    +0.000 C 
ATOM     26  C   UNL     1      48.981   3.285  17.692  0.00  0.00    +0.000 C 
ENDBRANCH  22  23
ENDBRANCH  20  22
ENDBRANCH  15  16
ENDBRANCH  14  15
ENDBRANCH   5  14
TORSDOF 6
ENDMDL
