MODEL 1
REMARK VINA RESULT:    -8.541      0.000      0.000
REMARK INTER + INTRA:         -11.884
REMARK INTER:                 -11.038
REMARK INTRA:                  -0.847
REMARK UNBOUND:                -0.847
REMARK  Name = 
REMARK  5 active torsions:
REMARK  status: ('A' for Active; 'I' for Inactive)
REMARK    1  A    between atoms: C_2  and  C_4
REMARK    2  A    between atoms: C_7  and  N_8
REMARK    3  A    between atoms: N_8  and  C_9
REMARK    4  A    between atoms: C_9  and  C_10
REMARK    5  A    between atoms: C_14  and  N_15
REMARK                            x       y       z     vdW  Elec       q    Type
REMARK                         _______ _______ _______ _____ _____    ______ ____
ROOT
ATOM      1  N   UNL     1      43.792   4.857   9.894  0.00  0.00    +0.000 N 
ATOM      2  H   UNL     1      43.080   5.352   9.365  0.00  0.00    +0.000 HD
ENDROOT
BRANCH   1   6
ATOM      3  C   UNL     1      46.345   2.269   7.762  0.00  0.00    +0.000 A 
ATOM      4  C   UNL     1      45.392   1.732   8.629  0.00  0.00    +0.000 A 
ATOM      5  C   UNL     1      44.509   2.577   9.310  0.00  0.00    +0.000 A 
ATOM      6  C   UNL     1      44.543   3.965   9.137  0.00  0.00    +0.000 A 
ATOM      7  C   UNL     1      45.515   4.486   8.269  0.00  0.00    +0.000 A 
ATOM      8  C   UNL     1      46.409   3.653   7.588  0.00  0.00    +0.000 A 
BRANCH   3  10
ATOM      9  N   UNL     1      48.439   2.025   6.546  0.00  0.00    +0.000 N 
ATOM     10  C   UNL     1      47.331   1.410   7.057  0.00  0.00    +0.000 C 
ATOM     11  O   UNL     1      47.178   0.200   6.957  0.00  0.00    +0.000 OA
ATOM     12  H   UNL     1      49.148   1.420   6.154  0.00  0.00    +0.000 HD
ATOM     13  H   UNL     1      48.718   2.958   6.814  0.00  0.00    +0.000 HD
ENDBRANCH   3  10
ENDBRANCH   1   6
BRANCH   1  14
ATOM     14  C   UNL     1      43.434   4.598  11.277  0.00  0.00    +0.000 C 
BRANCH  14  15
ATOM     15  C   UNL     1      44.658   4.657  12.145  0.00  0.00    +0.000 A 
ATOM     16  C   UNL     1      45.143   3.523  12.779  0.00  0.00    +0.000 A 
ATOM     17  N   UNL     1      46.283   3.499  13.495  0.00  0.00    +0.000 NA
ATOM     18  C   UNL     1      46.977   4.665  13.564  0.00  0.00    +0.000 A 
ATOM     19  C   UNL     1      46.616   5.878  12.968  0.00  0.00    +0.000 A 
ATOM     20  C   UNL     1      45.411   5.840  12.260  0.00  0.00    +0.000 A 
BRANCH  19  21
ATOM     21  N   UNL     1      47.395   7.011  13.042  0.00  0.00    +0.000 N 
ATOM     22  C   UNL     1      46.865   8.354  13.315  0.00  0.00    +0.000 C 
ATOM     23  C   UNL     1      47.304   9.332  12.214  0.00  0.00    +0.000 C 
ATOM     24  O   UNL     1      48.731   9.321  12.030  0.00  0.00    +0.000 OA
ATOM     25  C   UNL     1      49.178   8.003  11.676  0.00  0.00    +0.000 C 
ATOM     26  C   UNL     1      48.840   6.976  12.772  0.00  0.00    +0.000 C 
ENDBRANCH  19  21
ENDBRANCH  14  15
ENDBRANCH   1  14
TORSDOF 5
ENDMDL
MODEL 2
REMARK VINA RESULT:    -7.125      2.445      3.411
REMARK INTER + INTRA:         -10.054
REMARK INTER:                  -9.412
REMARK INTRA:                  -0.642
REMARK UNBOUND:                -0.847
REMARK  Name = 
REMARK  5 active torsions:
REMARK  status: ('A' for Active; 'I' for Inactive)
REMARK    1  A    between atoms: C_2  and  C_4
REMARK    2  A    between atoms: C_7  and  N_8
REMARK    3  A    between atoms: N_8  and  C_9
REMARK    4  A    between atoms: C_9  and  C_10
REMARK    5  A    between atoms: C_14  and  N_15
REMARK                            x       y       z     vdW  Elec       q    Type
REMARK                         _______ _______ _______ _____ _____    ______ ____
ROOT
ATOM      1  N   UNL     1      44.448   4.518  11.135  0.00  0.00    +0.000 N 
ATOM      2  H   UNL     1      44.423   3.910  11.949  0.00  0.00    +0.000 HD
ENDROOT
BRANCH   1   6
ATOM      3  C   UNL     1      46.173   2.751   7.719  0.00  0.00    +0.000 A 
ATOM      4  C   UNL     1      45.584   1.938   8.689  0.00  0.00    +0.000 A 
ATOM      5  C   UNL     1      44.969   2.513   9.807  0.00  0.00    +0.000 A 
ATOM      6  C   UNL     1      44.913   3.900   9.980  0.00  0.00    +0.000 A 
ATOM      7  C   UNL     1      45.520   4.700   8.998  0.00  0.00    +0.000 A 
ATOM      8  C   UNL     1      46.145   4.137   7.880  0.00  0.00    +0.000 A 
BRANCH   3  10
ATOM      9  N   UNL     1      47.074   3.005   5.473  0.00  0.00    +0.000 N 
ATOM     10  C   UNL     1      46.875   2.178   6.543  0.00  0.00    +0.000 C 
ATOM     11  O   UNL     1      47.286   1.025   6.534  0.00  0.00    +0.000 OA
ATOM     12  H   UNL     1      47.636   2.636   4.718  0.00  0.00    +0.000 HD
ATOM     13  H   UNL     1      46.973   4.008   5.533  0.00  0.00    +0.000 HD
ENDBRANCH   3  10
ENDBRANCH   1   6
BRANCH   1  14
ATOM     14  C   UNL     1      44.723   5.910  11.440  0.00  0.00    +0.000 C 
BRANCH  14  15
ATOM     15  C   UNL     1      46.038   6.029  12.157  0.00  0.00    +0.000 A 
ATOM     16  C   UNL     1      47.074   6.786  11.634  0.00  0.00    +0.000 A 
ATOM     17  N   UNL     1      48.239   7.001  12.274  0.00  0.00    +0.000 NA
ATOM     18  C   UNL     1      48.362   6.441  13.507  0.00  0.00    +0.000 A 
ATOM     19  C   UNL     1      47.398   5.667  14.162  0.00  0.00    +0.000 A 
ATOM     20  C   UNL     1      46.223   5.464  13.432  0.00  0.00    +0.000 A 
BRANCH  19  21
ATOM     21  N   UNL     1      47.575   5.171  15.434  0.00  0.00    +0.000 N 
ATOM     22  C   UNL     1      48.350   5.853  16.480  0.00  0.00    +0.000 C 
ATOM     23  C   UNL     1      49.430   4.913  17.038  0.00  0.00    +0.000 C 
ATOM     24  O   UNL     1      48.871   3.663  17.482  0.00  0.00    +0.000 OA
ATOM     25  C   UNL     1      48.205   3.002  16.395  0.00  0.00    +0.000 C 
ATOM     26  C   UNL     1      47.054   3.854  15.831  0.00  0.00    +0.000 C 
ENDBRANCH  19  21
ENDBRANCH  14  15
ENDBRANCH   1  14
TORSDOF 5
ENDMDL
MODEL 3
REMARK VINA RESULT:    -6.779      1.909      6.773
REMARK INTER + INTRA:          -9.607
REMARK INTER:                  -8.911
REMARK INTRA:                  -0.697
REMARK UNBOUND:                -0.847
REMARK  Name = 
REMARK  5 active torsions:
REMARK  status: ('A' for Active; 'I' for Inactive)
REMARK    1  A    between atoms: C_2  and  C_4
REMARK    2  A    between atoms: C_7  and  N_8
REMARK    3  A    between atoms: N_8  and  C_9
REMARK    4  A    between atoms: C_9  and  C_10
REMARK    5  A    between atoms: C_14  and  N_15
REMARK                            x       y       z     vdW  Elec       q    Type
REMARK                         _______ _______ _______ _____ _____    ______ ____
ROOT
ATOM      1  N   UNL     1      46.294   6.522  13.490  0.00  0.00    +0.000 N 
ATOM      2  H   UNL     1      46.112   6.567  14.489  0.00  0.00    +0.000 HD
ENDROOT
BRANCH   1   6
ATOM      3  C   UNL     1      50.099   7.981  12.416  0.00  0.00    +0.000 A 
ATOM      4  C   UNL     1      49.127   7.808  11.429  0.00  0.00    +0.000 A 
ATOM      5  C   UNL     1      47.845   7.366  11.777  0.00  0.00    +0.000 A 
ATOM      6  C   UNL     1      47.498   7.099  13.106  0.00  0.00    +0.000 A 
ATOM      7  C   UNL     1      48.493   7.270  14.083  0.00  0.00    +0.000 A 
ATOM      8  C   UNL     1      49.780   7.704  13.747  0.00  0.00    +0.000 A 
BRANCH   3  10
ATOM      9  N   UNL     1      52.471   8.046  12.956  0.00  0.00    +0.000 N 
ATOM     10  C   UNL     1      51.483   8.404  12.082  0.00  0.00    +0.000 C 
ATOM     11  O   UNL     1      51.740   9.022  11.057  0.00  0.00    +0.000 OA
ATOM     12  H   UNL     1      53.419   8.254  12.672  0.00  0.00    +0.000 HD
ATOM     13  H   UNL     1      52.341   7.342  13.669  0.00  0.00    +0.000 HD
ENDBRANCH   3  10
ENDBRANCH   1   6
BRANCH   1  14
ATOM     14  C   UNL     1      45.102   6.584  12.664  0.00  0.00    +0.000 C 
BRANCH  14  15
ATOM     15  C   UNL     1      44.705   5.202  12.228  0.00  0.00    +0.000 A 
ATOM     16  C   UNL     1      43.921   4.392  13.034  0.00  0.00    +0.000 A 
ATOM     17  N   UNL     1      43.463   3.183  12.657  0.00  0.00    +0.000 NA
ATOM     18  C   UNL     1      43.795   2.776  11.404  0.00  0.00    +0.000 A 
ATOM     19  C   UNL     1      44.566   3.490  10.480  0.00  0.00    +0.000 A 
ATOM     20  C   UNL     1      45.029   4.725  10.944  0.00  0.00    +0.000 A 
BRANCH  19  21
ATOM     21  N   UNL     1      44.824   3.033   9.208  0.00  0.00    +0.000 N 
ATOM     22  C   UNL     1      44.987   1.613   8.864  0.00  0.00    +0.000 C 
ATOM     23  C   UNL     1      46.324   1.393   8.139  0.00  0.00    +0.000 C 
ATOM     24  O   UNL     1      46.463   2.264   7.002  0.00  0.00    +0.000 OA
ATOM     25  C   UNL     1      46.387   3.637   7.413  0.00  0.00    +0.000 C 
ATOM     26  C   UNL     1      45.037   3.955   8.082  0.00  0.00    +0.000 C 
ENDBRANCH  19  21
ENDBRANCH  14  15
ENDBRANCH   1  14
TORSDOF 5
ENDMDL
MODEL 4
REMARK VINA RESULT:    -6.701      2.999      7.558
REMARK INTER + INTRA:          -9.506
REMARK INTER:                  -8.951
REMARK INTRA:                  -0.556
REMARK UNBOUND:                -0.847
REMARK  Name = 
REMARK  5 active torsions:
REMARK  status: ('A' for Active; 'I' for Inactive)
REMARK    1  A    between atoms: C_2  and  C_4
REMARK    2  A    between atoms: C_7  and  N_8
REMARK    3  A    between atoms: N_8  and  C_9
REMARK    4  A    between atoms: C_9  and  C_10
REMARK    5  A    between atoms: C_14  and  N_15
REMARK                            x       y       z     vdW  Elec       q    Type
REMARK                         _______ _______ _______ _____ _____    ______ ____
ROOT
ATOM      1  N   UNL     1      47.155   5.947  13.211  0.00  0.00    +0.000 N 
ATOM      2  H   UNL     1      47.657   5.441  12.488  0.00  0.00    +0.000 HD
ENDROOT
BRANCH   1   6
ATOM      3  C   UNL     1      48.458   4.652  17.004  0.00  0.00    +0.000 A 
ATOM      4  C   UNL     1      48.908   5.876  16.504  0.00  0.00    +0.000 A 
ATOM      5  C   UNL     1      48.450   6.339  15.266  0.00  0.00    +0.000 A 
ATOM      6  C   UNL     1      47.530   5.609  14.506  0.00  0.00    +0.000 A 
ATOM      7  C   UNL     1      47.097   4.376  15.021  0.00  0.00    +0.000 A 
ATOM      8  C   UNL     1      47.554   3.898  16.254  0.00  0.00    +0.000 A 
BRANCH   3  10
ATOM      9  N   UNL     1      48.247   3.076  18.846  0.00  0.00    +0.000 N 
ATOM     10  C   UNL     1      48.956   4.105  18.292  0.00  0.00    +0.000 C 
ATOM     11  O   UNL     1      49.972   4.532  18.826  0.00  0.00    +0.000 OA
ATOM     12  H   UNL     1      48.647   2.648  19.670  0.00  0.00    +0.000 HD
ATOM     13  H   UNL     1      47.563   2.544  18.328  0.00  0.00    +0.000 HD
ENDBRANCH   3  10
ENDBRANCH   1   6
BRANCH   1  14
ATOM     14  C   UNL     1      45.788   6.288  12.859  0.00  0.00    +0.000 C 
BRANCH  14  15
ATOM     15  C   UNL     1      45.082   5.081  12.309  0.00  0.00    +0.000 A 
ATOM     16  C   UNL     1      44.043   4.480  13.002  0.00  0.00    +0.000 A 
ATOM     17  N   UNL     1      43.318   3.454  12.517  0.00  0.00    +0.000 NA
ATOM     18  C   UNL     1      43.642   3.022  11.270  0.00  0.00    +0.000 A 
ATOM     19  C   UNL     1      44.654   3.540  10.453  0.00  0.00    +0.000 A 
ATOM     20  C   UNL     1      45.383   4.586  11.026  0.00  0.00    +0.000 A 
BRANCH  19  21
ATOM     21  N   UNL     1      44.895   3.081   9.178  0.00  0.00    +0.000 N 
ATOM     22  C   UNL     1      45.001   1.658   8.825  0.00  0.00    +0.000 C 
ATOM     23  C   UNL     1      46.330   1.388   8.101  0.00  0.00    +0.000 C 
ATOM     24  O   UNL     1      46.506   2.260   6.970  0.00  0.00    +0.000 OA
ATOM     25  C   UNL     1      46.485   3.632   7.390  0.00  0.00    +0.000 C 
ATOM     26  C   UNL     1      45.148   4.001   8.059  0.00  0.00    +0.000 C 
ENDBRANCH  19  21
ENDBRANCH  14  15
ENDBRANCH   1  14
TORSDOF 5
ENDMDL
MODEL 5
REMARK VINA RESULT:    -6.481      4.528      7.984
REMARK INTER + INTRA:          -9.221
REMARK INTER:                  -8.557
REMARK INTRA:                  -0.664
REMARK UNBOUND:                -0.847
REMARK  Name = 
REMARK  5 active torsions:
REMARK  status: ('A' for Active; 'I' for Inactive)
REMARK    1  A    between atoms: C_2  and  C_4
REMARK    2  A    between atoms: C_7  and  N_8
REMARK    3  A    between atoms: N_8  and  C_9
REMARK    4  A    between atoms: C_9  and  C_10
REMARK    5  A    between atoms: C_14  and  N_15
REMARK                            x       y       z     vdW  Elec       q    Type
REMARK                         _______ _______ _______ _____ _____    ______ ____
ROOT
ATOM      1  N   UNL     1      48.247   5.410  16.430  0.00  0.00    +0.000 N 
ATOM      2  H   UNL     1      47.508   5.613  17.098  0.00  0.00    +0.000 HD
ENDROOT
BRANCH   1   6
ATOM      3  C   UNL     1      51.067   2.449  17.451  0.00  0.00    +0.000 A 
ATOM      4  C   UNL     1      51.402   3.796  17.599  0.00  0.00    +0.000 A 
ATOM      5  C   UNL     1      50.461   4.789  17.306  0.00  0.00    +0.000 A 
ATOM      6  C   UNL     1      49.169   4.470  16.873  0.00  0.00    +0.000 A 
ATOM      7  C   UNL     1      48.856   3.109  16.721  0.00  0.00    +0.000 A 
ATOM      8  C   UNL     1      49.790   2.107  17.003  0.00  0.00    +0.000 A 
BRANCH   3  10
ATOM      9  N   UNL     1      51.562   0.172  18.153  0.00  0.00    +0.000 N 
ATOM     10  C   UNL     1      52.052   1.368  17.707  0.00  0.00    +0.000 C 
ATOM     11  O   UNL     1      53.250   1.523  17.504  0.00  0.00    +0.000 OA
ATOM     12  H   UNL     1      52.228  -0.585  18.232  0.00  0.00    +0.000 HD
ATOM     13  H   UNL     1      50.583  -0.070  18.099  0.00  0.00    +0.000 HD
ENDBRANCH   3  10
ENDBRANCH   1   6
BRANCH   1  14
ATOM     14  C   UNL     1      48.623   6.538  15.598  0.00  0.00    +0.000 C 
BRANCH  14  15
ATOM     15  C   UNL     1      47.878   6.487  14.294  0.00  0.00    +0.000 A 
ATOM     16  C   UNL     1      48.336   7.172  13.179  0.00  0.00    +0.000 A 
ATOM     17  N   UNL     1      47.760   7.090  11.965  0.00  0.00    +0.000 NA
ATOM     18  C   UNL     1      46.682   6.268  11.862  0.00  0.00    +0.000 A 
ATOM     19  C   UNL     1      46.121   5.510  12.895  0.00  0.00    +0.000 A 
ATOM     20  C   UNL     1      46.752   5.659  14.133  0.00  0.00    +0.000 A 
BRANCH  19  21
ATOM     21  N   UNL     1      45.054   4.661  12.706  0.00  0.00    +0.000 N 
ATOM     22  C   UNL     1      45.175   3.300  12.164  0.00  0.00    +0.000 C 
ATOM     23  C   UNL     1      44.247   3.126  10.952  0.00  0.00    +0.000 C 
ATOM     24  O   UNL     1      42.889   3.484  11.264  0.00  0.00    +0.000 OA
ATOM     25  C   UNL     1      42.822   4.851  11.700  0.00  0.00    +0.000 C 
ATOM     26  C   UNL     1      43.670   5.086  12.963  0.00  0.00    +0.000 C 
ENDBRANCH  19  21
ENDBRANCH  14  15
ENDBRANCH   1  14
TORSDOF 5
ENDMDL
MODEL 6
REMARK VINA RESULT:    -6.076      3.549      5.539
REMARK INTER + INTRA:          -8.699
REMARK INTER:                  -8.027
REMARK INTRA:                  -0.672
REMARK UNBOUND:                -0.847
REMARK  Name = 
REMARK  5 active torsions:
REMARK  status: ('A' for Active; 'I' for Inactive)
REMARK    1  A    between atoms: C_2  and  C_4
REMARK    2  A    between atoms: C_7  and  N_8
REMARK    3  A    between atoms: N_8  and  C_9
REMARK    4  A    between atoms: C_9  and  C_10
REMARK    5  A    between atoms: C_14  and  N_15
REMARK                            x       y       z     vdW  Elec       q    Type
REMARK                         _______ _______ _______ _____ _____    ______ ____
ROOT
ATOM      1  N   UNL     1      46.462   7.622  12.770  0.00  0.00    +0.000 N 
ATOM      2  H   UNL     1      46.201   7.974  13.686  0.00  0.00    +0.000 HD
ENDROOT
BRANCH   1   6
ATOM      3  C   UNL     1      44.497   4.142  11.431  0.00  0.00    +0.000 A 
ATOM      4  C   UNL     1      44.369   4.532  12.766  0.00  0.00    +0.000 A 
ATOM      5  C   UNL     1      44.980   5.709  13.214  0.00  0.00    +0.000 A 
ATOM      6  C   UNL     1      45.717   6.527  12.350  0.00  0.00    +0.000 A 
ATOM      7  C   UNL     1      45.842   6.112  11.014  0.00  0.00    +0.000 A 
ATOM      8  C   UNL     1      45.243   4.934  10.556  0.00  0.00    +0.000 A 
BRANCH   3  10
ATOM      9  N   UNL     1      44.505   2.294   9.847  0.00  0.00    +0.000 N 
ATOM     10  C   UNL     1      43.903   2.877  10.928  0.00  0.00    +0.000 C 
ATOM     11  O   UNL     1      42.935   2.358  11.468  0.00  0.00    +0.000 OA
ATOM     12  H   UNL     1      44.153   1.387   9.574  0.00  0.00    +0.000 HD
ATOM     13  H   UNL     1      45.429   2.552   9.533  0.00  0.00    +0.000 HD
ENDBRANCH   3  10
ENDBRANCH   1   6
BRANCH   1  14
ATOM     14  C   UNL     1      47.870   7.775  12.453  0.00  0.00    +0.000 C 
BRANCH  14  15
ATOM     15  C   UNL     1      48.710   7.377  13.633  0.00  0.00    +0.000 A 
ATOM     16  C   UNL     1      49.972   7.915  13.829  0.00  0.00    +0.000 A 
ATOM     17  N   UNL     1      50.730   7.664  14.914  0.00  0.00    +0.000 NA
ATOM     18  C   UNL     1      50.187   6.845  15.853  0.00  0.00    +0.000 A 
ATOM     19  C   UNL     1      48.925   6.243  15.794  0.00  0.00    +0.000 A 
ATOM     20  C   UNL     1      48.202   6.526  14.632  0.00  0.00    +0.000 A 
BRANCH  19  21
ATOM     21  N   UNL     1      48.421   5.460  16.808  0.00  0.00    +0.000 N 
ATOM     22  C   UNL     1      48.837   5.572  18.213  0.00  0.00    +0.000 C 
ATOM     23  C   UNL     1      49.304   4.205  18.739  0.00  0.00    +0.000 C 
ATOM     24  O   UNL     1      48.310   3.186  18.529  0.00  0.00    +0.000 OA
ATOM     25  C   UNL     1      48.012   3.061  17.130  0.00  0.00    +0.000 C 
ATOM     26  C   UNL     1      47.463   4.376  16.546  0.00  0.00    +0.000 C 
ENDBRANCH  19  21
ENDBRANCH  14  15
ENDBRANCH   1  14
TORSDOF 5
ENDMDL
MODEL 7
REMARK VINA RESULT:    -5.974      5.199      6.793
REMARK INTER + INTRA:          -8.567
REMARK INTER:                  -7.967
REMARK INTRA:                  -0.600
REMARK UNBOUND:                -0.847
REMARK  Name = 
REMARK  5 active torsions:
REMARK  status: ('A' for Active; 'I' for Inactive)
REMARK    1  A    between atoms: C_2  and  C_4
REMARK    2  A    between atoms: C_7  and  N_8
REMARK    3  A    between atoms: N_8  and  C_9
REMARK    4  A    between atoms: C_9  and  C_10
REMARK    5  A    between atoms: C_14  and  N_15
REMARK                            x       y       z     vdW  Elec       q    Type
REMARK                         _______ _______ _______ _____ _____    ______ ____
ROOT
ATOM      1  N   UNL     1      47.367   5.163  15.135  0.00  0.00    +0.000 N 
ATOM      2  H   UNL     1      47.541   6.145  15.331  0.00  0.00    +0.000 HD
ENDROOT
BRANCH   1   6
ATOM      3  C   UNL     1      45.147   4.345  11.648  0.00  0.00    +0.000 A 
ATOM      4  C   UNL     1      45.482   5.665  11.954  0.00  0.00    +0.000 A 
ATOM      5  C   UNL     1      46.257   5.948  13.085  0.00  0.00    +0.000 A 
ATOM      6  C   UNL     1      46.723   4.931  13.926  0.00  0.00    +0.000 A 
ATOM      7  C   UNL     1      46.367   3.611  13.606  0.00  0.00    +0.000 A 
ATOM      8  C   UNL     1      45.587   3.316  12.483  0.00  0.00    +0.000 A 
BRANCH   3  10
ATOM      9  N   UNL     1      44.300   4.879   9.430  0.00  0.00    +0.000 N 
ATOM     10  C   UNL     1      44.289   4.008  10.483  0.00  0.00    +0.000 C 
ATOM     11  O   UNL     1      43.620   2.984  10.449  0.00  0.00    +0.000 OA
ATOM     12  H   UNL     1      43.789   4.593   8.605  0.00  0.00    +0.000 HD
ATOM     13  H   UNL     1      45.008   5.590   9.317  0.00  0.00    +0.000 HD
ENDBRANCH   3  10
ENDBRANCH   1   6
BRANCH   1  14
ATOM     14  C   UNL     1      47.124   4.355  16.316  0.00  0.00    +0.000 C 
BRANCH  14  15
ATOM     15  C   UNL     1      48.387   3.657  16.732  0.00  0.00    +0.000 A 
ATOM     16  C   UNL     1      48.673   2.372  16.299  0.00  0.00    +0.000 A 
ATOM     17  N   UNL     1      49.828   1.734  16.567  0.00  0.00    +0.000 NA
ATOM     18  C   UNL     1      50.746   2.427  17.291  0.00  0.00    +0.000 A 
ATOM     19  C   UNL     1      50.600   3.729  17.781  0.00  0.00    +0.000 A 
ATOM     20  C   UNL     1      49.370   4.324  17.488  0.00  0.00    +0.000 A 
BRANCH  19  21
ATOM     21  N   UNL     1      51.595   4.386  18.470  0.00  0.00    +0.000 N 
ATOM     22  C   UNL     1      52.899   3.790  18.793  0.00  0.00    +0.000 C 
ATOM     23  C   UNL     1      53.166   3.885  20.304  0.00  0.00    +0.000 C 
ATOM     24  O   UNL     1      53.033   5.235  20.784  0.00  0.00    +0.000 OA
ATOM     25  C   UNL     1      51.711   5.730  20.521  0.00  0.00    +0.000 C 
ATOM     26  C   UNL     1      51.398   5.738  19.014  0.00  0.00    +0.000 C 
ENDBRANCH  19  21
ENDBRANCH  14  15
ENDBRANCH   1  14
TORSDOF 5
ENDMDL
MODEL 8
REMARK VINA RESULT:    -5.803      4.110      6.381
REMARK INTER + INTRA:          -8.346
REMARK INTER:                  -7.641
REMARK INTRA:                  -0.705
REMARK UNBOUND:                -0.847
REMARK  Name = 
REMARK  5 active torsions:
REMARK  status: ('A' for Active; 'I' for Inactive)
REMARK    1  A    between atoms: C_2  and  C_4
REMARK    2  A    between atoms: C_7  and  N_8
REMARK    3  A    between atoms: N_8  and  C_9
REMARK    4  A    between atoms: C_9  and  C_10
REMARK    5  A    between atoms: C_14  and  N_15
REMARK                            x       y       z     vdW  Elec       q    Type
REMARK                         _______ _______ _______ _____ _____    ______ ____
ROOT
ATOM      1  N   UNL     1      48.410   6.575  12.799  0.00  0.00    +0.000 N 
ATOM      2  H   UNL     1      49.025   6.172  12.098  0.00  0.00    +0.000 HD
ENDROOT
BRANCH   1   6
ATOM      3  C   UNL     1      44.424   5.452  12.018  0.00  0.00    +0.000 A 
ATOM      4  C   UNL     1      45.202   4.670  12.873  0.00  0.00    +0.000 A 
ATOM      5  C   UNL     1      46.513   5.054  13.176  0.00  0.00    +0.000 A 
ATOM      6  C   UNL     1      47.074   6.224  12.650  0.00  0.00    +0.000 A 
ATOM      7  C   UNL     1      46.278   6.991  11.785  0.00  0.00    +0.000 A 
ATOM      8  C   UNL     1      44.969   6.613  11.467  0.00  0.00    +0.000 A 
BRANCH   3  10
ATOM      9  N   UNL     1      42.074   6.012  11.722  0.00  0.00    +0.000 N 
ATOM     10  C   UNL     1      43.045   5.053  11.635  0.00  0.00    +0.000 C 
ATOM     11  O   UNL     1      42.786   3.927  11.233  0.00  0.00    +0.000 OA
ATOM     12  H   UNL     1      41.161   5.759  11.369  0.00  0.00    +0.000 HD
ATOM     13  H   UNL     1      42.285   6.995  11.811  0.00  0.00    +0.000 HD
ENDBRANCH   3  10
ENDBRANCH   1   6
BRANCH   1  14
ATOM     14  C   UNL     1      48.824   7.883  13.273  0.00  0.00    +0.000 C 
BRANCH  14  15
ATOM     15  C   UNL     1      48.812   7.914  14.775  0.00  0.00    +0.000 A 
ATOM     16  C   UNL     1      48.643   9.104  15.466  0.00  0.00    +0.000 A 
ATOM     17  N   UNL     1      48.535   9.179  16.807  0.00  0.00    +0.000 NA
ATOM     18  C   UNL     1      48.583   8.001  17.483  0.00  0.00    +0.000 A 
ATOM     19  C   UNL     1      48.736   6.730  16.918  0.00  0.00    +0.000 A 
ATOM     20  C   UNL     1      48.867   6.726  15.526  0.00  0.00    +0.000 A 
BRANCH  19  21
ATOM     21  N   UNL     1      48.729   5.573  17.664  0.00  0.00    +0.000 N 
ATOM     22  C   UNL     1      49.944   4.906  18.154  0.00  0.00    +0.000 C 
ATOM     23  C   UNL     1      49.958   3.435  17.708  0.00  0.00    +0.000 C 
ATOM     24  O   UNL     1      48.751   2.751  18.089  0.00  0.00    +0.000 OA
ATOM     25  C   UNL     1      47.608   3.395  17.507  0.00  0.00    +0.000 C 
ATOM     26  C   UNL     1      47.482   4.857  17.972  0.00  0.00    +0.000 C 
ENDBRANCH  19  21
ENDBRANCH  14  15
ENDBRANCH   1  14
TORSDOF 5
ENDMDL
MODEL 9
REMARK VINA RESULT:    -5.741      3.549      7.993
REMARK INTER + INTRA:          -8.266
REMARK INTER:                  -7.656
REMARK INTRA:                  -0.610
REMARK UNBOUND:                -0.847
REMARK  Name = 
REMARK  5 active torsions:
REMARK  status: ('A' for Active; 'I' for Inactive)
REMARK    1  A    between atoms: C_2  and  C_4
REMARK    2  A    between atoms: C_7  and  N_8
REMARK    3  A    between atoms: N_8  and  C_9
REMARK    4  A    between atoms: C_9  and  C_10
REMARK    5  A    between atoms: C_14  and  N_15
REMARK                            x       y       z     vdW  Elec       q    Type
REMARK                         _______ _______ _______ _____ _____    ______ ____
ROOT
ATOM      1  N   UNL     1      49.076   7.440  13.871  0.00  0.00    +0.000 N 
ATOM      2  H   UNL     1      49.733   8.198  13.709  0.00  0.00    +0.000 HD
ENDROOT
BRANCH   1   6
ATOM      3  C   UNL     1      49.509   5.279  17.463  0.00  0.00    +0.000 A 
ATOM      4  C   UNL     1      50.515   6.164  17.069  0.00  0.00    +0.000 A 
ATOM      5  C   UNL     1      50.365   6.921  15.902  0.00  0.00    +0.000 A 
ATOM      6  C   UNL     1      49.215   6.826  15.110  0.00  0.00    +0.000 A 
ATOM      7  C   UNL     1      48.219   5.924  15.518  0.00  0.00    +0.000 A 
ATOM      8  C   UNL     1      48.361   5.155  16.679  0.00  0.00    +0.000 A 
BRANCH   3  10
ATOM      9  N   UNL     1      48.972   3.238  18.676  0.00  0.00    +0.000 N 
ATOM     10  C   UNL     1      49.651   4.425  18.670  0.00  0.00    +0.000 C 
ATOM     11  O   UNL     1      50.364   4.748  19.611  0.00  0.00    +0.000 OA
ATOM     12  H   UNL     1      49.151   2.622  19.457  0.00  0.00    +0.000 HD
ATOM     13  H   UNL     1      48.580   2.830  17.839  0.00  0.00    +0.000 HD
ENDBRANCH   3  10
ENDBRANCH   1   6
BRANCH   1  14
ATOM     14  C   UNL     1      48.705   6.707  12.675  0.00  0.00    +0.000 C 
BRANCH  14  15
ATOM     15  C   UNL     1      47.262   6.960  12.342  0.00  0.00    +0.000 A 
ATOM     16  C   UNL     1      46.763   8.249  12.250  0.00  0.00    +0.000 A 
ATOM     17  N   UNL     1      45.503   8.537  11.869  0.00  0.00    +0.000 NA
ATOM     18  C   UNL     1      44.713   7.477  11.550  0.00  0.00    +0.000 A 
ATOM     19  C   UNL     1      45.086   6.129  11.585  0.00  0.00    +0.000 A 
ATOM     20  C   UNL     1      46.397   5.901  12.011  0.00  0.00    +0.000 A 
BRANCH  19  21
ATOM     21  N   UNL     1      44.243   5.110  11.202  0.00  0.00    +0.000 N 
ATOM     22  C   UNL     1      43.235   4.505  12.083  0.00  0.00    +0.000 C 
ATOM     23  C   UNL     1      43.428   2.981  12.142  0.00  0.00    +0.000 C 
ATOM     24  O   UNL     1      43.446   2.395  10.829  0.00  0.00    +0.000 OA
ATOM     25  C   UNL     1      44.509   2.960  10.046  0.00  0.00    +0.000 C 
ATOM     26  C   UNL     1      44.342   4.481   9.876  0.00  0.00    +0.000 C 
ENDBRANCH  19  21
ENDBRANCH  14  15
ENDBRANCH   1  14
TORSDOF 5
ENDMDL
