MODEL 1
REMARK VINA RESULT:    -7.923      0.000      0.000
REMARK INTER + INTRA:         -12.577
REMARK INTER:                 -11.629
REMARK INTRA:                  -0.949
REMARK UNBOUND:                -0.949
REMARK  Name = 
REMARK  10 active torsions:
REMARK  status: ('A' for Active; 'I' for Inactive)
REMARK    1  A    between atoms: C_1  and  C_2
REMARK    2  A    between atoms: C_2  and  C_3
REMARK    3  A    between atoms: C_3  and  N_4
REMARK    4  A    between atoms: C_3  and  C_27
REMARK    5  A    between atoms: N_4  and  C_5
REMARK    6  A    between atoms: C_5  and  C_6
REMARK    7  A    between atoms: C_9  and  C_10
REMARK    8  A    between atoms: C_10  and  C_11
REMARK    9  A    between atoms: C_10  and  N_12
REMARK   10  A    between atoms: C_13  and  C_15
REMARK                            x       y       z     vdW  Elec       q    Type
REMARK                         _______ _______ _______ _____ _____    ______ ____
ROOT
ATOM      1  C   UNL     1      46.434   4.110  13.299  0.00  0.00    +0.000 A 
ATOM      2  C   UNL     1      46.829   5.389  12.921  0.00  0.00    +0.000 A 
ATOM      3  C   UNL     1      47.562   6.156  13.821  0.00  0.00    +0.000 A 
ATOM      4  C   UNL     1      47.883   5.637  15.079  0.00  0.00    +0.000 A 
ATOM      5  C   UNL     1      47.457   4.346  15.363  0.00  0.00    +0.000 A 
ATOM      6  N   UNL     1      46.752   3.579  14.508  0.00  0.00    +0.000 NA
ENDROOT
BRANCH   4   7
ATOM      7  C   UNL     1      48.642   6.430  16.114  0.00  0.00    +0.000 C 
ATOM      8  C   UNL     1      49.157   7.742  15.524  0.00  0.00    +0.000 C 
BRANCH   7   9
ATOM      9  N   UNL     1      49.732   5.643  16.657  0.00  0.00    +0.000 N 
ATOM     10  C   UNL     1      49.806   5.313  17.985  0.00  0.00    +0.000 C 
ATOM     11  O   UNL     1      48.923   5.618  18.783  0.00  0.00    +0.000 OA
ATOM     12  H   UNL     1      50.541   5.492  16.063  0.00  0.00    +0.000 HD
BRANCH  10  13
ATOM     13  C   UNL     1      50.973   4.534  18.406  0.00  0.00    +0.000 A 
ATOM     14  C   UNL     1      51.926   5.123  19.224  0.00  0.00    +0.000 A 
ATOM     15  S   UNL     1      53.237   4.100  19.598  0.00  0.00    +0.000 S 
ATOM     16  C   UNL     1      52.595   2.843  18.648  0.00  0.00    +0.000 A 
ATOM     17  N   UNL     1      53.270   1.673  18.494  0.00  0.00    +0.000 NA
ATOM     18  C   UNL     1      52.687   0.820  17.721  0.00  0.00    +0.000 A 
ATOM     19  N   UNL     1      51.481   1.021  17.102  0.00  0.00    +0.000 N 
ATOM     20  C   UNL     1      50.733   2.163  17.280  0.00  0.00    +0.000 A 
ATOM     21  O   UNL     1      49.605   2.269  16.805  0.00  0.00    +0.000 OA
ATOM     22  C   UNL     1      51.373   3.181  18.093  0.00  0.00    +0.000 A 
ATOM     23  H   UNL     1      51.066   0.296  16.539  0.00  0.00    +0.000 HD
ENDBRANCH  10  13
ENDBRANCH   7   9
ENDBRANCH   4   7
BRANCH   1  24
ATOM     24  C   UNL     1      45.673   3.227  12.330  0.00  0.00    +0.000 C 
BRANCH  24  25
ATOM     25  N   UNL     1      44.241   3.179  12.631  0.00  0.00    +0.000 NA
ATOM     26  H   UNL     1      44.033   3.850  13.369  0.00  0.00    +0.000 HD
BRANCH  25  27
ATOM     27  C   UNL     1      43.377   3.473  11.472  0.00  0.00    +0.000 C 
BRANCH  27  28
ATOM     28  C   UNL     1      44.207   3.325  10.191  0.00  0.00    +0.000 A 
ATOM     29  C   UNL     1      44.751   4.445   9.557  0.00  0.00    +0.000 A 
ATOM     30  C   UNL     1      45.558   4.268   8.436  0.00  0.00    +0.000 A 
ATOM     31  C   UNL     1      45.813   2.984   7.978  0.00  0.00    +0.000 A 
ATOM     32  C   UNL     1      45.242   1.923   8.662  0.00  0.00    +0.000 A 
ATOM     33  N   UNL     1      44.449   2.063   9.751  0.00  0.00    +0.000 NA
ENDBRANCH  27  28
BRANCH  27  35
ATOM     34  C   UNL     1      42.991   5.572  12.911  0.00  0.00    +0.000 C 
ATOM     35  C   UNL     1      42.722   4.868  11.590  0.00  0.00    +0.000 C 
ENDBRANCH  27  35
ENDBRANCH  25  27
ENDBRANCH  24  25
ENDBRANCH   1  24
TORSDOF 8
ENDMDL
MODEL 2
REMARK VINA RESULT:    -7.772      2.448      3.332
REMARK INTER + INTRA:         -12.355
REMARK INTER:                 -11.548
REMARK INTRA:                  -0.807
REMARK UNBOUND:                -0.949
REMARK  Name = 
REMARK  10 active torsions:
REMARK  status: ('A' for Active; 'I' for Inactive)
REMARK    1  A    between atoms: C_1  and  C_2
REMARK    2  A    between atoms: C_2  and  C_3
REMARK    3  A    between atoms: C_3  and  N_4
REMARK    4  A    between atoms: C_3  and  C_27
REMARK    5  A    between atoms: N_4  and  C_5
REMARK    6  A    between atoms: C_5  and  C_6
REMARK    7  A    between atoms: C_9  and  C_10
REMARK    8  A    between atoms: C_10  and  C_11
REMARK    9  A    between atoms: C_10  and  N_12
REMARK   10  A    between atoms: C_13  and  C_15
REMARK                            x       y       z     vdW  Elec       q    Type
REMARK                         _______ _______ _______ _____ _____    ______ ____
ROOT
ATOM      1  C   UNL     1      44.726   6.539  11.531  0.00  0.00    +0.000 A 
ATOM      2  C   UNL     1      44.918   7.916  11.583  0.00  0.00    +0.000 A 
ATOM      3  C   UNL     1      46.147   8.403  12.014  0.00  0.00    +0.000 A 
ATOM      4  C   UNL     1      47.159   7.512  12.387  0.00  0.00    +0.000 A 
ATOM      5  C   UNL     1      46.880   6.155  12.289  0.00  0.00    +0.000 A 
ATOM      6  N   UNL     1      45.700   5.656  11.869  0.00  0.00    +0.000 NA
ENDROOT
BRANCH   4   7
ATOM      7  C   UNL     1      48.501   7.975  12.898  0.00  0.00    +0.000 C 
ATOM      8  C   UNL     1      49.572   7.832  11.818  0.00  0.00    +0.000 C 
BRANCH   7   9
ATOM      9  N   UNL     1      48.868   7.241  14.093  0.00  0.00    +0.000 N 
ATOM     10  C   UNL     1      48.666   7.744  15.351  0.00  0.00    +0.000 C 
ATOM     11  O   UNL     1      48.109   8.823  15.541  0.00  0.00    +0.000 OA
ATOM     12  H   UNL     1      49.449   6.418  13.976  0.00  0.00    +0.000 HD
BRANCH  10  13
ATOM     13  C   UNL     1      49.105   6.909  16.473  0.00  0.00    +0.000 A 
ATOM     14  C   UNL     1      50.020   7.418  17.383  0.00  0.00    +0.000 A 
ATOM     15  S   UNL     1      50.456   6.317  18.607  0.00  0.00    +0.000 S 
ATOM     16  C   UNL     1      49.462   5.105  17.943  0.00  0.00    +0.000 A 
ATOM     17  N   UNL     1      49.416   3.863  18.496  0.00  0.00    +0.000 NA
ATOM     18  C   UNL     1      48.650   3.032  17.873  0.00  0.00    +0.000 A 
ATOM     19  N   UNL     1      47.910   3.334  16.760  0.00  0.00    +0.000 N 
ATOM     20  C   UNL     1      47.877   4.593  16.205  0.00  0.00    +0.000 A 
ATOM     21  O   UNL     1      47.119   4.863  15.277  0.00  0.00    +0.000 OA
ATOM     22  C   UNL     1      48.770   5.550  16.831  0.00  0.00    +0.000 A 
ATOM     23  H   UNL     1      47.304   2.643  16.344  0.00  0.00    +0.000 HD
ENDBRANCH  10  13
ENDBRANCH   7   9
ENDBRANCH   4   7
BRANCH   1  24
ATOM     24  C   UNL     1      43.415   5.968  11.024  0.00  0.00    +0.000 C 
BRANCH  24  25
ATOM     25  N   UNL     1      43.614   4.977   9.967  0.00  0.00    +0.000 NA
ATOM     26  H   UNL     1      44.069   5.424   9.172  0.00  0.00    +0.000 HD
BRANCH  25  27
ATOM     27  C   UNL     1      44.425   3.816  10.381  0.00  0.00    +0.000 C 
BRANCH  27  28
ATOM     28  C   UNL     1      45.213   3.310   9.167  0.00  0.00    +0.000 A 
ATOM     29  C   UNL     1      45.728   4.203   8.224  0.00  0.00    +0.000 A 
ATOM     30  C   UNL     1      46.498   3.714   7.173  0.00  0.00    +0.000 A 
ATOM     31  C   UNL     1      46.747   2.353   7.088  0.00  0.00    +0.000 A 
ATOM     32  C   UNL     1      46.207   1.530   8.063  0.00  0.00    +0.000 A 
ATOM     33  N   UNL     1      45.450   1.974   9.094  0.00  0.00    +0.000 NA
ENDBRANCH  27  28
BRANCH  27  35
ATOM     34  C   UNL     1      43.588   2.691  12.540  0.00  0.00    +0.000 C 
ATOM     35  C   UNL     1      43.553   2.711  11.019  0.00  0.00    +0.000 C 
ENDBRANCH  27  35
ENDBRANCH  25  27
ENDBRANCH  24  25
ENDBRANCH   1  24
TORSDOF 8
ENDMDL
MODEL 3
REMARK VINA RESULT:    -7.001      3.039      3.862
REMARK INTER + INTRA:         -11.224
REMARK INTER:                 -10.117
REMARK INTRA:                  -1.107
REMARK UNBOUND:                -0.949
REMARK  Name = 
REMARK  10 active torsions:
REMARK  status: ('A' for Active; 'I' for Inactive)
REMARK    1  A    between atoms: C_1  and  C_2
REMARK    2  A    between atoms: C_2  and  C_3
REMARK    3  A    between atoms: C_3  and  N_4
REMARK    4  A    between atoms: C_3  and  C_27
REMARK    5  A    between atoms: N_4  and  C_5
REMARK    6  A    between atoms: C_5  and  C_6
REMARK    7  A    between atoms: C_9  and  C_10
REMARK    8  A    between atoms: C_10  and  C_11
REMARK    9  A    between atoms: C_10  and  N_12
REMARK   10  A    between atoms: C_13  and  C_15
REMARK                            x       y       z     vdW  Elec       q    Type
REMARK                         _______ _______ _______ _____ _____    ______ ____
ROOT
ATOM      1  C   UNL     1      45.416   6.926  12.084  0.00  0.00    +0.000 A 
ATOM      2  C   UNL     1      45.402   8.247  12.517  0.00  0.00    +0.000 A 
ATOM      3  C   UNL     1      46.433   8.691  13.338  0.00  0.00    +0.000 A 
ATOM      4  C   UNL     1      47.454   7.812  13.714  0.00  0.00    +0.000 A 
ATOM      5  C   UNL     1      47.391   6.515  13.221  0.00  0.00    +0.000 A 
ATOM      6  N   UNL     1      46.406   6.061  12.419  0.00  0.00    +0.000 NA
ENDROOT
BRANCH   4   7
ATOM      7  C   UNL     1      48.580   8.220  14.632  0.00  0.00    +0.000 C 
ATOM      8  C   UNL     1      49.906   7.618  14.166  0.00  0.00    +0.000 C 
BRANCH   7   9
ATOM      9  N   UNL     1      48.287   7.831  15.997  0.00  0.00    +0.000 N 
ATOM     10  C   UNL     1      48.717   8.562  17.073  0.00  0.00    +0.000 C 
ATOM     11  O   UNL     1      49.330   9.619  16.942  0.00  0.00    +0.000 OA
ATOM     12  H   UNL     1      47.908   6.903  16.149  0.00  0.00    +0.000 HD
BRANCH  10  13
ATOM     13  C   UNL     1      48.372   8.045  18.401  0.00  0.00    +0.000 A 
ATOM     14  C   UNL     1      47.811   8.899  19.339  0.00  0.00    +0.000 A 
ATOM     15  S   UNL     1      47.498   8.158  20.841  0.00  0.00    +0.000 S 
ATOM     16  C   UNL     1      48.135   6.675  20.301  0.00  0.00    +0.000 A 
ATOM     17  N   UNL     1      48.214   5.606  21.139  0.00  0.00    +0.000 NA
ATOM     18  C   UNL     1      48.749   4.556  20.612  0.00  0.00    +0.000 A 
ATOM     19  N   UNL     1      49.194   4.470  19.318  0.00  0.00    +0.000 N 
ATOM     20  C   UNL     1      49.075   5.505  18.418  0.00  0.00    +0.000 A 
ATOM     21  O   UNL     1      49.378   5.362  17.237  0.00  0.00    +0.000 OA
ATOM     22  C   UNL     1      48.536   6.731  18.978  0.00  0.00    +0.000 A 
ATOM     23  H   UNL     1      49.569   3.606  18.962  0.00  0.00    +0.000 HD
ENDBRANCH  10  13
ENDBRANCH   7   9
ENDBRANCH   4   7
BRANCH   1  24
ATOM     24  C   UNL     1      44.333   6.416  11.152  0.00  0.00    +0.000 C 
BRANCH  24  25
ATOM     25  N   UNL     1      44.882   5.651  10.031  0.00  0.00    +0.000 NA
ATOM     26  H   UNL     1      45.823   5.985   9.828  0.00  0.00    +0.000 HD
BRANCH  25  27
ATOM     27  C   UNL     1      44.942   4.197  10.273  0.00  0.00    +0.000 C 
BRANCH  27  28
ATOM     28  C   UNL     1      45.603   3.525   9.064  0.00  0.00    +0.000 A 
ATOM     29  C   UNL     1      45.719   2.134   8.993  0.00  0.00    +0.000 A 
ATOM     30  C   UNL     1      46.260   1.554   7.849  0.00  0.00    +0.000 A 
ATOM     31  C   UNL     1      46.662   2.366   6.800  0.00  0.00    +0.000 A 
ATOM     32  C   UNL     1      46.511   3.736   6.941  0.00  0.00    +0.000 A 
ATOM     33  N   UNL     1      45.994   4.331   8.043  0.00  0.00    +0.000 NA
ENDBRANCH  27  28
BRANCH  27  35
ATOM     34  C   UNL     1      43.456   2.870  11.904  0.00  0.00    +0.000 C 
ATOM     35  C   UNL     1      43.543   3.612  10.579  0.00  0.00    +0.000 C 
ENDBRANCH  27  35
ENDBRANCH  25  27
ENDBRANCH  24  25
ENDBRANCH   1  24
TORSDOF 8
ENDMDL
MODEL 4
REMARK VINA RESULT:    -6.836      1.606      2.329
REMARK INTER + INTRA:         -10.981
REMARK INTER:                 -10.302
REMARK INTRA:                  -0.680
REMARK UNBOUND:                -0.949
REMARK  Name = 
REMARK  10 active torsions:
REMARK  status: ('A' for Active; 'I' for Inactive)
REMARK    1  A    between atoms: C_1  and  C_2
REMARK    2  A    between atoms: C_2  and  C_3
REMARK    3  A    between atoms: C_3  and  N_4
REMARK    4  A    between atoms: C_3  and  C_27
REMARK    5  A    between atoms: N_4  and  C_5
REMARK    6  A    between atoms: C_5  and  C_6
REMARK    7  A    between atoms: C_9  and  C_10
REMARK    8  A    between atoms: C_10  and  C_11
REMARK    9  A    between atoms: C_10  and  N_12
REMARK   10  A    between atoms: C_13  and  C_15
REMARK                            x       y       z     vdW  Elec       q    Type
REMARK                         _______ _______ _______ _____ _____    ______ ____
ROOT
ATOM      1  C   UNL     1      47.457   4.729  14.852  0.00  0.00    +0.000 A 
ATOM      2  C   UNL     1      48.010   5.846  15.471  0.00  0.00    +0.000 A 
ATOM      3  C   UNL     1      48.450   5.732  16.785  0.00  0.00    +0.000 A 
ATOM      4  C   UNL     1      48.328   4.512  17.459  0.00  0.00    +0.000 A 
ATOM      5  C   UNL     1      47.775   3.450  16.756  0.00  0.00    +0.000 A 
ATOM      6  N   UNL     1      47.346   3.531  15.480  0.00  0.00    +0.000 NA
ENDROOT
BRANCH   4   7
ATOM      7  C   UNL     1      48.750   4.332  18.896  0.00  0.00    +0.000 C 
ATOM      8  C   UNL     1      48.788   5.676  19.623  0.00  0.00    +0.000 C 
BRANCH   7   9
ATOM      9  N   UNL     1      50.036   3.668  18.967  0.00  0.00    +0.000 N 
ATOM     10  C   UNL     1      51.211   4.319  18.695  0.00  0.00    +0.000 C 
ATOM     11  O   UNL     1      51.247   5.518  18.431  0.00  0.00    +0.000 OA
ATOM     12  H   UNL     1      50.037   2.657  19.046  0.00  0.00    +0.000 HD
BRANCH  10  13
ATOM     13  C   UNL     1      52.439   3.523  18.781  0.00  0.00    +0.000 A 
ATOM     14  C   UNL     1      53.529   4.027  19.477  0.00  0.00    +0.000 A 
ATOM     15  S   UNL     1      54.889   3.001  19.457  0.00  0.00    +0.000 S 
ATOM     16  C   UNL     1      54.081   1.861  18.486  0.00  0.00    +0.000 A 
ATOM     17  N   UNL     1      54.718   0.740  18.052  0.00  0.00    +0.000 NA
ATOM     18  C   UNL     1      54.000  -0.021  17.296  0.00  0.00    +0.000 A 
ATOM     19  N   UNL     1      52.697   0.226  16.949  0.00  0.00    +0.000 N 
ATOM     20  C   UNL     1      51.994   1.314  17.415  0.00  0.00    +0.000 A 
ATOM     21  O   UNL     1      50.797   1.450  17.180  0.00  0.00    +0.000 OA
ATOM     22  C   UNL     1      52.775   2.235  18.221  0.00  0.00    +0.000 A 
ATOM     23  H   UNL     1      52.184  -0.430  16.382  0.00  0.00    +0.000 HD
ENDBRANCH  10  13
ENDBRANCH   7   9
ENDBRANCH   4   7
BRANCH   1  24
ATOM     24  C   UNL     1      47.007   4.801  13.406  0.00  0.00    +0.000 C 
BRANCH  24  25
ATOM     25  N   UNL     1      45.549   4.821  13.279  0.00  0.00    +0.000 NA
ATOM     26  H   UNL     1      45.144   5.176  14.145  0.00  0.00    +0.000 HD
BRANCH  25  27
ATOM     27  C   UNL     1      45.058   5.645  12.159  0.00  0.00    +0.000 C 
BRANCH  27  28
ATOM     28  C   UNL     1      44.913   4.753  10.920  0.00  0.00    +0.000 A 
ATOM     29  C   UNL     1      45.422   5.158   9.683  0.00  0.00    +0.000 A 
ATOM     30  C   UNL     1      45.336   4.293   8.595  0.00  0.00    +0.000 A 
ATOM     31  C   UNL     1      44.757   3.045   8.764  0.00  0.00    +0.000 A 
ATOM     32  C   UNL     1      44.280   2.712  10.021  0.00  0.00    +0.000 A 
ATOM     33  N   UNL     1      44.343   3.533  11.097  0.00  0.00    +0.000 NA
ENDBRANCH  27  28
BRANCH  27  35
ATOM     34  C   UNL     1      45.511   8.144  12.578  0.00  0.00    +0.000 C 
ATOM     35  C   UNL     1      45.975   6.863  11.902  0.00  0.00    +0.000 C 
ENDBRANCH  27  35
ENDBRANCH  25  27
ENDBRANCH  24  25
ENDBRANCH   1  24
TORSDOF 8
ENDMDL
MODEL 5
REMARK VINA RESULT:    -6.776      3.675      8.507
REMARK INTER + INTRA:         -10.894
REMARK INTER:                  -9.798
REMARK INTRA:                  -1.096
REMARK UNBOUND:                -0.949
REMARK  Name = 
REMARK  10 active torsions:
REMARK  status: ('A' for Active; 'I' for Inactive)
REMARK    1  A    between atoms: C_1  and  C_2
REMARK    2  A    between atoms: C_2  and  C_3
REMARK    3  A    between atoms: C_3  and  N_4
REMARK    4  A    between atoms: C_3  and  C_27
REMARK    5  A    between atoms: N_4  and  C_5
REMARK    6  A    between atoms: C_5  and  C_6
REMARK    7  A    between atoms: C_9  and  C_10
REMARK    8  A    between atoms: C_10  and  C_11
REMARK    9  A    between atoms: C_10  and  N_12
REMARK   10  A    between atoms: C_13  and  C_15
REMARK                            x       y       z     vdW  Elec       q    Type
REMARK                         _______ _______ _______ _____ _____    ______ ____
ROOT
ATOM      1  C   UNL     1      48.725   7.993  16.238  0.00  0.00    +0.000 A 
ATOM      2  C   UNL     1      48.862   6.809  15.521  0.00  0.00    +0.000 A 
ATOM      3  C   UNL     1      48.847   6.864  14.131  0.00  0.00    +0.000 A 
ATOM      4  C   UNL     1      48.692   8.094  13.483  0.00  0.00    +0.000 A 
ATOM      5  C   UNL     1      48.575   9.224  14.282  0.00  0.00    +0.000 A 
ATOM      6  N   UNL     1      48.593   9.200  15.630  0.00  0.00    +0.000 NA
ENDROOT
BRANCH   4   7
ATOM      7  C   UNL     1      48.629   8.218  11.981  0.00  0.00    +0.000 C 
ATOM      8  C   UNL     1      48.053   9.573  11.572  0.00  0.00    +0.000 C 
BRANCH   7   9
ATOM      9  N   UNL     1      47.853   7.133  11.414  0.00  0.00    +0.000 N 
ATOM     10  C   UNL     1      46.498   7.034  11.589  0.00  0.00    +0.000 C 
ATOM     11  O   UNL     1      45.853   7.890  12.190  0.00  0.00    +0.000 OA
ATOM     12  H   UNL     1      48.362   6.342  11.034  0.00  0.00    +0.000 HD
BRANCH  10  13
ATOM     13  C   UNL     1      45.839   5.874  10.983  0.00  0.00    +0.000 A 
ATOM     14  C   UNL     1      45.899   5.698   9.608  0.00  0.00    +0.000 A 
ATOM     15  S   UNL     1      45.058   4.324   9.055  0.00  0.00    +0.000 S 
ATOM     16  C   UNL     1      44.551   3.934  10.632  0.00  0.00    +0.000 A 
ATOM     17  N   UNL     1      43.734   2.870  10.857  0.00  0.00    +0.000 NA
ATOM     18  C   UNL     1      43.399   2.709  12.093  0.00  0.00    +0.000 A 
ATOM     19  N   UNL     1      43.821   3.502  13.128  0.00  0.00    +0.000 N 
ATOM     20  C   UNL     1      44.697   4.550  12.955  0.00  0.00    +0.000 A 
ATOM     21  O   UNL     1      45.147   5.171  13.914  0.00  0.00    +0.000 OA
ATOM     22  C   UNL     1      45.057   4.812  11.574  0.00  0.00    +0.000 A 
ATOM     23  H   UNL     1      43.547   3.297  14.076  0.00  0.00    +0.000 HD
ENDBRANCH  10  13
ENDBRANCH   7   9
ENDBRANCH   4   7
BRANCH   1  24
ATOM     24  C   UNL     1      48.781   7.980  17.753  0.00  0.00    +0.000 C 
BRANCH  24  25
ATOM     25  N   UNL     1      49.704   6.966  18.265  0.00  0.00    +0.000 NA
ATOM     26  H   UNL     1      50.457   7.428  18.774  0.00  0.00    +0.000 HD
BRANCH  25  27
ATOM     27  C   UNL     1      49.070   5.977  19.157  0.00  0.00    +0.000 C 
BRANCH  27  28
ATOM     28  C   UNL     1      48.886   4.666  18.385  0.00  0.00    +0.000 A 
ATOM     29  C   UNL     1      47.636   4.306  17.874  0.00  0.00    +0.000 A 
ATOM     30  C   UNL     1      47.520   3.143  17.117  0.00  0.00    +0.000 A 
ATOM     31  C   UNL     1      48.647   2.373  16.877  0.00  0.00    +0.000 A 
ATOM     32  C   UNL     1      49.852   2.797  17.412  0.00  0.00    +0.000 A 
ATOM     33  N   UNL     1      49.997   3.919  18.156  0.00  0.00    +0.000 NA
ENDBRANCH  27  28
BRANCH  27  35
ATOM     34  C   UNL     1      47.427   5.994  21.138  0.00  0.00    +0.000 C 
ATOM     35  C   UNL     1      47.741   6.508  19.742  0.00  0.00    +0.000 C 
ENDBRANCH  27  35
ENDBRANCH  25  27
ENDBRANCH  24  25
ENDBRANCH   1  24
TORSDOF 8
ENDMDL
MODEL 6
REMARK VINA RESULT:    -6.736      6.084      7.316
REMARK INTER + INTRA:         -10.835
REMARK INTER:                  -9.301
REMARK INTRA:                  -1.533
REMARK UNBOUND:                -0.949
REMARK  Name = 
REMARK  10 active torsions:
REMARK  status: ('A' for Active; 'I' for Inactive)
REMARK    1  A    between atoms: C_1  and  C_2
REMARK    2  A    between atoms: C_2  and  C_3
REMARK    3  A    between atoms: C_3  and  N_4
REMARK    4  A    between atoms: C_3  and  C_27
REMARK    5  A    between atoms: N_4  and  C_5
REMARK    6  A    between atoms: C_5  and  C_6
REMARK    7  A    between atoms: C_9  and  C_10
REMARK    8  A    between atoms: C_10  and  C_11
REMARK    9  A    between atoms: C_10  and  N_12
REMARK   10  A    between atoms: C_13  and  C_15
REMARK                            x       y       z     vdW  Elec       q    Type
REMARK                         _______ _______ _______ _____ _____    ______ ____
ROOT
ATOM      1  C   UNL     1      46.958   6.619  12.866  0.00  0.00    +0.000 A 
ATOM      2  C   UNL     1      46.766   7.814  12.181  0.00  0.00    +0.000 A 
ATOM      3  C   UNL     1      47.880   8.564  11.821  0.00  0.00    +0.000 A 
ATOM      4  C   UNL     1      49.162   8.113  12.152  0.00  0.00    +0.000 A 
ATOM      5  C   UNL     1      49.256   6.902  12.825  0.00  0.00    +0.000 A 
ATOM      6  N   UNL     1      48.193   6.152  13.181  0.00  0.00    +0.000 NA
ENDROOT
BRANCH   4   7
ATOM      7  C   UNL     1      50.408   8.897  11.825  0.00  0.00    +0.000 C 
ATOM      8  C   UNL     1      50.061  10.337  11.447  0.00  0.00    +0.000 C 
BRANCH   7   9
ATOM      9  N   UNL     1      51.151   8.248  10.762  0.00  0.00    +0.000 N 
ATOM     10  C   UNL     1      52.455   7.856  10.916  0.00  0.00    +0.000 C 
ATOM     11  O   UNL     1      53.053   7.982  11.982  0.00  0.00    +0.000 OA
ATOM     12  H   UNL     1      50.741   8.251   9.835  0.00  0.00    +0.000 HD
BRANCH  10  13
ATOM     13  C   UNL     1      53.096   7.232   9.755  0.00  0.00    +0.000 A 
ATOM     14  C   UNL     1      53.537   5.920   9.844  0.00  0.00    +0.000 A 
ATOM     15  S   UNL     1      54.289   5.351   8.425  0.00  0.00    +0.000 S 
ATOM     16  C   UNL     1      54.084   6.852   7.651  0.00  0.00    +0.000 A 
ATOM     17  N   UNL     1      54.566   7.060   6.396  0.00  0.00    +0.000 NA
ATOM     18  C   UNL     1      54.373   8.253   5.943  0.00  0.00    +0.000 A 
ATOM     19  N   UNL     1      53.724   9.252   6.621  0.00  0.00    +0.000 N 
ATOM     20  C   UNL     1      53.164   9.067   7.865  0.00  0.00    +0.000 A 
ATOM     21  O   UNL     1      52.491   9.945   8.399  0.00  0.00    +0.000 OA
ATOM     22  C   UNL     1      53.407   7.760   8.446  0.00  0.00    +0.000 A 
ATOM     23  H   UNL     1      53.577  10.151   6.191  0.00  0.00    +0.000 HD
ENDBRANCH  10  13
ENDBRANCH   7   9
ENDBRANCH   4   7
BRANCH   1  24
ATOM     24  C   UNL     1      45.771   5.751  13.237  0.00  0.00    +0.000 C 
BRANCH  24  25
ATOM     25  N   UNL     1      45.717   4.519  12.448  0.00  0.00    +0.000 NA
ATOM     26  H   UNL     1      45.744   3.718  13.078  0.00  0.00    +0.000 HD
BRANCH  25  27
ATOM     27  C   UNL     1      44.518   4.406  11.597  0.00  0.00    +0.000 C 
BRANCH  27  28
ATOM     28  C   UNL     1      44.945   3.910  10.211  0.00  0.00    +0.000 A 
ATOM     29  C   UNL     1      45.492   4.790   9.273  0.00  0.00    +0.000 A 
ATOM     30  C   UNL     1      45.934   4.292   8.050  0.00  0.00    +0.000 A 
ATOM     31  C   UNL     1      45.832   2.933   7.792  0.00  0.00    +0.000 A 
ATOM     32  C   UNL     1      45.283   2.123   8.773  0.00  0.00    +0.000 A 
ATOM     33  N   UNL     1      44.839   2.577   9.969  0.00  0.00    +0.000 NA
ENDBRANCH  27  28
BRANCH  27  35
ATOM     34  C   UNL     1      42.247   5.604  11.785  0.00  0.00    +0.000 C 
ATOM     35  C   UNL     1      43.740   5.741  11.530  0.00  0.00    +0.000 C 
ENDBRANCH  27  35
ENDBRANCH  25  27
ENDBRANCH  24  25
ENDBRANCH   1  24
TORSDOF 8
ENDMDL
MODEL 7
REMARK VINA RESULT:    -6.636      3.026      3.574
REMARK INTER + INTRA:         -10.688
REMARK INTER:                  -9.530
REMARK INTRA:                  -1.158
REMARK UNBOUND:                -0.949
REMARK  Name = 
REMARK  10 active torsions:
REMARK  status: ('A' for Active; 'I' for Inactive)
REMARK    1  A    between atoms: C_1  and  C_2
REMARK    2  A    between atoms: C_2  and  C_3
REMARK    3  A    between atoms: C_3  and  N_4
REMARK    4  A    between atoms: C_3  and  C_27
REMARK    5  A    between atoms: N_4  and  C_5
REMARK    6  A    between atoms: C_5  and  C_6
REMARK    7  A    between atoms: C_9  and  C_10
REMARK    8  A    between atoms: C_10  and  C_11
REMARK    9  A    between atoms: C_10  and  N_12
REMARK   10  A    between atoms: C_13  and  C_15
REMARK                            x       y       z     vdW  Elec       q    Type
REMARK                         _______ _______ _______ _____ _____    ______ ____
ROOT
ATOM      1  C   UNL     1      45.225   6.663  11.638  0.00  0.00    +0.000 A 
ATOM      2  C   UNL     1      46.464   6.379  11.072  0.00  0.00    +0.000 A 
ATOM      3  C   UNL     1      47.603   6.935  11.646  0.00  0.00    +0.000 A 
ATOM      4  C   UNL     1      47.487   7.763  12.767  0.00  0.00    +0.000 A 
ATOM      5  C   UNL     1      46.210   7.978  13.269  0.00  0.00    +0.000 A 
ATOM      6  N   UNL     1      45.090   7.448  12.737  0.00  0.00    +0.000 NA
ENDROOT
BRANCH   4   7
ATOM      7  C   UNL     1      48.677   8.426  13.413  0.00  0.00    +0.000 C 
ATOM      8  C   UNL     1      49.856   8.491  12.443  0.00  0.00    +0.000 C 
BRANCH   7   9
ATOM      9  N   UNL     1      49.046   7.730  14.631  0.00  0.00    +0.000 N 
ATOM     10  C   UNL     1      48.922   8.306  15.868  0.00  0.00    +0.000 C 
ATOM     11  O   UNL     1      48.438   9.425  16.022  0.00  0.00    +0.000 OA
ATOM     12  H   UNL     1      49.572   6.869  14.536  0.00  0.00    +0.000 HD
BRANCH  10  13
ATOM     13  C   UNL     1      49.354   7.502  17.015  0.00  0.00    +0.000 A 
ATOM     14  C   UNL     1      48.467   7.269  18.056  0.00  0.00    +0.000 A 
ATOM     15  S   UNL     1      49.127   6.347  19.327  0.00  0.00    +0.000 S 
ATOM     16  C   UNL     1      50.637   6.256  18.547  0.00  0.00    +0.000 A 
ATOM     17  N   UNL     1      51.690   5.632  19.140  0.00  0.00    +0.000 NA
ATOM     18  C   UNL     1      52.783   5.667  18.455  0.00  0.00    +0.000 A 
ATOM     19  N   UNL     1      52.915   6.250  17.222  0.00  0.00    +0.000 N 
ATOM     20  C   UNL     1      51.862   6.835  16.556  0.00  0.00    +0.000 A 
ATOM     21  O   UNL     1      51.983   7.249  15.406  0.00  0.00    +0.000 OA
ATOM     22  C   UNL     1      50.623   6.878  17.311  0.00  0.00    +0.000 A 
ATOM     23  H   UNL     1      53.792   6.208  16.726  0.00  0.00    +0.000 HD
ENDBRANCH  10  13
ENDBRANCH   7   9
ENDBRANCH   4   7
BRANCH   1  24
ATOM     24  C   UNL     1      43.964   6.041  11.068  0.00  0.00    +0.000 C 
BRANCH  24  25
ATOM     25  N   UNL     1      44.240   5.193   9.908  0.00  0.00    +0.000 NA
ATOM     26  H   UNL     1      44.929   5.654   9.315  0.00  0.00    +0.000 HD
BRANCH  25  27
ATOM     27  C   UNL     1      44.741   3.850  10.255  0.00  0.00    +0.000 C 
BRANCH  27  28
ATOM     28  C   UNL     1      45.429   3.250   9.024  0.00  0.00    +0.000 A 
ATOM     29  C   UNL     1      45.902   4.071   7.996  0.00  0.00    +0.000 A 
ATOM     30  C   UNL     1      46.585   3.498   6.926  0.00  0.00    +0.000 A 
ATOM     31  C   UNL     1      46.792   2.127   6.908  0.00  0.00    +0.000 A 
ATOM     32  C   UNL     1      46.299   1.379   7.965  0.00  0.00    +0.000 A 
ATOM     33  N   UNL     1      45.626   1.906   9.016  0.00  0.00    +0.000 NA
ENDBRANCH  27  28
BRANCH  27  35
ATOM     34  C   UNL     1      43.676   2.702  12.298  0.00  0.00    +0.000 C 
ATOM     35  C   UNL     1      43.612   2.944  10.797  0.00  0.00    +0.000 C 
ENDBRANCH  27  35
ENDBRANCH  25  27
ENDBRANCH  24  25
ENDBRANCH   1  24
TORSDOF 8
ENDMDL
MODEL 8
REMARK VINA RESULT:    -6.372      3.747      8.756
REMARK INTER + INTRA:         -10.301
REMARK INTER:                  -9.739
REMARK INTRA:                  -0.562
REMARK UNBOUND:                -0.949
REMARK  Name = 
REMARK  10 active torsions:
REMARK  status: ('A' for Active; 'I' for Inactive)
REMARK    1  A    between atoms: C_1  and  C_2
REMARK    2  A    between atoms: C_2  and  C_3
REMARK    3  A    between atoms: C_3  and  N_4
REMARK    4  A    between atoms: C_3  and  C_27
REMARK    5  A    between atoms: N_4  and  C_5
REMARK    6  A    between atoms: C_5  and  C_6
REMARK    7  A    between atoms: C_9  and  C_10
REMARK    8  A    between atoms: C_10  and  C_11
REMARK    9  A    between atoms: C_10  and  N_12
REMARK   10  A    between atoms: C_13  and  C_15
REMARK                            x       y       z     vdW  Elec       q    Type
REMARK                         _______ _______ _______ _____ _____    ______ ____
ROOT
ATOM      1  C   UNL     1      49.150   7.892  16.032  0.00  0.00    +0.000 A 
ATOM      2  C   UNL     1      49.239   9.070  15.300  0.00  0.00    +0.000 A 
ATOM      3  C   UNL     1      48.838   9.062  13.968  0.00  0.00    +0.000 A 
ATOM      4  C   UNL     1      48.359   7.881  13.392  0.00  0.00    +0.000 A 
ATOM      5  C   UNL     1      48.294   6.757  14.204  0.00  0.00    +0.000 A 
ATOM      6  N   UNL     1      48.670   6.739  15.499  0.00  0.00    +0.000 NA
ENDROOT
BRANCH   4   7
ATOM      7  C   UNL     1      47.943   7.794  11.944  0.00  0.00    +0.000 C 
ATOM      8  C   UNL     1      47.219   9.068  11.509  0.00  0.00    +0.000 C 
BRANCH   7   9
ATOM      9  N   UNL     1      47.113   6.626  11.724  0.00  0.00    +0.000 N 
ATOM     10  C   UNL     1      45.746   6.674  11.806  0.00  0.00    +0.000 C 
ATOM     11  O   UNL     1      45.142   7.724  12.015  0.00  0.00    +0.000 OA
ATOM     12  H   UNL     1      47.575   5.724  11.686  0.00  0.00    +0.000 HD
BRANCH  10  13
ATOM     13  C   UNL     1      45.028   5.416  11.585  0.00  0.00    +0.000 A 
ATOM     14  C   UNL     1      44.248   4.889  12.604  0.00  0.00    +0.000 A 
ATOM     15  S   UNL     1      43.506   3.408  12.204  0.00  0.00    +0.000 S 
ATOM     16  C   UNL     1      44.231   3.400  10.665  0.00  0.00    +0.000 A 
ATOM     17  N   UNL     1      44.044   2.356   9.814  0.00  0.00    +0.000 NA
ATOM     18  C   UNL     1      44.679   2.462   8.695  0.00  0.00    +0.000 A 
ATOM     19  N   UNL     1      45.467   3.525   8.340  0.00  0.00    +0.000 N 
ATOM     20  C   UNL     1      45.633   4.632   9.143  0.00  0.00    +0.000 A 
ATOM     21  O   UNL     1      46.252   5.617   8.752  0.00  0.00    +0.000 OA
ATOM     22  C   UNL     1      44.989   4.535  10.440  0.00  0.00    +0.000 A 
ATOM     23  H   UNL     1      45.905   3.559   7.433  0.00  0.00    +0.000 HD
ENDBRANCH  10  13
ENDBRANCH   7   9
ENDBRANCH   4   7
BRANCH   1  24
ATOM     24  C   UNL     1      49.537   7.872  17.499  0.00  0.00    +0.000 C 
BRANCH  24  25
ATOM     25  N   UNL     1      48.400   7.565  18.367  0.00  0.00    +0.000 NA
ATOM     26  H   UNL     1      47.593   7.329  17.790  0.00  0.00    +0.000 HD
BRANCH  25  27
ATOM     27  C   UNL     1      48.647   6.454  19.305  0.00  0.00    +0.000 C 
BRANCH  27  28
ATOM     28  C   UNL     1      48.548   5.131  18.537  0.00  0.00    +0.000 A 
ATOM     29  C   UNL     1      47.320   4.680  18.044  0.00  0.00    +0.000 A 
ATOM     30  C   UNL     1      47.278   3.510  17.290  0.00  0.00    +0.000 A 
ATOM     31  C   UNL     1      48.455   2.824  17.034  0.00  0.00    +0.000 A 
ATOM     32  C   UNL     1      49.634   3.336  17.551  0.00  0.00    +0.000 A 
ATOM     33  N   UNL     1      49.707   4.466  18.292  0.00  0.00    +0.000 NA
ENDBRANCH  27  28
BRANCH  27  35
ATOM     34  C   UNL     1      47.543   7.884  21.139  0.00  0.00    +0.000 C 
ATOM     35  C   UNL     1      47.685   6.505  20.515  0.00  0.00    +0.000 C 
ENDBRANCH  27  35
ENDBRANCH  25  27
ENDBRANCH  24  25
ENDBRANCH   1  24
TORSDOF 8
ENDMDL
MODEL 9
REMARK VINA RESULT:    -6.323      2.409      2.974
REMARK INTER + INTRA:         -10.228
REMARK INTER:                  -9.139
REMARK INTRA:                  -1.089
REMARK UNBOUND:                -0.949
REMARK  Name = 
REMARK  10 active torsions:
REMARK  status: ('A' for Active; 'I' for Inactive)
REMARK    1  A    between atoms: C_1  and  C_2
REMARK    2  A    between atoms: C_2  and  C_3
REMARK    3  A    between atoms: C_3  and  N_4
REMARK    4  A    between atoms: C_3  and  C_27
REMARK    5  A    between atoms: N_4  and  C_5
REMARK    6  A    between atoms: C_5  and  C_6
REMARK    7  A    between atoms: C_9  and  C_10
REMARK    8  A    between atoms: C_10  and  C_11
REMARK    9  A    between atoms: C_10  and  N_12
REMARK   10  A    between atoms: C_13  and  C_15
REMARK                            x       y       z     vdW  Elec       q    Type
REMARK                         _______ _______ _______ _____ _____    ______ ____
ROOT
ATOM      1  C   UNL     1      46.823   7.191  12.422  0.00  0.00    +0.000 A 
ATOM      2  C   UNL     1      46.933   8.568  12.581  0.00  0.00    +0.000 A 
ATOM      3  C   UNL     1      48.171   9.105  12.916  0.00  0.00    +0.000 A 
ATOM      4  C   UNL     1      49.274   8.262  13.089  0.00  0.00    +0.000 A 
ATOM      5  C   UNL     1      49.072   6.902  12.896  0.00  0.00    +0.000 A 
ATOM      6  N   UNL     1      47.884   6.356  12.565  0.00  0.00    +0.000 NA
ENDROOT
BRANCH   4   7
ATOM      7  C   UNL     1      50.635   8.776  13.489  0.00  0.00    +0.000 C 
ATOM      8  C   UNL     1      51.468   9.123  12.256  0.00  0.00    +0.000 C 
BRANCH   7   9
ATOM      9  N   UNL     1      51.319   7.806  14.320  0.00  0.00    +0.000 N 
ATOM     10  C   UNL     1      51.312   7.881  15.688  0.00  0.00    +0.000 C 
ATOM     11  O   UNL     1      50.678   8.743  16.291  0.00  0.00    +0.000 OA
ATOM     12  H   UNL     1      51.960   7.167  13.862  0.00  0.00    +0.000 HD
BRANCH  10  13
ATOM     13  C   UNL     1      52.064   6.849  16.408  0.00  0.00    +0.000 A 
ATOM     14  C   UNL     1      53.426   7.017  16.614  0.00  0.00    +0.000 A 
ATOM     15  S   UNL     1      54.162   5.719  17.435  0.00  0.00    +0.000 S 
ATOM     16  C   UNL     1      52.691   4.866  17.513  0.00  0.00    +0.000 A 
ATOM     17  N   UNL     1      52.637   3.622  18.060  0.00  0.00    +0.000 NA
ATOM     18  C   UNL     1      51.468   3.075  18.023  0.00  0.00    +0.000 A 
ATOM     19  N   UNL     1      50.344   3.666  17.507  0.00  0.00    +0.000 N 
ATOM     20  C   UNL     1      50.339   4.947  17.002  0.00  0.00    +0.000 A 
ATOM     21  O   UNL     1      49.296   5.492  16.652  0.00  0.00    +0.000 OA
ATOM     22  C   UNL     1      51.643   5.583  16.964  0.00  0.00    +0.000 A 
ATOM     23  H   UNL     1      49.454   3.194  17.544  0.00  0.00    +0.000 HD
ENDBRANCH  10  13
ENDBRANCH   7   9
ENDBRANCH   4   7
BRANCH   1  24
ATOM     24  C   UNL     1      45.501   6.571  12.014  0.00  0.00    +0.000 C 
BRANCH  24  25
ATOM     25  N   UNL     1      45.575   5.112  11.928  0.00  0.00    +0.000 NA
ATOM     26  H   UNL     1      45.535   4.721  12.868  0.00  0.00    +0.000 HD
BRANCH  25  27
ATOM     27  C   UNL     1      44.499   4.506  11.122  0.00  0.00    +0.000 C 
BRANCH  27  28
ATOM     28  C   UNL     1      45.117   3.894   9.859  0.00  0.00    +0.000 A 
ATOM     29  C   UNL     1      45.121   2.510   9.663  0.00  0.00    +0.000 A 
ATOM     30  C   UNL     1      45.626   1.993   8.473  0.00  0.00    +0.000 A 
ATOM     31  C   UNL     1      46.105   2.861   7.504  0.00  0.00    +0.000 A 
ATOM     32  C   UNL     1      46.063   4.220   7.768  0.00  0.00    +0.000 A 
ATOM     33  N   UNL     1      45.584   4.754   8.917  0.00  0.00    +0.000 NA
ENDBRANCH  27  28
BRANCH  27  35
ATOM     34  C   UNL     1      42.233   5.532  11.787  0.00  0.00    +0.000 C 
ATOM     35  C   UNL     1      43.386   5.529  10.795  0.00  0.00    +0.000 C 
ENDBRANCH  27  35
ENDBRANCH  25  27
ENDBRANCH  24  25
ENDBRANCH   1  24
TORSDOF 8
ENDMDL
