MODEL 1
REMARK VINA RESULT:    -7.282      0.000      0.000
REMARK INTER + INTRA:         -10.982
REMARK INTER:                  -9.836
REMARK INTRA:                  -1.146
REMARK UNBOUND:                -1.146
REMARK  Name = 
REMARK  6 active torsions:
REMARK  status: ('A' for Active; 'I' for Inactive)
REMARK    1  A    between atoms: C_2  and  C_3
REMARK    2  A    between atoms: N_10  and  C_11
REMARK    3  A    between atoms: C_11  and  C_12
REMARK    4  A    between atoms: C_15  and  C_16
REMARK    5  A    between atoms: C_16  and  N_17
REMARK    6  A    between atoms: C_18  and  C_20
REMARK                            x       y       z     vdW  Elec       q    Type
REMARK                         _______ _______ _______ _____ _____    ______ ____
ROOT
ATOM      1  C   UNL     1      49.379   6.264  17.649  0.00  0.00    +0.000 A 
ATOM      2  C   UNL     1      49.531   7.653  17.526  0.00  0.00    +0.000 A 
ATOM      3  C   UNL     1      49.109   8.320  16.368  0.00  0.00    +0.000 A 
ATOM      4  C   UNL     1      48.509   7.613  15.317  0.00  0.00    +0.000 A 
ATOM      5  C   UNL     1      48.375   6.224  15.433  0.00  0.00    +0.000 A 
ATOM      6  C   UNL     1      48.794   5.558  16.591  0.00  0.00    +0.000 A 
ENDROOT
BRANCH   1   7
ATOM      7  C   UNL     1      49.865   5.536  18.874  0.00  0.00    +0.000 C 
BRANCH   7  15
ATOM      8  C   UNL     1      51.794   1.782  17.565  0.00  0.00    +0.000 A 
ATOM      9  C   UNL     1      52.681   0.732  17.719  0.00  0.00    +0.000 A 
ATOM     10  C   UNL     1      53.804   1.218  18.419  0.00  0.00    +0.000 A 
ATOM     11  C   UNL     1      53.589   2.559  18.635  0.00  0.00    +0.000 A 
ATOM     12  N   UNL     1      52.330   2.909  18.165  0.00  0.00    +0.000 N 
ATOM     13  C   UNL     1      51.801   4.211  18.255  0.00  0.00    +0.000 C 
ATOM     14  O   UNL     1      52.555   5.169  18.166  0.00  0.00    +0.000 OA
ATOM     15  N   UNL     1      50.462   4.244  18.575  0.00  0.00    +0.000 N 
ATOM     16  H   UNL     1      49.958   3.412  18.858  0.00  0.00    +0.000 HD
BRANCH   8  18
ATOM     17  N   UNL     1      49.605   1.747  16.200  0.00  0.00    +0.000 NA
ATOM     18  C   UNL     1      50.587   1.760  16.815  0.00  0.00    +0.000 C 
ENDBRANCH   8  18
ENDBRANCH   7  15
ENDBRANCH   1   7
BRANCH   4  19
ATOM     19  C   UNL     1      48.027   8.324  14.077  0.00  0.00    +0.000 C 
BRANCH  19  20
ATOM     20  N   UNL     1      46.767   7.804  13.608  0.00  0.00    +0.000 N 
ATOM     21  C   UNL     1      46.710   7.016  12.485  0.00  0.00    +0.000 C 
ATOM     22  O   UNL     1      47.685   6.839  11.759  0.00  0.00    +0.000 OA
ATOM     23  H   UNL     1      45.992   7.804  14.266  0.00  0.00    +0.000 HD
BRANCH  21  24
ATOM     24  C   UNL     1      45.418   6.395  12.184  0.00  0.00    +0.000 A 
ATOM     25  C   UNL     1      44.383   7.163  11.660  0.00  0.00    +0.000 A 
ATOM     26  S   UNL     1      42.983   6.264  11.281  0.00  0.00    +0.000 S 
ATOM     27  C   UNL     1      43.732   4.807  11.740  0.00  0.00    +0.000 A 
ATOM     28  N   UNL     1      43.118   3.609  11.544  0.00  0.00    +0.000 NA
ATOM     29  C   UNL     1      43.810   2.586  11.923  0.00  0.00    +0.000 A 
ATOM     30  N   UNL     1      45.042   2.657  12.516  0.00  0.00    +0.000 N 
ATOM     31  C   UNL     1      45.680   3.845  12.778  0.00  0.00    +0.000 A 
ATOM     32  O   UNL     1      46.734   3.880  13.406  0.00  0.00    +0.000 OA
ATOM     33  C   UNL     1      44.986   5.020  12.286  0.00  0.00    +0.000 A 
ATOM     34  H   UNL     1      45.505   1.823  12.844  0.00  0.00    +0.000 HD
ENDBRANCH  21  24
ENDBRANCH  19  20
ENDBRANCH   4  19
TORSDOF 6
ENDMDL
MODEL 2
REMARK VINA RESULT:    -7.121      4.096      8.915
REMARK INTER + INTRA:         -10.764
REMARK INTER:                  -9.788
REMARK INTRA:                  -0.976
REMARK UNBOUND:                -1.146
REMARK  Name = 
REMARK  6 active torsions:
REMARK  status: ('A' for Active; 'I' for Inactive)
REMARK    1  A    between atoms: C_2  and  C_3
REMARK    2  A    between atoms: N_10  and  C_11
REMARK    3  A    between atoms: C_11  and  C_12
REMARK    4  A    between atoms: C_15  and  C_16
REMARK    5  A    between atoms: C_16  and  N_17
REMARK    6  A    between atoms: C_18  and  C_20
REMARK                            x       y       z     vdW  Elec       q    Type
REMARK                         _______ _______ _______ _____ _____    ______ ____
ROOT
ATOM      1  C   UNL     1      45.305   4.083  11.174  0.00  0.00    +0.000 A 
ATOM      2  C   UNL     1      45.659   3.908  12.521  0.00  0.00    +0.000 A 
ATOM      3  C   UNL     1      46.213   4.964  13.258  0.00  0.00    +0.000 A 
ATOM      4  C   UNL     1      46.405   6.221  12.670  0.00  0.00    +0.000 A 
ATOM      5  C   UNL     1      46.069   6.388  11.320  0.00  0.00    +0.000 A 
ATOM      6  C   UNL     1      45.515   5.335  10.584  0.00  0.00    +0.000 A 
ENDROOT
BRANCH   1   7
ATOM      7  C   UNL     1      44.747   2.943  10.366  0.00  0.00    +0.000 C 
BRANCH   7  15
ATOM      8  C   UNL     1      46.969   1.592   6.792  0.00  0.00    +0.000 A 
ATOM      9  C   UNL     1      47.813   1.795   5.715  0.00  0.00    +0.000 A 
ATOM     10  C   UNL     1      47.612   3.112   5.253  0.00  0.00    +0.000 A 
ATOM     11  C   UNL     1      46.623   3.661   6.035  0.00  0.00    +0.000 A 
ATOM     12  N   UNL     1      46.257   2.757   7.023  0.00  0.00    +0.000 N 
ATOM     13  C   UNL     1      45.278   3.028   7.999  0.00  0.00    +0.000 C 
ATOM     14  O   UNL     1      44.320   3.728   7.706  0.00  0.00    +0.000 OA
ATOM     15  N   UNL     1      45.600   2.556   9.253  0.00  0.00    +0.000 N 
ATOM     16  H   UNL     1      46.518   2.184   9.465  0.00  0.00    +0.000 HD
BRANCH   8  18
ATOM     17  N   UNL     1      46.601  -0.632   8.045  0.00  0.00    +0.000 NA
ATOM     18  C   UNL     1      46.763   0.367   7.481  0.00  0.00    +0.000 C 
ENDBRANCH   8  18
ENDBRANCH   7  15
ENDBRANCH   1   7
BRANCH   4  19
ATOM     19  C   UNL     1      46.975   7.372  13.461  0.00  0.00    +0.000 C 
BRANCH  19  20
ATOM     20  N   UNL     1      47.587   6.935  14.691  0.00  0.00    +0.000 N 
ATOM     21  C   UNL     1      48.955   6.893  14.816  0.00  0.00    +0.000 C 
ATOM     22  O   UNL     1      49.705   7.083  13.862  0.00  0.00    +0.000 OA
ATOM     23  H   UNL     1      47.003   6.927  15.523  0.00  0.00    +0.000 HD
BRANCH  21  24
ATOM     24  C   UNL     1      49.483   6.602  16.150  0.00  0.00    +0.000 A 
ATOM     25  C   UNL     1      50.377   7.484  16.751  0.00  0.00    +0.000 A 
ATOM     26  S   UNL     1      50.817   7.040  18.339  0.00  0.00    +0.000 S 
ATOM     27  C   UNL     1      49.780   5.692  18.305  0.00  0.00    +0.000 A 
ATOM     28  N   UNL     1      49.577   4.933  19.416  0.00  0.00    +0.000 NA
ATOM     29  C   UNL     1      48.751   3.954  19.250  0.00  0.00    +0.000 A 
ATOM     30  N   UNL     1      48.142   3.643  18.064  0.00  0.00    +0.000 N 
ATOM     31  C   UNL     1      48.353   4.350  16.905  0.00  0.00    +0.000 A 
ATOM     32  O   UNL     1      47.875   3.982  15.836  0.00  0.00    +0.000 OA
ATOM     33  C   UNL     1      49.200   5.517  17.061  0.00  0.00    +0.000 A 
ATOM     34  H   UNL     1      47.553   2.827  17.986  0.00  0.00    +0.000 HD
ENDBRANCH  21  24
ENDBRANCH  19  20
ENDBRANCH   4  19
TORSDOF 6
ENDMDL
MODEL 3
REMARK VINA RESULT:    -7.021      3.371      9.430
REMARK INTER + INTRA:         -10.629
REMARK INTER:                  -9.681
REMARK INTRA:                  -0.948
REMARK UNBOUND:                -1.146
REMARK  Name = 
REMARK  6 active torsions:
REMARK  status: ('A' for Active; 'I' for Inactive)
REMARK    1  A    between atoms: C_2  and  C_3
REMARK    2  A    between atoms: N_10  and  C_11
REMARK    3  A    between atoms: C_11  and  C_12
REMARK    4  A    between atoms: C_15  and  C_16
REMARK    5  A    between atoms: C_16  and  N_17
REMARK    6  A    between atoms: C_18  and  C_20
REMARK                            x       y       z     vdW  Elec       q    Type
REMARK                         _______ _______ _______ _____ _____    ______ ____
ROOT
ATOM      1  C   UNL     1      47.118   5.670  14.205  0.00  0.00    +0.000 A 
ATOM      2  C   UNL     1      46.760   4.423  14.741  0.00  0.00    +0.000 A 
ATOM      3  C   UNL     1      47.384   3.935  15.897  0.00  0.00    +0.000 A 
ATOM      4  C   UNL     1      48.365   4.692  16.552  0.00  0.00    +0.000 A 
ATOM      5  C   UNL     1      48.734   5.927  16.005  0.00  0.00    +0.000 A 
ATOM      6  C   UNL     1      48.109   6.416  14.852  0.00  0.00    +0.000 A 
ENDROOT
BRANCH   1   7
ATOM      7  C   UNL     1      46.479   6.182  12.943  0.00  0.00    +0.000 C 
BRANCH   7  15
ATOM      8  C   UNL     1      44.538   3.188  10.335  0.00  0.00    +0.000 A 
ATOM      9  C   UNL     1      44.463   2.411   9.194  0.00  0.00    +0.000 A 
ATOM     10  C   UNL     1      45.056   3.135   8.140  0.00  0.00    +0.000 A 
ATOM     11  C   UNL     1      45.439   4.350   8.659  0.00  0.00    +0.000 A 
ATOM     12  N   UNL     1      45.178   4.375  10.022  0.00  0.00    +0.000 N 
ATOM     13  C   UNL     1      45.475   5.476  10.850  0.00  0.00    +0.000 C 
ATOM     14  O   UNL     1      45.389   6.606  10.393  0.00  0.00    +0.000 OA
ATOM     15  N   UNL     1      45.970   5.123  12.086  0.00  0.00    +0.000 N 
ATOM     16  H   UNL     1      46.227   4.168  12.307  0.00  0.00    +0.000 HD
BRANCH   8  18
ATOM     17  N   UNL     1      43.478   2.642  12.623  0.00  0.00    +0.000 NA
ATOM     18  C   UNL     1      43.956   2.890  11.596  0.00  0.00    +0.000 C 
ENDBRANCH   8  18
ENDBRANCH   7  15
ENDBRANCH   1   7
BRANCH   4  19
ATOM     19  C   UNL     1      49.024   4.189  17.812  0.00  0.00    +0.000 C 
BRANCH  19  20
ATOM     20  N   UNL     1      50.404   3.832  17.597  0.00  0.00    +0.000 N 
ATOM     21  C   UNL     1      51.347   4.072  18.566  0.00  0.00    +0.000 C 
ATOM     22  O   UNL     1      51.095   4.719  19.579  0.00  0.00    +0.000 OA
ATOM     23  H   UNL     1      50.601   3.167  16.854  0.00  0.00    +0.000 HD
BRANCH  21  24
ATOM     24  C   UNL     1      52.684   3.523  18.331  0.00  0.00    +0.000 A 
ATOM     25  C   UNL     1      53.806   4.331  18.491  0.00  0.00    +0.000 A 
ATOM     26  S   UNL     1      55.284   3.507  18.269  0.00  0.00    +0.000 S 
ATOM     27  C   UNL     1      54.482   2.028  18.017  0.00  0.00    +0.000 A 
ATOM     28  N   UNL     1      55.175   0.864  17.892  0.00  0.00    +0.000 NA
ATOM     29  C   UNL     1      54.436  -0.182  17.723  0.00  0.00    +0.000 A 
ATOM     30  N   UNL     1      53.071  -0.162  17.629  0.00  0.00    +0.000 N 
ATOM     31  C   UNL     1      52.331   0.993  17.700  0.00  0.00    +0.000 A 
ATOM     32  O   UNL     1      51.119   0.989  17.505  0.00  0.00    +0.000 OA
ATOM     33  C   UNL     1      53.107   2.185  17.984  0.00  0.00    +0.000 A 
ATOM     34  H   UNL     1      52.556  -1.008  17.436  0.00  0.00    +0.000 HD
ENDBRANCH  21  24
ENDBRANCH  19  20
ENDBRANCH   4  19
TORSDOF 6
ENDMDL
MODEL 4
REMARK VINA RESULT:    -6.718      5.645      6.483
REMARK INTER + INTRA:         -10.219
REMARK INTER:                  -9.214
REMARK INTRA:                  -1.005
REMARK UNBOUND:                -1.146
REMARK  Name = 
REMARK  6 active torsions:
REMARK  status: ('A' for Active; 'I' for Inactive)
REMARK    1  A    between atoms: C_2  and  C_3
REMARK    2  A    between atoms: N_10  and  C_11
REMARK    3  A    between atoms: C_11  and  C_12
REMARK    4  A    between atoms: C_15  and  C_16
REMARK    5  A    between atoms: C_16  and  N_17
REMARK    6  A    between atoms: C_18  and  C_20
REMARK                            x       y       z     vdW  Elec       q    Type
REMARK                         _______ _______ _______ _____ _____    ______ ____
ROOT
ATOM      1  C   UNL     1      50.116   9.119  11.298  0.00  0.00    +0.000 A 
ATOM      2  C   UNL     1      49.209  10.171  11.495  0.00  0.00    +0.000 A 
ATOM      3  C   UNL     1      47.897   9.915  11.918  0.00  0.00    +0.000 A 
ATOM      4  C   UNL     1      47.472   8.604  12.170  0.00  0.00    +0.000 A 
ATOM      5  C   UNL     1      48.373   7.554  11.954  0.00  0.00    +0.000 A 
ATOM      6  C   UNL     1      49.683   7.809  11.533  0.00  0.00    +0.000 A 
ENDROOT
BRANCH   1   7
ATOM      7  C   UNL     1      51.514   9.383  10.807  0.00  0.00    +0.000 C 
BRANCH   7  15
ATOM      8  C   UNL     1      53.745   6.095   8.871  0.00  0.00    +0.000 A 
ATOM      9  C   UNL     1      54.454   4.908   8.889  0.00  0.00    +0.000 A 
ATOM     10  C   UNL     1      55.168   4.852  10.104  0.00  0.00    +0.000 A 
ATOM     11  C   UNL     1      54.907   6.025  10.772  0.00  0.00    +0.000 A 
ATOM     12  N   UNL     1      53.988   6.776  10.052  0.00  0.00    +0.000 N 
ATOM     13  C   UNL     1      53.499   8.025  10.481  0.00  0.00    +0.000 C 
ATOM     14  O   UNL     1      54.235   8.770  11.111  0.00  0.00    +0.000 OA
ATOM     15  N   UNL     1      52.155   8.207  10.238  0.00  0.00    +0.000 N 
ATOM     16  H   UNL     1      51.562   7.452   9.916  0.00  0.00    +0.000 HD
BRANCH   8  18
ATOM     17  N   UNL     1      52.369   7.017   6.894  0.00  0.00    +0.000 NA
ATOM     18  C   UNL     1      52.987   6.606   7.783  0.00  0.00    +0.000 C 
ENDBRANCH   8  18
ENDBRANCH   7  15
ENDBRANCH   1   7
BRANCH   4  19
ATOM     19  C   UNL     1      46.071   8.320  12.650  0.00  0.00    +0.000 C 
BRANCH  19  20
ATOM     20  N   UNL     1      45.707   6.936  12.475  0.00  0.00    +0.000 N 
ATOM     21  C   UNL     1      44.612   6.591  11.721  0.00  0.00    +0.000 C 
ATOM     22  O   UNL     1      43.823   7.428  11.291  0.00  0.00    +0.000 OA
ATOM     23  H   UNL     1      46.417   6.240  12.682  0.00  0.00    +0.000 HD
BRANCH  21  24
ATOM     24  C   UNL     1      44.420   5.163  11.458  0.00  0.00    +0.000 A 
ATOM     25  C   UNL     1      43.695   4.383  12.353  0.00  0.00    +0.000 A 
ATOM     26  S   UNL     1      43.489   2.766  11.846  0.00  0.00    +0.000 S 
ATOM     27  C   UNL     1      44.303   3.068  10.383  0.00  0.00    +0.000 A 
ATOM     28  N   UNL     1      44.372   2.120   9.409  0.00  0.00    +0.000 NA
ATOM     29  C   UNL     1      45.004   2.492   8.346  0.00  0.00    +0.000 A 
ATOM     30  N   UNL     1      45.606   3.712   8.186  0.00  0.00    +0.000 N 
ATOM     31  C   UNL     1      45.605   4.681   9.158  0.00  0.00    +0.000 A 
ATOM     32  O   UNL     1      46.243   5.722   9.026  0.00  0.00    +0.000 OA
ATOM     33  C   UNL     1      44.826   4.348  10.336  0.00  0.00    +0.000 A 
ATOM     34  H   UNL     1      46.137   3.919   7.353  0.00  0.00    +0.000 HD
ENDBRANCH  21  24
ENDBRANCH  19  20
ENDBRANCH   4  19
TORSDOF 6
ENDMDL
MODEL 5
REMARK VINA RESULT:    -6.612      3.085      8.494
REMARK INTER + INTRA:         -10.077
REMARK INTER:                  -8.895
REMARK INTRA:                  -1.182
REMARK UNBOUND:                -1.146
REMARK  Name = 
REMARK  6 active torsions:
REMARK  status: ('A' for Active; 'I' for Inactive)
REMARK    1  A    between atoms: C_2  and  C_3
REMARK    2  A    between atoms: N_10  and  C_11
REMARK    3  A    between atoms: C_11  and  C_12
REMARK    4  A    between atoms: C_15  and  C_16
REMARK    5  A    between atoms: C_16  and  N_17
REMARK    6  A    between atoms: C_18  and  C_20
REMARK                            x       y       z     vdW  Elec       q    Type
REMARK                         _______ _______ _______ _____ _____    ______ ____
ROOT
ATOM      1  C   UNL     1      48.686   7.611  13.532  0.00  0.00    +0.000 A 
ATOM      2  C   UNL     1      48.402   6.752  14.605  0.00  0.00    +0.000 A 
ATOM      3  C   UNL     1      49.114   6.850  15.808  0.00  0.00    +0.000 A 
ATOM      4  C   UNL     1      50.111   7.822  15.970  0.00  0.00    +0.000 A 
ATOM      5  C   UNL     1      50.406   8.666  14.892  0.00  0.00    +0.000 A 
ATOM      6  C   UNL     1      49.694   8.569  13.690  0.00  0.00    +0.000 A 
ENDROOT
BRANCH   1   7
ATOM      7  C   UNL     1      47.953   7.486  12.224  0.00  0.00    +0.000 C 
BRANCH   7  15
ATOM      8  C   UNL     1      45.286   3.964  12.378  0.00  0.00    +0.000 A 
ATOM      9  C   UNL     1      44.298   3.143  11.867  0.00  0.00    +0.000 A 
ATOM     10  C   UNL     1      43.405   3.950  11.133  0.00  0.00    +0.000 A 
ATOM     11  C   UNL     1      43.851   5.245  11.251  0.00  0.00    +0.000 A 
ATOM     12  N   UNL     1      45.040   5.264  11.967  0.00  0.00    +0.000 N 
ATOM     13  C   UNL     1      45.763   6.441  12.243  0.00  0.00    +0.000 C 
ATOM     14  O   UNL     1      45.155   7.485  12.428  0.00  0.00    +0.000 OA
ATOM     15  N   UNL     1      47.128   6.291  12.140  0.00  0.00    +0.000 N 
ATOM     16  H   UNL     1      47.547   5.450  11.760  0.00  0.00    +0.000 HD
BRANCH   8  18
ATOM     17  N   UNL     1      47.165   3.267  14.002  0.00  0.00    +0.000 NA
ATOM     18  C   UNL     1      46.319   3.581  13.274  0.00  0.00    +0.000 C 
ENDBRANCH   8  18
ENDBRANCH   7  15
ENDBRANCH   1   7
BRANCH   4  19
ATOM     19  C   UNL     1      50.865   7.954  17.269  0.00  0.00    +0.000 C 
BRANCH  19  20
ATOM     20  N   UNL     1      51.753   6.842  17.498  0.00  0.00    +0.000 N 
ATOM     21  C   UNL     1      51.470   5.908  18.465  0.00  0.00    +0.000 C 
ATOM     22  O   UNL     1      50.546   6.049  19.261  0.00  0.00    +0.000 OA
ATOM     23  H   UNL     1      52.420   6.622  16.763  0.00  0.00    +0.000 HD
BRANCH  21  24
ATOM     24  C   UNL     1      52.334   4.726  18.509  0.00  0.00    +0.000 A 
ATOM     25  C   UNL     1      53.600   4.812  19.080  0.00  0.00    +0.000 A 
ATOM     26  S   UNL     1      54.434   3.324  19.132  0.00  0.00    +0.000 S 
ATOM     27  C   UNL     1      53.108   2.499  18.456  0.00  0.00    +0.000 A 
ATOM     28  N   UNL     1      53.108   1.143  18.342  0.00  0.00    +0.000 NA
ATOM     29  C   UNL     1      52.030   0.652  17.827  0.00  0.00    +0.000 A 
ATOM     30  N   UNL     1      50.971   1.396  17.381  0.00  0.00    +0.000 N 
ATOM     31  C   UNL     1      50.947   2.768  17.429  0.00  0.00    +0.000 A 
ATOM     32  O   UNL     1      50.030   3.410  16.924  0.00  0.00    +0.000 OA
ATOM     33  C   UNL     1      52.094   3.366  18.086  0.00  0.00    +0.000 A 
ATOM     34  H   UNL     1      50.183   0.953  16.932  0.00  0.00    +0.000 HD
ENDBRANCH  21  24
ENDBRANCH  19  20
ENDBRANCH   4  19
TORSDOF 6
ENDMDL
MODEL 6
REMARK VINA RESULT:    -6.076      1.817      2.660
REMARK INTER + INTRA:          -9.353
REMARK INTER:                  -8.785
REMARK INTRA:                  -0.569
REMARK UNBOUND:                -1.146
REMARK  Name = 
REMARK  6 active torsions:
REMARK  status: ('A' for Active; 'I' for Inactive)
REMARK    1  A    between atoms: C_2  and  C_3
REMARK    2  A    between atoms: N_10  and  C_11
REMARK    3  A    between atoms: C_11  and  C_12
REMARK    4  A    between atoms: C_15  and  C_16
REMARK    5  A    between atoms: C_16  and  N_17
REMARK    6  A    between atoms: C_18  and  C_20
REMARK                            x       y       z     vdW  Elec       q    Type
REMARK                         _______ _______ _______ _____ _____    ______ ____
ROOT
ATOM      1  C   UNL     1      49.775   7.528  16.054  0.00  0.00    +0.000 A 
ATOM      2  C   UNL     1      49.040   6.503  15.439  0.00  0.00    +0.000 A 
ATOM      3  C   UNL     1      48.408   6.716  14.206  0.00  0.00    +0.000 A 
ATOM      4  C   UNL     1      48.515   7.952  13.554  0.00  0.00    +0.000 A 
ATOM      5  C   UNL     1      49.233   8.980  14.178  0.00  0.00    +0.000 A 
ATOM      6  C   UNL     1      49.866   8.767  15.409  0.00  0.00    +0.000 A 
ENDROOT
BRANCH   1   7
ATOM      7  C   UNL     1      50.423   7.318  17.396  0.00  0.00    +0.000 C 
BRANCH   7  15
ATOM      8  C   UNL     1      52.360   3.425  18.185  0.00  0.00    +0.000 A 
ATOM      9  C   UNL     1      52.584   2.085  17.929  0.00  0.00    +0.000 A 
ATOM     10  C   UNL     1      51.384   1.535  17.435  0.00  0.00    +0.000 A 
ATOM     11  C   UNL     1      50.451   2.545  17.444  0.00  0.00    +0.000 A 
ATOM     12  N   UNL     1      51.052   3.729  17.850  0.00  0.00    +0.000 N 
ATOM     13  C   UNL     1      50.366   4.955  17.945  0.00  0.00    +0.000 C 
ATOM     14  O   UNL     1      49.189   4.957  18.275  0.00  0.00    +0.000 OA
ATOM     15  N   UNL     1      51.101   6.037  17.512  0.00  0.00    +0.000 N 
ATOM     16  H   UNL     1      51.990   5.925  17.039  0.00  0.00    +0.000 HD
BRANCH   8  18
ATOM     17  N   UNL     1      54.004   5.064  19.310  0.00  0.00    +0.000 NA
ATOM     18  C   UNL     1      53.268   4.327  18.803  0.00  0.00    +0.000 C 
ENDBRANCH   8  18
ENDBRANCH   7  15
ENDBRANCH   1   7
BRANCH   4  19
ATOM     19  C   UNL     1      47.862   8.184  12.214  0.00  0.00    +0.000 C 
BRANCH  19  20
ATOM     20  N   UNL     1      47.212   6.999  11.714  0.00  0.00    +0.000 N 
ATOM     21  C   UNL     1      45.856   6.984  11.496  0.00  0.00    +0.000 C 
ATOM     22  O   UNL     1      45.127   7.908  11.844  0.00  0.00    +0.000 OA
ATOM     23  H   UNL     1      47.802   6.296  11.279  0.00  0.00    +0.000 HD
BRANCH  21  24
ATOM     24  C   UNL     1      45.312   5.799  10.828  0.00  0.00    +0.000 A 
ATOM     25  C   UNL     1      45.612   5.556   9.491  0.00  0.00    +0.000 A 
ATOM     26  S   UNL     1      44.976   4.087   8.900  0.00  0.00    +0.000 S 
ATOM     27  C   UNL     1      44.334   3.692  10.425  0.00  0.00    +0.000 A 
ATOM     28  N   UNL     1      43.758   2.480  10.653  0.00  0.00    +0.000 NA
ATOM     29  C   UNL     1      43.331   2.311  11.861  0.00  0.00    +0.000 A 
ATOM     30  N   UNL     1      43.393   3.258  12.847  0.00  0.00    +0.000 N 
ATOM     31  C   UNL     1      43.920   4.511  12.651  0.00  0.00    +0.000 A 
ATOM     32  O   UNL     1      43.864   5.372  13.524  0.00  0.00    +0.000 OA
ATOM     33  C   UNL     1      44.500   4.719  11.338  0.00  0.00    +0.000 A 
ATOM     34  H   UNL     1      42.986   3.084  13.754  0.00  0.00    +0.000 HD
ENDBRANCH  21  24
ENDBRANCH  19  20
ENDBRANCH   4  19
TORSDOF 6
ENDMDL
MODEL 7
REMARK VINA RESULT:    -6.074      1.933      2.362
REMARK INTER + INTRA:          -9.350
REMARK INTER:                  -8.215
REMARK INTRA:                  -1.134
REMARK UNBOUND:                -1.146
REMARK  Name = 
REMARK  6 active torsions:
REMARK  status: ('A' for Active; 'I' for Inactive)
REMARK    1  A    between atoms: C_2  and  C_3
REMARK    2  A    between atoms: N_10  and  C_11
REMARK    3  A    between atoms: C_11  and  C_12
REMARK    4  A    between atoms: C_15  and  C_16
REMARK    5  A    between atoms: C_16  and  N_17
REMARK    6  A    between atoms: C_18  and  C_20
REMARK                            x       y       z     vdW  Elec       q    Type
REMARK                         _______ _______ _______ _____ _____    ______ ____
ROOT
ATOM      1  C   UNL     1      50.002   6.485  16.602  0.00  0.00    +0.000 A 
ATOM      2  C   UNL     1      48.790   5.803  16.411  0.00  0.00    +0.000 A 
ATOM      3  C   UNL     1      48.002   6.046  15.278  0.00  0.00    +0.000 A 
ATOM      4  C   UNL     1      48.419   6.963  14.303  0.00  0.00    +0.000 A 
ATOM      5  C   UNL     1      49.620   7.656  14.505  0.00  0.00    +0.000 A 
ATOM      6  C   UNL     1      50.407   7.412  15.635  0.00  0.00    +0.000 A 
ENDROOT
BRANCH   1   7
ATOM      7  C   UNL     1      50.833   6.257  17.836  0.00  0.00    +0.000 C 
BRANCH   7  15
ATOM      8  C   UNL     1      52.383   2.119  17.766  0.00  0.00    +0.000 A 
ATOM      9  C   UNL     1      53.215   1.106  18.208  0.00  0.00    +0.000 A 
ATOM     10  C   UNL     1      54.431   1.693  18.613  0.00  0.00    +0.000 A 
ATOM     11  C   UNL     1      54.322   3.042  18.368  0.00  0.00    +0.000 A 
ATOM     12  N   UNL     1      53.046   3.327  17.899  0.00  0.00    +0.000 N 
ATOM     13  C   UNL     1      52.611   4.626  17.573  0.00  0.00    +0.000 C 
ATOM     14  O   UNL     1      53.410   5.423  17.103  0.00  0.00    +0.000 OA
ATOM     15  N   UNL     1      51.315   4.890  17.959  0.00  0.00    +0.000 N 
ATOM     16  H   UNL     1      50.792   4.253  18.547  0.00  0.00    +0.000 HD
BRANCH   8  18
ATOM     17  N   UNL     1      50.071   1.829  16.661  0.00  0.00    +0.000 NA
ATOM     18  C   UNL     1      51.109   1.957  17.160  0.00  0.00    +0.000 C 
ENDBRANCH   8  18
ENDBRANCH   7  15
ENDBRANCH   1   7
BRANCH   4  19
ATOM     19  C   UNL     1      47.593   7.213  13.067  0.00  0.00    +0.000 C 
BRANCH  19  20
ATOM     20  N   UNL     1      46.932   6.019  12.604  0.00  0.00    +0.000 N 
ATOM     21  C   UNL     1      45.565   5.980  12.476  0.00  0.00    +0.000 C 
ATOM     22  O   UNL     1      44.844   6.889  12.878  0.00  0.00    +0.000 OA
ATOM     23  H   UNL     1      47.505   5.328  12.126  0.00  0.00    +0.000 HD
BRANCH  21  24
ATOM     24  C   UNL     1      44.999   4.789  11.839  0.00  0.00    +0.000 A 
ATOM     25  C   UNL     1      44.208   3.915  12.578  0.00  0.00    +0.000 A 
ATOM     26  S   UNL     1      43.555   2.634  11.659  0.00  0.00    +0.000 S 
ATOM     27  C   UNL     1      44.250   3.238  10.229  0.00  0.00    +0.000 A 
ATOM     28  N   UNL     1      43.975   2.674   9.021  0.00  0.00    +0.000 NA
ATOM     29  C   UNL     1      44.558   3.246   8.020  0.00  0.00    +0.000 A 
ATOM     30  N   UNL     1      45.420   4.304   8.123  0.00  0.00    +0.000 N 
ATOM     31  C   UNL     1      45.766   4.875   9.323  0.00  0.00    +0.000 A 
ATOM     32  O   UNL     1      46.622   5.753   9.391  0.00  0.00    +0.000 OA
ATOM     33  C   UNL     1      45.065   4.330  10.471  0.00  0.00    +0.000 A 
ATOM     34  H   UNL     1      45.889   4.667   7.307  0.00  0.00    +0.000 HD
ENDBRANCH  21  24
ENDBRANCH  19  20
ENDBRANCH   4  19
TORSDOF 6
ENDMDL
MODEL 8
REMARK VINA RESULT:    -5.959      5.947      7.905
REMARK INTER + INTRA:          -9.195
REMARK INTER:                  -8.231
REMARK INTRA:                  -0.964
REMARK UNBOUND:                -1.146
REMARK  Name = 
REMARK  6 active torsions:
REMARK  status: ('A' for Active; 'I' for Inactive)
REMARK    1  A    between atoms: C_2  and  C_3
REMARK    2  A    between atoms: N_10  and  C_11
REMARK    3  A    between atoms: C_11  and  C_12
REMARK    4  A    between atoms: C_15  and  C_16
REMARK    5  A    between atoms: C_16  and  N_17
REMARK    6  A    between atoms: C_18  and  C_20
REMARK                            x       y       z     vdW  Elec       q    Type
REMARK                         _______ _______ _______ _____ _____    ______ ____
ROOT
ATOM      1  C   UNL     1      51.621   8.533  11.288  0.00  0.00    +0.000 A 
ATOM      2  C   UNL     1      50.845   7.398  11.011  0.00  0.00    +0.000 A 
ATOM      3  C   UNL     1      49.465   7.395  11.260  0.00  0.00    +0.000 A 
ATOM      4  C   UNL     1      48.831   8.535  11.773  0.00  0.00    +0.000 A 
ATOM      5  C   UNL     1      49.611   9.661  12.067  0.00  0.00    +0.000 A 
ATOM      6  C   UNL     1      50.988   9.664  11.816  0.00  0.00    +0.000 A 
ENDROOT
BRANCH   1   7
ATOM      7  C   UNL     1      53.109   8.529  11.060  0.00  0.00    +0.000 C 
BRANCH   7  15
ATOM      8  C   UNL     1      53.823   8.221   6.709  0.00  0.00    +0.000 A 
ATOM      9  C   UNL     1      54.569   8.432   5.564  0.00  0.00    +0.000 A 
ATOM     10  C   UNL     1      55.271   9.644   5.726  0.00  0.00    +0.000 A 
ATOM     11  C   UNL     1      54.901  10.158   6.946  0.00  0.00    +0.000 A 
ATOM     12  N   UNL     1      54.054   9.266   7.588  0.00  0.00    +0.000 N 
ATOM     13  C   UNL     1      53.514   9.492   8.869  0.00  0.00    +0.000 C 
ATOM     14  O   UNL     1      53.243  10.634   9.210  0.00  0.00    +0.000 OA
ATOM     15  N   UNL     1      53.475   8.366   9.662  0.00  0.00    +0.000 N 
ATOM     16  H   UNL     1      53.928   7.502   9.387  0.00  0.00    +0.000 HD
BRANCH   8  18
ATOM     17  N   UNL     1      52.111   6.328   7.085  0.00  0.00    +0.000 NA
ATOM     18  C   UNL     1      52.879   7.180   6.919  0.00  0.00    +0.000 C 
ENDBRANCH   8  18
ENDBRANCH   7  15
ENDBRANCH   1   7
BRANCH   4  19
ATOM     19  C   UNL     1      47.344   8.553  12.020  0.00  0.00    +0.000 C 
BRANCH  19  20
ATOM     20  N   UNL     1      46.787   7.225  12.079  0.00  0.00    +0.000 N 
ATOM     21  C   UNL     1      45.467   7.006  11.768  0.00  0.00    +0.000 C 
ATOM     22  O   UNL     1      44.679   7.927  11.571  0.00  0.00    +0.000 OA
ATOM     23  H   UNL     1      47.441   6.448  12.083  0.00  0.00    +0.000 HD
BRANCH  21  24
ATOM     24  C   UNL     1      45.035   5.608  11.689  0.00  0.00    +0.000 A 
ATOM     25  C   UNL     1      44.444   5.001  12.792  0.00  0.00    +0.000 A 
ATOM     26  S   UNL     1      43.917   3.404  12.498  0.00  0.00    +0.000 S 
ATOM     27  C   UNL     1      44.398   3.491  10.868  0.00  0.00    +0.000 A 
ATOM     28  N   UNL     1      44.115   2.485   9.997  0.00  0.00    +0.000 NA
ATOM     29  C   UNL     1      44.524   2.694   8.789  0.00  0.00    +0.000 A 
ATOM     30  N   UNL     1      45.225   3.799   8.386  0.00  0.00    +0.000 N 
ATOM     31  C   UNL     1      45.577   4.816   9.239  0.00  0.00    +0.000 A 
ATOM     32  O   UNL     1      46.296   5.740   8.871  0.00  0.00    +0.000 OA
ATOM     33  C   UNL     1      45.059   4.675  10.587  0.00  0.00    +0.000 A 
ATOM     34  H   UNL     1      45.569   3.873   7.440  0.00  0.00    +0.000 HD
ENDBRANCH  21  24
ENDBRANCH  19  20
ENDBRANCH   4  19
TORSDOF 6
ENDMDL
MODEL 9
REMARK VINA RESULT:    -5.898      5.524      7.180
REMARK INTER + INTRA:          -9.112
REMARK INTER:                  -8.140
REMARK INTRA:                  -0.972
REMARK UNBOUND:                -1.146
REMARK  Name = 
REMARK  6 active torsions:
REMARK  status: ('A' for Active; 'I' for Inactive)
REMARK    1  A    between atoms: C_2  and  C_3
REMARK    2  A    between atoms: N_10  and  C_11
REMARK    3  A    between atoms: C_11  and  C_12
REMARK    4  A    between atoms: C_15  and  C_16
REMARK    5  A    between atoms: C_16  and  N_17
REMARK    6  A    between atoms: C_18  and  C_20
REMARK                            x       y       z     vdW  Elec       q    Type
REMARK                         _______ _______ _______ _____ _____    ______ ____
ROOT
ATOM      1  C   UNL     1      51.251   9.058  11.144  0.00  0.00    +0.000 A 
ATOM      2  C   UNL     1      50.584   9.978  11.968  0.00  0.00    +0.000 A 
ATOM      3  C   UNL     1      49.411   9.615  12.644  0.00  0.00    +0.000 A 
ATOM      4  C   UNL     1      48.892   8.318  12.525  0.00  0.00    +0.000 A 
ATOM      5  C   UNL     1      49.548   7.407  11.688  0.00  0.00    +0.000 A 
ATOM      6  C   UNL     1      50.721   7.769  11.014  0.00  0.00    +0.000 A 
ENDROOT
BRANCH   1   7
ATOM      7  C   UNL     1      52.488   9.453  10.384  0.00  0.00    +0.000 C 
BRANCH   7  15
ATOM      8  C   UNL     1      53.848   6.927   7.023  0.00  0.00    +0.000 A 
ATOM      9  C   UNL     1      54.208   5.718   6.456  0.00  0.00    +0.000 A 
ATOM     10  C   UNL     1      54.813   4.935   7.460  0.00  0.00    +0.000 A 
ATOM     11  C   UNL     1      54.843   5.704   8.599  0.00  0.00    +0.000 A 
ATOM     12  N   UNL     1      54.202   6.912   8.361  0.00  0.00    +0.000 N 
ATOM     13  C   UNL     1      54.046   7.915   9.338  0.00  0.00    +0.000 C 
ATOM     14  O   UNL     1      54.921   8.072  10.177  0.00  0.00    +0.000 OA
ATOM     15  N   UNL     1      52.817   8.536   9.305  0.00  0.00    +0.000 N 
ATOM     16  H   UNL     1      52.060   8.194   8.725  0.00  0.00    +0.000 HD
BRANCH   8  18
ATOM     17  N   UNL     1      52.886   8.974   5.783  0.00  0.00    +0.000 NA
ATOM     18  C   UNL     1      53.316   8.052   6.338  0.00  0.00    +0.000 C 
ENDBRANCH   8  18
ENDBRANCH   7  15
ENDBRANCH   1   7
BRANCH   4  19
ATOM     19  C   UNL     1      47.646   7.908  13.270  0.00  0.00    +0.000 C 
BRANCH  19  20
ATOM     20  N   UNL     1      46.958   6.821  12.620  0.00  0.00    +0.000 N 
ATOM     21  C   UNL     1      45.927   7.068  11.747  0.00  0.00    +0.000 C 
ATOM     22  O   UNL     1      45.455   8.191  11.592  0.00  0.00    +0.000 OA
ATOM     23  H   UNL     1      47.424   5.918  12.609  0.00  0.00    +0.000 HD
BRANCH  21  24
ATOM     24  C   UNL     1      45.404   5.917  11.007  0.00  0.00    +0.000 A 
ATOM     25  C   UNL     1      45.775   5.717   9.680  0.00  0.00    +0.000 A 
ATOM     26  S   UNL     1      45.151   4.281   9.001  0.00  0.00    +0.000 S 
ATOM     27  C   UNL     1      44.420   3.842  10.473  0.00  0.00    +0.000 A 
ATOM     28  N   UNL     1      43.815   2.632  10.624  0.00  0.00    +0.000 NA
ATOM     29  C   UNL     1      43.319   2.426  11.799  0.00  0.00    +0.000 A 
ATOM     30  N   UNL     1      43.340   3.336  12.822  0.00  0.00    +0.000 N 
ATOM     31  C   UNL     1      43.895   4.586  12.702  0.00  0.00    +0.000 A 
ATOM     32  O   UNL     1      43.802   5.416  13.602  0.00  0.00    +0.000 OA
ATOM     33  C   UNL     1      44.549   4.832  11.431  0.00  0.00    +0.000 A 
ATOM     34  H   UNL     1      42.881   3.136  13.698  0.00  0.00    +0.000 HD
ENDBRANCH  21  24
ENDBRANCH  19  20
ENDBRANCH   4  19
TORSDOF 6
ENDMDL
