MODEL 1
REMARK VINA RESULT:    -8.562      0.000      0.000
REMARK INTER + INTRA:         -12.635
REMARK INTER:                 -11.565
REMARK INTRA:                  -1.070
REMARK UNBOUND:                -1.070
REMARK  Name = 
REMARK  7 active torsions:
REMARK  status: ('A' for Active; 'I' for Inactive)
REMARK    1  A    between atoms: C_1  and  C_2
REMARK    2  A    between atoms: C_6  and  C_7
REMARK    3  A    between atoms: C_7  and  O_8
REMARK    4  A    between atoms: O_8  and  C_9
REMARK    5  A    between atoms: C_12  and  C_13
REMARK    6  A    between atoms: C_13  and  N_14
REMARK    7  A    between atoms: C_15  and  C_17
REMARK                            x       y       z     vdW  Elec       q    Type
REMARK                         _______ _______ _______ _____ _____    ______ ____
ROOT
ATOM      1  C   UNL     1      47.304   7.541  13.224  0.00  0.00    +0.000 C 
ENDROOT
BRANCH   1   5
ATOM      2  C   UNL     1      45.040   4.611  11.019  0.00  0.00    +0.000 A 
ATOM      3  C   UNL     1      45.443   5.791  10.392  0.00  0.00    +0.000 A 
ATOM      4  C   UNL     1      46.168   6.754  11.101  0.00  0.00    +0.000 A 
ATOM      5  C   UNL     1      46.493   6.542  12.448  0.00  0.00    +0.000 A 
ATOM      6  C   UNL     1      46.023   5.388  13.085  0.00  0.00    +0.000 A 
ATOM      7  C   UNL     1      45.299   4.431  12.378  0.00  0.00    +0.000 A 
BRANCH   2   8
ATOM      8  O   UNL     1      44.401   3.698  10.223  0.00  0.00    +0.000 OA
BRANCH   8   9
ATOM      9  C   UNL     1      44.465   3.981   8.821  0.00  0.00    +0.000 C 
BRANCH   9  15
ATOM     10  C   UNL     1      47.615   2.814   5.084  0.00  0.00    +0.000 C 
ATOM     11  C   UNL     1      46.900   2.412   6.339  0.00  0.00    +0.000 A 
ATOM     12  C   UNL     1      47.081   1.145   6.904  0.00  0.00    +0.000 A 
ATOM     13  C   UNL     1      46.410   0.792   8.076  0.00  0.00    +0.000 A 
ATOM     14  C   UNL     1      45.551   1.702   8.692  0.00  0.00    +0.000 A 
ATOM     15  C   UNL     1      45.350   2.971   8.137  0.00  0.00    +0.000 A 
ATOM     16  C   UNL     1      46.037   3.319   6.965  0.00  0.00    +0.000 A 
ENDBRANCH   9  15
ENDBRANCH   8   9
ENDBRANCH   2   8
ENDBRANCH   1   5
BRANCH   1  17
ATOM     17  N   UNL     1      47.536   7.096  14.572  0.00  0.00    +0.000 N 
ATOM     18  C   UNL     1      48.810   6.834  15.005  0.00  0.00    +0.000 C 
ATOM     19  O   UNL     1      49.788   7.014  14.281  0.00  0.00    +0.000 OA
ATOM     20  H   UNL     1      46.741   6.747  15.098  0.00  0.00    +0.000 HD
BRANCH  18  21
ATOM     21  C   UNL     1      48.963   6.381  16.390  0.00  0.00    +0.000 A 
ATOM     22  C   UNL     1      49.561   7.223  17.317  0.00  0.00    +0.000 A 
ATOM     23  S   UNL     1      49.654   6.563  18.885  0.00  0.00    +0.000 S 
ATOM     24  C   UNL     1      48.936   5.108  18.371  0.00  0.00    +0.000 A 
ATOM     25  N   UNL     1      48.756   4.076  19.240  0.00  0.00    +0.000 NA
ATOM     26  C   UNL     1      48.226   3.024  18.712  0.00  0.00    +0.000 A 
ATOM     27  N   UNL     1      47.846   2.915  17.398  0.00  0.00    +0.000 N 
ATOM     28  C   UNL     1      47.984   3.940  16.492  0.00  0.00    +0.000 A 
ATOM     29  O   UNL     1      47.595   3.825  15.334  0.00  0.00    +0.000 OA
ATOM     30  C   UNL     1      48.600   5.138  17.030  0.00  0.00    +0.000 A 
ATOM     31  H   UNL     1      47.421   2.068  17.055  0.00  0.00    +0.000 HD
ENDBRANCH  18  21
ENDBRANCH   1  17
TORSDOF 6
ENDMDL
MODEL 2
REMARK VINA RESULT:    -8.450      1.189      1.740
REMARK INTER + INTRA:         -12.483
REMARK INTER:                 -11.612
REMARK INTRA:                  -0.871
REMARK UNBOUND:                -1.070
REMARK  Name = 
REMARK  7 active torsions:
REMARK  status: ('A' for Active; 'I' for Inactive)
REMARK    1  A    between atoms: C_1  and  C_2
REMARK    2  A    between atoms: C_6  and  C_7
REMARK    3  A    between atoms: C_7  and  O_8
REMARK    4  A    between atoms: O_8  and  C_9
REMARK    5  A    between atoms: C_12  and  C_13
REMARK    6  A    between atoms: C_13  and  N_14
REMARK    7  A    between atoms: C_15  and  C_17
REMARK                            x       y       z     vdW  Elec       q    Type
REMARK                         _______ _______ _______ _____ _____    ______ ____
ROOT
ATOM      1  C   UNL     1      48.079   6.800  13.584  0.00  0.00    +0.000 C 
ENDROOT
BRANCH   1   5
ATOM      2  C   UNL     1      45.296   3.995  11.863  0.00  0.00    +0.000 A 
ATOM      3  C   UNL     1      45.371   5.296  11.360  0.00  0.00    +0.000 A 
ATOM      4  C   UNL     1      46.262   6.217  11.919  0.00  0.00    +0.000 A 
ATOM      5  C   UNL     1      47.085   5.843  12.990  0.00  0.00    +0.000 A 
ATOM      6  C   UNL     1      46.951   4.559  13.531  0.00  0.00    +0.000 A 
ATOM      7  C   UNL     1      46.061   3.643  12.974  0.00  0.00    +0.000 A 
BRANCH   2   8
ATOM      8  O   UNL     1      44.449   3.146  11.202  0.00  0.00    +0.000 OA
BRANCH   8   9
ATOM      9  C   UNL     1      44.070   3.581   9.892  0.00  0.00    +0.000 C 
BRANCH   9  15
ATOM     10  C   UNL     1      46.741  -0.049   7.668  0.00  0.00    +0.000 C 
ATOM     11  C   UNL     1      46.399   1.405   7.795  0.00  0.00    +0.000 A 
ATOM     12  C   UNL     1      46.997   2.366   6.973  0.00  0.00    +0.000 A 
ATOM     13  C   UNL     1      46.662   3.714   7.104  0.00  0.00    +0.000 A 
ATOM     14  C   UNL     1      45.725   4.114   8.057  0.00  0.00    +0.000 A 
ATOM     15  C   UNL     1      45.121   3.168   8.894  0.00  0.00    +0.000 A 
ATOM     16  C   UNL     1      45.458   1.815   8.748  0.00  0.00    +0.000 A 
ENDBRANCH   9  15
ENDBRANCH   8   9
ENDBRANCH   2   8
ENDBRANCH   1   5
BRANCH   1  17
ATOM     17  N   UNL     1      47.997   6.817  15.021  0.00  0.00    +0.000 N 
ATOM     18  C   UNL     1      49.139   6.798  15.779  0.00  0.00    +0.000 C 
ATOM     19  O   UNL     1      50.256   6.814  15.265  0.00  0.00    +0.000 OA
ATOM     20  H   UNL     1      47.103   6.592  15.446  0.00  0.00    +0.000 HD
BRANCH  18  21
ATOM     21  C   UNL     1      48.972   6.813  17.235  0.00  0.00    +0.000 A 
ATOM     22  C   UNL     1      48.879   8.030  17.895  0.00  0.00    +0.000 A 
ATOM     23  S   UNL     1      48.674   7.885  19.579  0.00  0.00    +0.000 S 
ATOM     24  C   UNL     1      48.744   6.186  19.494  0.00  0.00    +0.000 A 
ATOM     25  N   UNL     1      48.668   5.429  20.622  0.00  0.00    +0.000 NA
ATOM     26  C   UNL     1      48.762   4.158  20.416  0.00  0.00    +0.000 A 
ATOM     27  N   UNL     1      48.909   3.575  19.182  0.00  0.00    +0.000 N 
ATOM     28  C   UNL     1      48.963   4.298  18.013  0.00  0.00    +0.000 A 
ATOM     29  O   UNL     1      49.053   3.744  16.923  0.00  0.00    +0.000 OA
ATOM     30  C   UNL     1      48.889   5.736  18.194  0.00  0.00    +0.000 A 
ATOM     31  H   UNL     1      48.959   2.572  19.090  0.00  0.00    +0.000 HD
ENDBRANCH  18  21
ENDBRANCH   1  17
TORSDOF 6
ENDMDL
MODEL 3
REMARK VINA RESULT:    -7.934      2.045      3.548
REMARK INTER + INTRA:         -11.787
REMARK INTER:                 -10.832
REMARK INTRA:                  -0.955
REMARK UNBOUND:                -1.070
REMARK  Name = 
REMARK  7 active torsions:
REMARK  status: ('A' for Active; 'I' for Inactive)
REMARK    1  A    between atoms: C_1  and  C_2
REMARK    2  A    between atoms: C_6  and  C_7
REMARK    3  A    between atoms: C_7  and  O_8
REMARK    4  A    between atoms: O_8  and  C_9
REMARK    5  A    between atoms: C_12  and  C_13
REMARK    6  A    between atoms: C_13  and  N_14
REMARK    7  A    between atoms: C_15  and  C_17
REMARK                            x       y       z     vdW  Elec       q    Type
REMARK                         _______ _______ _______ _____ _____    ______ ____
ROOT
ATOM      1  C   UNL     1      47.541   4.020  15.275  0.00  0.00    +0.000 C 
ENDROOT
BRANCH   1   5
ATOM      2  C   UNL     1      45.390   4.839  11.631  0.00  0.00    +0.000 A 
ATOM      3  C   UNL     1      45.384   3.549  12.165  0.00  0.00    +0.000 A 
ATOM      4  C   UNL     1      46.088   3.270  13.340  0.00  0.00    +0.000 A 
ATOM      5  C   UNL     1      46.807   4.282  13.990  0.00  0.00    +0.000 A 
ATOM      6  C   UNL     1      46.864   5.553  13.408  0.00  0.00    +0.000 A 
ATOM      7  C   UNL     1      46.164   5.830  12.235  0.00  0.00    +0.000 A 
BRANCH   2   8
ATOM      8  O   UNL     1      44.612   5.031  10.521  0.00  0.00    +0.000 OA
BRANCH   8   9
ATOM      9  C   UNL     1      44.183   3.827   9.877  0.00  0.00    +0.000 C 
BRANCH   9  15
ATOM     10  C   UNL     1      46.756   0.105   7.690  0.00  0.00    +0.000 C 
ATOM     11  C   UNL     1      46.459   1.570   7.808  0.00  0.00    +0.000 A 
ATOM     12  C   UNL     1      47.094   2.507   6.988  0.00  0.00    +0.000 A 
ATOM     13  C   UNL     1      46.800   3.866   7.110  0.00  0.00    +0.000 A 
ATOM     14  C   UNL     1      45.869   4.300   8.053  0.00  0.00    +0.000 A 
ATOM     15  C   UNL     1      45.229   3.377   8.889  0.00  0.00    +0.000 A 
ATOM     16  C   UNL     1      45.525   2.013   8.752  0.00  0.00    +0.000 A 
ENDBRANCH   9  15
ENDBRANCH   8   9
ENDBRANCH   2   8
ENDBRANCH   1   5
BRANCH   1  17
ATOM     17  N   UNL     1      47.419   5.128  16.185  0.00  0.00    +0.000 N 
ATOM     18  C   UNL     1      48.528   5.631  16.815  0.00  0.00    +0.000 C 
ATOM     19  O   UNL     1      49.654   5.189  16.591  0.00  0.00    +0.000 OA
ATOM     20  H   UNL     1      46.493   5.355  16.532  0.00  0.00    +0.000 HD
BRANCH  18  21
ATOM     21  C   UNL     1      48.321   6.757  17.729  0.00  0.00    +0.000 A 
ATOM     22  C   UNL     1      48.109   6.506  19.078  0.00  0.00    +0.000 A 
ATOM     23  S   UNL     1      47.899   7.914  20.013  0.00  0.00    +0.000 S 
ATOM     24  C   UNL     1      48.041   8.911  18.641  0.00  0.00    +0.000 A 
ATOM     25  N   UNL     1      47.913  10.261  18.746  0.00  0.00    +0.000 NA
ATOM     26  C   UNL     1      48.016  10.893  17.624  0.00  0.00    +0.000 A 
ATOM     27  N   UNL     1      48.249  10.297  16.410  0.00  0.00    +0.000 N 
ATOM     28  C   UNL     1      48.411   8.940  16.261  0.00  0.00    +0.000 A 
ATOM     29  O   UNL     1      48.660   8.444  15.167  0.00  0.00    +0.000 OA
ATOM     30  C   UNL     1      48.278   8.181  17.490  0.00  0.00    +0.000 A 
ATOM     31  H   UNL     1      48.335  10.853  15.573  0.00  0.00    +0.000 HD
ENDBRANCH  18  21
ENDBRANCH   1  17
TORSDOF 6
ENDMDL
MODEL 4
REMARK VINA RESULT:    -7.745      2.061      2.896
REMARK INTER + INTRA:         -11.532
REMARK INTER:                 -10.309
REMARK INTRA:                  -1.223
REMARK UNBOUND:                -1.070
REMARK  Name = 
REMARK  7 active torsions:
REMARK  status: ('A' for Active; 'I' for Inactive)
REMARK    1  A    between atoms: C_1  and  C_2
REMARK    2  A    between atoms: C_6  and  C_7
REMARK    3  A    between atoms: C_7  and  O_8
REMARK    4  A    between atoms: O_8  and  C_9
REMARK    5  A    between atoms: C_12  and  C_13
REMARK    6  A    between atoms: C_13  and  N_14
REMARK    7  A    between atoms: C_15  and  C_17
REMARK                            x       y       z     vdW  Elec       q    Type
REMARK                         _______ _______ _______ _____ _____    ______ ____
ROOT
ATOM      1  C   UNL     1      48.403   6.604  14.004  0.00  0.00    +0.000 C 
ENDROOT
BRANCH   1   5
ATOM      2  C   UNL     1      45.070   4.911  11.861  0.00  0.00    +0.000 A 
ATOM      3  C   UNL     1      45.699   4.170  12.863  0.00  0.00    +0.000 A 
ATOM      4  C   UNL     1      46.788   4.705  13.557  0.00  0.00    +0.000 A 
ATOM      5  C   UNL     1      47.259   5.989  13.249  0.00  0.00    +0.000 A 
ATOM      6  C   UNL     1      46.667   6.694  12.195  0.00  0.00    +0.000 A 
ATOM      7  C   UNL     1      45.582   6.158  11.503  0.00  0.00    +0.000 A 
BRANCH   2   8
ATOM      8  O   UNL     1      43.967   4.333  11.291  0.00  0.00    +0.000 OA
BRANCH   8   9
ATOM      9  C   UNL     1      43.815   4.588   9.891  0.00  0.00    +0.000 C 
BRANCH   9  15
ATOM     10  C   UNL     1      47.087   3.629   6.199  0.00  0.00    +0.000 C 
ATOM     11  C   UNL     1      46.234   3.129   7.326  0.00  0.00    +0.000 A 
ATOM     12  C   UNL     1      46.221   1.777   7.683  0.00  0.00    +0.000 A 
ATOM     13  C   UNL     1      45.424   1.333   8.739  0.00  0.00    +0.000 A 
ATOM     14  C   UNL     1      44.632   2.237   9.448  0.00  0.00    +0.000 A 
ATOM     15  C   UNL     1      44.626   3.593   9.101  0.00  0.00    +0.000 A 
ATOM     16  C   UNL     1      45.438   4.030   8.044  0.00  0.00    +0.000 A 
ENDBRANCH   9  15
ENDBRANCH   8   9
ENDBRANCH   2   8
ENDBRANCH   1   5
BRANCH   1  17
ATOM     17  N   UNL     1      48.162   6.594  15.423  0.00  0.00    +0.000 N 
ATOM     18  C   UNL     1      49.197   6.390  16.299  0.00  0.00    +0.000 C 
ATOM     19  O   UNL     1      50.356   6.260  15.910  0.00  0.00    +0.000 OA
ATOM     20  H   UNL     1      47.203   6.488  15.739  0.00  0.00    +0.000 HD
BRANCH  18  21
ATOM     21  C   UNL     1      48.869   6.390  17.728  0.00  0.00    +0.000 A 
ATOM     22  C   UNL     1      49.091   5.240  18.474  0.00  0.00    +0.000 A 
ATOM     23  S   UNL     1      48.675   5.399  20.118  0.00  0.00    +0.000 S 
ATOM     24  C   UNL     1      48.142   6.998  19.883  0.00  0.00    +0.000 A 
ATOM     25  N   UNL     1      47.614   7.713  20.913  0.00  0.00    +0.000 NA
ATOM     26  C   UNL     1      47.225   8.902  20.590  0.00  0.00    +0.000 A 
ATOM     27  N   UNL     1      47.330   9.444  19.334  0.00  0.00    +0.000 N 
ATOM     28  C   UNL     1      47.881   8.768  18.270  0.00  0.00    +0.000 A 
ATOM     29  O   UNL     1      47.998   9.297  17.170  0.00  0.00    +0.000 OA
ATOM     30  C   UNL     1      48.310   7.416  18.575  0.00  0.00    +0.000 A 
ATOM     31  H   UNL     1      47.021  10.387  19.154  0.00  0.00    +0.000 HD
ENDBRANCH  18  21
ENDBRANCH   1  17
TORSDOF 6
ENDMDL
MODEL 5
REMARK VINA RESULT:    -7.737      2.208      3.124
REMARK INTER + INTRA:         -11.521
REMARK INTER:                 -10.439
REMARK INTRA:                  -1.082
REMARK UNBOUND:                -1.070
REMARK  Name = 
REMARK  7 active torsions:
REMARK  status: ('A' for Active; 'I' for Inactive)
REMARK    1  A    between atoms: C_1  and  C_2
REMARK    2  A    between atoms: C_6  and  C_7
REMARK    3  A    between atoms: C_7  and  O_8
REMARK    4  A    between atoms: O_8  and  C_9
REMARK    5  A    between atoms: C_12  and  C_13
REMARK    6  A    between atoms: C_13  and  N_14
REMARK    7  A    between atoms: C_15  and  C_17
REMARK                            x       y       z     vdW  Elec       q    Type
REMARK                         _______ _______ _______ _____ _____    ______ ____
ROOT
ATOM      1  C   UNL     1      47.477   4.259  15.326  0.00  0.00    +0.000 C 
ENDROOT
BRANCH   1   5
ATOM      2  C   UNL     1      45.401   4.918  11.607  0.00  0.00    +0.000 A 
ATOM      3  C   UNL     1      45.209   3.726  12.306  0.00  0.00    +0.000 A 
ATOM      4  C   UNL     1      45.886   3.497  13.508  0.00  0.00    +0.000 A 
ATOM      5  C   UNL     1      46.765   4.462  14.018  0.00  0.00    +0.000 A 
ATOM      6  C   UNL     1      47.004   5.623  13.273  0.00  0.00    +0.000 A 
ATOM      7  C   UNL     1      46.330   5.848  12.074  0.00  0.00    +0.000 A 
BRANCH   2   8
ATOM      8  O   UNL     1      44.638   5.082  10.481  0.00  0.00    +0.000 OA
BRANCH   8   9
ATOM      9  C   UNL     1      44.201   3.862   9.875  0.00  0.00    +0.000 C 
BRANCH   9  15
ATOM     10  C   UNL     1      46.706   0.063   7.743  0.00  0.00    +0.000 C 
ATOM     11  C   UNL     1      46.436   1.534   7.840  0.00  0.00    +0.000 A 
ATOM     12  C   UNL     1      47.088   2.448   7.006  0.00  0.00    +0.000 A 
ATOM     13  C   UNL     1      46.819   3.814   7.109  0.00  0.00    +0.000 A 
ATOM     14  C   UNL     1      45.895   4.278   8.045  0.00  0.00    +0.000 A 
ATOM     15  C   UNL     1      45.238   3.379   8.894  0.00  0.00    +0.000 A 
ATOM     16  C   UNL     1      45.509   2.008   8.776  0.00  0.00    +0.000 A 
ENDBRANCH   9  15
ENDBRANCH   8   9
ENDBRANCH   2   8
ENDBRANCH   1   5
BRANCH   1  17
ATOM     17  N   UNL     1      47.528   5.478  16.090  0.00  0.00    +0.000 N 
ATOM     18  C   UNL     1      48.735   6.009  16.463  0.00  0.00    +0.000 C 
ATOM     19  O   UNL     1      49.800   5.497  16.123  0.00  0.00    +0.000 OA
ATOM     20  H   UNL     1      46.676   5.785  16.548  0.00  0.00    +0.000 HD
BRANCH  18  21
ATOM     21  C   UNL     1      48.704   7.250  17.243  0.00  0.00    +0.000 A 
ATOM     22  C   UNL     1      49.177   8.423  16.671  0.00  0.00    +0.000 A 
ATOM     23  S   UNL     1      49.062   9.780  17.694  0.00  0.00    +0.000 S 
ATOM     24  C   UNL     1      48.413   8.840  18.956  0.00  0.00    +0.000 A 
ATOM     25  N   UNL     1      48.119   9.400  20.160  0.00  0.00    +0.000 NA
ATOM     26  C   UNL     1      47.659   8.569  21.035  0.00  0.00    +0.000 A 
ATOM     27  N   UNL     1      47.454   7.231  20.809  0.00  0.00    +0.000 N 
ATOM     28  C   UNL     1      47.713   6.627  19.600  0.00  0.00    +0.000 A 
ATOM     29  O   UNL     1      47.479   5.437  19.419  0.00  0.00    +0.000 OA
ATOM     30  C   UNL     1      48.256   7.515  18.590  0.00  0.00    +0.000 A 
ATOM     31  H   UNL     1      47.076   6.640  21.533  0.00  0.00    +0.000 HD
ENDBRANCH  18  21
ENDBRANCH   1  17
TORSDOF 6
ENDMDL
MODEL 6
REMARK VINA RESULT:    -7.446      1.964      2.558
REMARK INTER + INTRA:         -11.127
REMARK INTER:                 -10.214
REMARK INTRA:                  -0.913
REMARK UNBOUND:                -1.070
REMARK  Name = 
REMARK  7 active torsions:
REMARK  status: ('A' for Active; 'I' for Inactive)
REMARK    1  A    between atoms: C_1  and  C_2
REMARK    2  A    between atoms: C_6  and  C_7
REMARK    3  A    between atoms: C_7  and  O_8
REMARK    4  A    between atoms: O_8  and  C_9
REMARK    5  A    between atoms: C_12  and  C_13
REMARK    6  A    between atoms: C_13  and  N_14
REMARK    7  A    between atoms: C_15  and  C_17
REMARK                            x       y       z     vdW  Elec       q    Type
REMARK                         _______ _______ _______ _____ _____    ______ ____
ROOT
ATOM      1  C   UNL     1      47.614   7.293  13.611  0.00  0.00    +0.000 C 
ENDROOT
BRANCH   1   5
ATOM      2  C   UNL     1      45.115   4.771  11.168  0.00  0.00    +0.000 A 
ATOM      3  C   UNL     1      45.429   6.062  10.738  0.00  0.00    +0.000 A 
ATOM      4  C   UNL     1      46.229   6.892  11.529  0.00  0.00    +0.000 A 
ATOM      5  C   UNL     1      46.720   6.436  12.759  0.00  0.00    +0.000 A 
ATOM      6  C   UNL     1      46.342   5.167  13.212  0.00  0.00    +0.000 A 
ATOM      7  C   UNL     1      45.542   4.341  12.424  0.00  0.00    +0.000 A 
BRANCH   2   8
ATOM      8  O   UNL     1      44.389   4.008  10.292  0.00  0.00    +0.000 OA
BRANCH   8   9
ATOM      9  C   UNL     1      44.590   4.331   8.912  0.00  0.00    +0.000 C 
BRANCH   9  15
ATOM     10  C   UNL     1      47.369   2.718   5.049  0.00  0.00    +0.000 C 
ATOM     11  C   UNL     1      46.722   2.444   6.373  0.00  0.00    +0.000 A 
ATOM     12  C   UNL     1      46.855   1.203   7.003  0.00  0.00    +0.000 A 
ATOM     13  C   UNL     1      46.248   0.969   8.238  0.00  0.00    +0.000 A 
ATOM     14  C   UNL     1      45.502   1.974   8.853  0.00  0.00    +0.000 A 
ATOM     15  C   UNL     1      45.350   3.220   8.234  0.00  0.00    +0.000 A 
ATOM     16  C   UNL     1      45.972   3.448   6.998  0.00  0.00    +0.000 A 
ENDBRANCH   9  15
ENDBRANCH   8   9
ENDBRANCH   2   8
ENDBRANCH   1   5
BRANCH   1  17
ATOM     17  N   UNL     1      48.328   6.505  14.581  0.00  0.00    +0.000 N 
ATOM     18  C   UNL     1      49.073   7.116  15.556  0.00  0.00    +0.000 C 
ATOM     19  O   UNL     1      49.117   8.340  15.663  0.00  0.00    +0.000 OA
ATOM     20  H   UNL     1      48.470   5.520  14.378  0.00  0.00    +0.000 HD
BRANCH  18  21
ATOM     21  C   UNL     1      49.774   6.244  16.503  0.00  0.00    +0.000 A 
ATOM     22  C   UNL     1      49.035   5.424  17.345  0.00  0.00    +0.000 A 
ATOM     23  S   UNL     1      49.990   4.462  18.376  0.00  0.00    +0.000 S 
ATOM     24  C   UNL     1      51.427   5.138  17.764  0.00  0.00    +0.000 A 
ATOM     25  N   UNL     1      52.637   4.767  18.262  0.00  0.00    +0.000 NA
ATOM     26  C   UNL     1      53.642   5.377  17.726  0.00  0.00    +0.000 A 
ATOM     27  N   UNL     1      53.545   6.314  16.728  0.00  0.00    +0.000 N 
ATOM     28  C   UNL     1      52.346   6.700  16.177  0.00  0.00    +0.000 A 
ATOM     29  O   UNL     1      52.298   7.509  15.257  0.00  0.00    +0.000 OA
ATOM     30  C   UNL     1      51.183   6.061  16.764  0.00  0.00    +0.000 A 
ATOM     31  H   UNL     1      54.373   6.741  16.343  0.00  0.00    +0.000 HD
ENDBRANCH  18  21
ENDBRANCH   1  17
TORSDOF 6
ENDMDL
MODEL 7
REMARK VINA RESULT:    -7.394      3.609      4.373
REMARK INTER + INTRA:         -11.057
REMARK INTER:                  -9.917
REMARK INTRA:                  -1.140
REMARK UNBOUND:                -1.070
REMARK  Name = 
REMARK  7 active torsions:
REMARK  status: ('A' for Active; 'I' for Inactive)
REMARK    1  A    between atoms: C_1  and  C_2
REMARK    2  A    between atoms: C_6  and  C_7
REMARK    3  A    between atoms: C_7  and  O_8
REMARK    4  A    between atoms: O_8  and  C_9
REMARK    5  A    between atoms: C_12  and  C_13
REMARK    6  A    between atoms: C_13  and  N_14
REMARK    7  A    between atoms: C_15  and  C_17
REMARK                            x       y       z     vdW  Elec       q    Type
REMARK                         _______ _______ _______ _____ _____    ______ ____
ROOT
ATOM      1  C   UNL     1      45.617   8.697  12.883  0.00  0.00    +0.000 C 
ENDROOT
BRANCH   1   5
ATOM      2  C   UNL     1      44.936   4.533  12.001  0.00  0.00    +0.000 A 
ATOM      3  C   UNL     1      43.926   5.467  11.761  0.00  0.00    +0.000 A 
ATOM      4  C   UNL     1      44.133   6.818  12.055  0.00  0.00    +0.000 A 
ATOM      5  C   UNL     1      45.353   7.245  12.594  0.00  0.00    +0.000 A 
ATOM      6  C   UNL     1      46.332   6.291  12.896  0.00  0.00    +0.000 A 
ATOM      7  C   UNL     1      46.124   4.945  12.605  0.00  0.00    +0.000 A 
BRANCH   2   8
ATOM      8  O   UNL     1      44.667   3.248  11.612  0.00  0.00    +0.000 OA
BRANCH   8   9
ATOM      9  C   UNL     1      44.013   3.133  10.344  0.00  0.00    +0.000 C 
BRANCH   9  15
ATOM     10  C   UNL     1      46.921   0.224   7.457  0.00  0.00    +0.000 C 
ATOM     11  C   UNL     1      46.432   1.592   7.829  0.00  0.00    +0.000 A 
ATOM     12  C   UNL     1      46.874   2.731   7.148  0.00  0.00    +0.000 A 
ATOM     13  C   UNL     1      46.404   3.995   7.507  0.00  0.00    +0.000 A 
ATOM     14  C   UNL     1      45.488   4.132   8.551  0.00  0.00    +0.000 A 
ATOM     15  C   UNL     1      45.040   3.004   9.249  0.00  0.00    +0.000 A 
ATOM     16  C   UNL     1      45.512   1.738   8.875  0.00  0.00    +0.000 A 
ENDBRANCH   9  15
ENDBRANCH   8   9
ENDBRANCH   2   8
ENDBRANCH   1   5
BRANCH   1  17
ATOM     17  N   UNL     1      46.899   8.883  13.509  0.00  0.00    +0.000 N 
ATOM     18  C   UNL     1      47.847   9.679  12.919  0.00  0.00    +0.000 C 
ATOM     19  O   UNL     1      47.620  10.288  11.876  0.00  0.00    +0.000 OA
ATOM     20  H   UNL     1      47.167   8.232  14.240  0.00  0.00    +0.000 HD
BRANCH  18  21
ATOM     21  C   UNL     1      49.129   9.815  13.617  0.00  0.00    +0.000 A 
ATOM     22  C   UNL     1      49.211  10.643  14.729  0.00  0.00    +0.000 A 
ATOM     23  S   UNL     1      50.759  10.687  15.438  0.00  0.00    +0.000 S 
ATOM     24  C   UNL     1      51.388   9.633  14.258  0.00  0.00    +0.000 A 
ATOM     25  N   UNL     1      52.703   9.286  14.266  0.00  0.00    +0.000 NA
ATOM     26  C   UNL     1      53.051   8.503  13.299  0.00  0.00    +0.000 A 
ATOM     27  N   UNL     1      52.199   8.025  12.335  0.00  0.00    +0.000 N 
ATOM     28  C   UNL     1      50.858   8.329  12.303  0.00  0.00    +0.000 A 
ATOM     29  O   UNL     1      50.116   7.851  11.452  0.00  0.00    +0.000 OA
ATOM     30  C   UNL     1      50.422   9.228  13.355  0.00  0.00    +0.000 A 
ATOM     31  H   UNL     1      52.535   7.402  11.616  0.00  0.00    +0.000 HD
ENDBRANCH  18  21
ENDBRANCH   1  17
TORSDOF 6
ENDMDL
MODEL 8
REMARK VINA RESULT:    -7.384      2.139      3.874
REMARK INTER + INTRA:         -11.044
REMARK INTER:                  -9.899
REMARK INTRA:                  -1.144
REMARK UNBOUND:                -1.070
REMARK  Name = 
REMARK  7 active torsions:
REMARK  status: ('A' for Active; 'I' for Inactive)
REMARK    1  A    between atoms: C_1  and  C_2
REMARK    2  A    between atoms: C_6  and  C_7
REMARK    3  A    between atoms: C_7  and  O_8
REMARK    4  A    between atoms: O_8  and  C_9
REMARK    5  A    between atoms: C_12  and  C_13
REMARK    6  A    between atoms: C_13  and  N_14
REMARK    7  A    between atoms: C_15  and  C_17
REMARK                            x       y       z     vdW  Elec       q    Type
REMARK                         _______ _______ _______ _____ _____    ______ ____
ROOT
ATOM      1  C   UNL     1      47.285   4.940  15.133  0.00  0.00    +0.000 C 
ENDROOT
BRANCH   1   5
ATOM      2  C   UNL     1      45.299   5.063  11.310  0.00  0.00    +0.000 A 
ATOM      3  C   UNL     1      44.989   4.051  12.220  0.00  0.00    +0.000 A 
ATOM      4  C   UNL     1      45.636   3.995  13.458  0.00  0.00    +0.000 A 
ATOM      5  C   UNL     1      46.602   4.953  13.794  0.00  0.00    +0.000 A 
ATOM      6  C   UNL     1      46.954   5.921  12.847  0.00  0.00    +0.000 A 
ATOM      7  C   UNL     1      46.310   5.974  11.613  0.00  0.00    +0.000 A 
BRANCH   2   8
ATOM      8  O   UNL     1      44.560   5.078  10.157  0.00  0.00    +0.000 OA
BRANCH   8   9
ATOM      9  C   UNL     1      44.200   3.784   9.662  0.00  0.00    +0.000 C 
BRANCH   9  15
ATOM     10  C   UNL     1      46.752  -0.077   7.702  0.00  0.00    +0.000 C 
ATOM     11  C   UNL     1      46.497   1.400   7.766  0.00  0.00    +0.000 A 
ATOM     12  C   UNL     1      47.200   2.294   6.953  0.00  0.00    +0.000 A 
ATOM     13  C   UNL     1      46.945   3.664   7.024  0.00  0.00    +0.000 A 
ATOM     14  C   UNL     1      45.985   4.153   7.910  0.00  0.00    +0.000 A 
ATOM     15  C   UNL     1      45.276   3.274   8.738  0.00  0.00    +0.000 A 
ATOM     16  C   UNL     1      45.534   1.898   8.652  0.00  0.00    +0.000 A 
ENDBRANCH   9  15
ENDBRANCH   8   9
ENDBRANCH   2   8
ENDBRANCH   1   5
BRANCH   1  17
ATOM     17  N   UNL     1      48.177   6.060  15.278  0.00  0.00    +0.000 N 
ATOM     18  C   UNL     1      48.735   6.345  16.497  0.00  0.00    +0.000 C 
ATOM     19  O   UNL     1      48.533   5.637  17.482  0.00  0.00    +0.000 OA
ATOM     20  H   UNL     1      48.181   6.759  14.542  0.00  0.00    +0.000 HD
BRANCH  18  21
ATOM     21  C   UNL     1      49.630   7.505  16.564  0.00  0.00    +0.000 A 
ATOM     22  C   UNL     1      50.801   7.415  17.303  0.00  0.00    +0.000 A 
ATOM     23  S   UNL     1      51.741   8.836  17.274  0.00  0.00    +0.000 S 
ATOM     24  C   UNL     1      50.594   9.638  16.306  0.00  0.00    +0.000 A 
ATOM     25  N   UNL     1      50.776  10.936  15.943  0.00  0.00    +0.000 NA
ATOM     26  C   UNL     1      49.817  11.429  15.232  0.00  0.00    +0.000 A 
ATOM     27  N   UNL     1      48.699  10.735  14.840  0.00  0.00    +0.000 N 
ATOM     28  C   UNL     1      48.486   9.415  15.161  0.00  0.00    +0.000 A 
ATOM     29  O   UNL     1      47.496   8.813  14.759  0.00  0.00    +0.000 OA
ATOM     30  C   UNL     1      49.524   8.822  15.983  0.00  0.00    +0.000 A 
ATOM     31  H   UNL     1      47.994  11.177  14.270  0.00  0.00    +0.000 HD
ENDBRANCH  18  21
ENDBRANCH   1  17
TORSDOF 6
ENDMDL
MODEL 9
REMARK VINA RESULT:    -7.204      1.682      2.407
REMARK INTER + INTRA:         -10.801
REMARK INTER:                  -9.437
REMARK INTRA:                  -1.363
REMARK UNBOUND:                -1.070
REMARK  Name = 
REMARK  7 active torsions:
REMARK  status: ('A' for Active; 'I' for Inactive)
REMARK    1  A    between atoms: C_1  and  C_2
REMARK    2  A    between atoms: C_6  and  C_7
REMARK    3  A    between atoms: C_7  and  O_8
REMARK    4  A    between atoms: O_8  and  C_9
REMARK    5  A    between atoms: C_12  and  C_13
REMARK    6  A    between atoms: C_13  and  N_14
REMARK    7  A    between atoms: C_15  and  C_17
REMARK                            x       y       z     vdW  Elec       q    Type
REMARK                         _______ _______ _______ _____ _____    ______ ____
ROOT
ATOM      1  C   UNL     1      49.090   7.029  13.968  0.00  0.00    +0.000 C 
ENDROOT
BRANCH   1   5
ATOM      2  C   UNL     1      45.160   5.827  12.671  0.00  0.00    +0.000 A 
ATOM      3  C   UNL     1      46.014   4.890  13.257  0.00  0.00    +0.000 A 
ATOM      4  C   UNL     1      47.295   5.267  13.671  0.00  0.00    +0.000 A 
ATOM      5  C   UNL     1      47.733   6.587  13.498  0.00  0.00    +0.000 A 
ATOM      6  C   UNL     1      46.896   7.499  12.846  0.00  0.00    +0.000 A 
ATOM      7  C   UNL     1      45.620   7.122  12.433  0.00  0.00    +0.000 A 
BRANCH   2   8
ATOM      8  O   UNL     1      43.901   5.382  12.369  0.00  0.00    +0.000 OA
BRANCH   8   9
ATOM      9  C   UNL     1      43.533   5.523  10.993  0.00  0.00    +0.000 C 
BRANCH   9  15
ATOM     10  C   UNL     1      46.533   4.006   7.258  0.00  0.00    +0.000 C 
ATOM     11  C   UNL     1      45.613   3.663   8.391  0.00  0.00    +0.000 A 
ATOM     12  C   UNL     1      45.351   2.334   8.737  0.00  0.00    +0.000 A 
ATOM     13  C   UNL     1      44.495   2.036   9.798  0.00  0.00    +0.000 A 
ATOM     14  C   UNL     1      43.893   3.065  10.523  0.00  0.00    +0.000 A 
ATOM     15  C   UNL     1      44.136   4.402  10.186  0.00  0.00    +0.000 A 
ATOM     16  C   UNL     1      45.005   4.690   9.124  0.00  0.00    +0.000 A 
ENDBRANCH   9  15
ENDBRANCH   8   9
ENDBRANCH   2   8
ENDBRANCH   1   5
BRANCH   1  17
ATOM     17  N   UNL     1      49.237   6.852  15.389  0.00  0.00    +0.000 N 
ATOM     18  C   UNL     1      48.816   7.829  16.254  0.00  0.00    +0.000 C 
ATOM     19  O   UNL     1      48.264   8.852  15.854  0.00  0.00    +0.000 OA
ATOM     20  H   UNL     1      49.870   6.127  15.713  0.00  0.00    +0.000 HD
BRANCH  18  21
ATOM     21  C   UNL     1      49.004   7.576  17.686  0.00  0.00    +0.000 A 
ATOM     22  C   UNL     1      49.520   8.582  18.490  0.00  0.00    +0.000 A 
ATOM     23  S   UNL     1      49.666   8.143  20.129  0.00  0.00    +0.000 S 
ATOM     24  C   UNL     1      49.084   6.575  19.816  0.00  0.00    +0.000 A 
ATOM     25  N   UNL     1      48.995   5.654  20.813  0.00  0.00    +0.000 NA
ATOM     26  C   UNL     1      48.564   4.498  20.431  0.00  0.00    +0.000 A 
ATOM     27  N   UNL     1      48.200   4.185  19.145  0.00  0.00    +0.000 N 
ATOM     28  C   UNL     1      48.248   5.091  18.112  0.00  0.00    +0.000 A 
ATOM     29  O   UNL     1      47.876   4.791  16.983  0.00  0.00    +0.000 OA
ATOM     30  C   UNL     1      48.752   6.400  18.485  0.00  0.00    +0.000 A 
ATOM     31  H   UNL     1      47.854   3.265  18.919  0.00  0.00    +0.000 HD
ENDBRANCH  18  21
ENDBRANCH   1  17
TORSDOF 6
ENDMDL
