MODEL 1
REMARK VINA RESULT:    -7.199      0.000      0.000
REMARK INTER + INTRA:         -10.830
REMARK INTER:                  -9.725
REMARK INTRA:                  -1.106
REMARK UNBOUND:                -1.106
REMARK  Name = 
REMARK  6 active torsions:
REMARK  status: ('A' for Active; 'I' for Inactive)
REMARK    1  A    between atoms: C_2  and  C_3
REMARK    2  A    between atoms: C_5  and  C_6
REMARK    3  A    between atoms: C_6  and  N_7
REMARK    4  A    between atoms: C_8  and  C_10
REMARK    5  A    between atoms: C_22  and  C_23
REMARK    6  A    between atoms: C_23  and  N_24
REMARK                            x       y       z     vdW  Elec       q    Type
REMARK                         _______ _______ _______ _____ _____    ______ ____
ROOT
ATOM      1  C   UNL     1      47.193   3.530  16.751  0.00  0.00    +0.000 C 
ENDROOT
BRANCH   1   4
ATOM      2  C   UNL     1      50.869   2.949  17.546  0.00  0.00    +0.000 A 
ATOM      3  C   UNL     1      49.489   2.736  17.386  0.00  0.00    +0.000 A 
ATOM      4  C   UNL     1      48.613   3.804  17.173  0.00  0.00    +0.000 A 
ATOM      5  C   UNL     1      49.108   5.105  17.284  0.00  0.00    +0.000 A 
ATOM      6  C   UNL     1      50.470   5.329  17.533  0.00  0.00    +0.000 A 
ATOM      7  C   UNL     1      51.384   4.259  17.619  0.00  0.00    +0.000 A 
BRANCH   2   9
ATOM      8  N   UNL     1      52.312   0.795  17.521  0.00  0.00    +0.000 NA
ATOM      9  C   UNL     1      51.690   1.775  17.480  0.00  0.00    +0.000 C 
ENDBRANCH   2   9
BRANCH   7  10
ATOM     10  C   UNL     1      52.873   4.579  17.634  0.00  0.00    +0.000 C 
BRANCH  10  11
ATOM     11  N   UNL     1      53.430   5.031  18.928  0.00  0.00    +0.000 NA
ATOM     12  C   UNL     1      54.907   4.905  18.918  0.00  0.00    +0.000 C 
ATOM     13  C   UNL     1      55.170   3.427  19.153  0.00  0.00    +0.000 C 
ATOM     14  C   UNL     1      54.073   3.033  20.130  0.00  0.00    +0.000 C 
ATOM     15  C   UNL     1      53.044   4.164  20.056  0.00  0.00    +0.000 C 
ENDBRANCH  10  11
ENDBRANCH   7  10
ENDBRANCH   1   4
BRANCH   1  16
ATOM     16  N   UNL     1      46.728   4.458  15.761  0.00  0.00    +0.000 N 
ATOM     17  C   UNL     1      46.760   4.184  14.422  0.00  0.00    +0.000 C 
ATOM     18  O   UNL     1      47.245   3.144  13.985  0.00  0.00    +0.000 OA
ATOM     19  H   UNL     1      46.308   5.316  16.102  0.00  0.00    +0.000 HD
BRANCH  17  20
ATOM     20  C   UNL     1      46.184   5.194  13.522  0.00  0.00    +0.000 A 
ATOM     21  C   UNL     1      46.929   6.327  13.215  0.00  0.00    +0.000 A 
ATOM     22  S   UNL     1      46.135   7.416  12.176  0.00  0.00    +0.000 S 
ATOM     23  C   UNL     1      44.764   6.414  12.088  0.00  0.00    +0.000 A 
ATOM     24  N   UNL     1      43.685   6.787  11.345  0.00  0.00    +0.000 NA
ATOM     25  C   UNL     1      42.714   5.937  11.353  0.00  0.00    +0.000 A 
ATOM     26  N   UNL     1      42.730   4.745  12.034  0.00  0.00    +0.000 N 
ATOM     27  C   UNL     1      43.782   4.330  12.798  0.00  0.00    +0.000 A 
ATOM     28  O   UNL     1      43.752   3.253  13.393  0.00  0.00    +0.000 OA
ATOM     29  C   UNL     1      44.910   5.253  12.832  0.00  0.00    +0.000 A 
ATOM     30  H   UNL     1      41.936   4.125  11.986  0.00  0.00    +0.000 HD
ENDBRANCH  17  20
ENDBRANCH   1  16
TORSDOF 6
ENDMDL
MODEL 2
REMARK VINA RESULT:    -7.063      3.032      4.120
REMARK INTER + INTRA:         -10.646
REMARK INTER:                  -9.394
REMARK INTRA:                  -1.252
REMARK UNBOUND:                -1.106
REMARK  Name = 
REMARK  6 active torsions:
REMARK  status: ('A' for Active; 'I' for Inactive)
REMARK    1  A    between atoms: C_2  and  C_3
REMARK    2  A    between atoms: C_5  and  C_6
REMARK    3  A    between atoms: C_6  and  N_7
REMARK    4  A    between atoms: C_8  and  C_10
REMARK    5  A    between atoms: C_22  and  C_23
REMARK    6  A    between atoms: C_23  and  N_24
REMARK                            x       y       z     vdW  Elec       q    Type
REMARK                         _______ _______ _______ _____ _____    ______ ____
ROOT
ATOM      1  C   UNL     1      48.495   7.210  13.117  0.00  0.00    +0.000 C 
ENDROOT
BRANCH   1   4
ATOM      2  C   UNL     1      48.251   5.308  16.405  0.00  0.00    +0.000 A 
ATOM      3  C   UNL     1      47.909   5.895  15.174  0.00  0.00    +0.000 A 
ATOM      4  C   UNL     1      48.765   6.800  14.542  0.00  0.00    +0.000 A 
ATOM      5  C   UNL     1      49.897   7.241  15.232  0.00  0.00    +0.000 A 
ATOM      6  C   UNL     1      50.200   6.728  16.501  0.00  0.00    +0.000 A 
ATOM      7  C   UNL     1      49.413   5.718  17.090  0.00  0.00    +0.000 A 
BRANCH   2   9
ATOM      8  N   UNL     1      46.691   3.372  17.143  0.00  0.00    +0.000 NA
ATOM      9  C   UNL     1      47.436   4.202  16.814  0.00  0.00    +0.000 C 
ENDBRANCH   2   9
BRANCH   7  10
ATOM     10  C   UNL     1      49.938   5.030  18.344  0.00  0.00    +0.000 C 
BRANCH  10  11
ATOM     11  N   UNL     1      50.023   5.867  19.560  0.00  0.00    +0.000 NA
ATOM     12  C   UNL     1      50.096   5.007  20.766  0.00  0.00    +0.000 C 
ATOM     13  C   UNL     1      48.665   4.550  21.001  0.00  0.00    +0.000 C 
ATOM     14  C   UNL     1      47.845   5.770  20.610  0.00  0.00    +0.000 C 
ATOM     15  C   UNL     1      48.800   6.654  19.804  0.00  0.00    +0.000 C 
ENDBRANCH  10  11
ENDBRANCH   7  10
ENDBRANCH   1   4
BRANCH   1  16
ATOM     16  N   UNL     1      47.649   6.275  12.433  0.00  0.00    +0.000 N 
ATOM     17  C   UNL     1      46.523   6.657  11.757  0.00  0.00    +0.000 C 
ATOM     18  O   UNL     1      46.139   7.824  11.746  0.00  0.00    +0.000 OA
ATOM     19  H   UNL     1      47.958   5.309  12.415  0.00  0.00    +0.000 HD
BRANCH  17  20
ATOM     20  C   UNL     1      45.789   5.606  11.037  0.00  0.00    +0.000 A 
ATOM     21  C   UNL     1      45.832   5.584   9.648  0.00  0.00    +0.000 A 
ATOM     22  S   UNL     1      44.926   4.324   8.949  0.00  0.00    +0.000 S 
ATOM     23  C   UNL     1      44.446   3.751  10.476  0.00  0.00    +0.000 A 
ATOM     24  N   UNL     1      43.627   2.668  10.579  0.00  0.00    +0.000 NA
ATOM     25  C   UNL     1      43.343   2.328  11.791  0.00  0.00    +0.000 A 
ATOM     26  N   UNL     1      43.810   2.974  12.909  0.00  0.00    +0.000 N 
ATOM     27  C   UNL     1      44.625   4.068  12.859  0.00  0.00    +0.000 A 
ATOM     28  O   UNL     1      45.018   4.616  13.888  0.00  0.00    +0.000 OA
ATOM     29  C   UNL     1      44.977   4.502  11.514  0.00  0.00    +0.000 A 
ATOM     30  H   UNL     1      43.552   2.645  13.827  0.00  0.00    +0.000 HD
ENDBRANCH  17  20
ENDBRANCH   1  16
TORSDOF 6
ENDMDL
MODEL 3
REMARK VINA RESULT:    -6.586      3.097      9.138
REMARK INTER + INTRA:         -10.002
REMARK INTER:                  -8.977
REMARK INTRA:                  -1.026
REMARK UNBOUND:                -1.106
REMARK  Name = 
REMARK  6 active torsions:
REMARK  status: ('A' for Active; 'I' for Inactive)
REMARK    1  A    between atoms: C_2  and  C_3
REMARK    2  A    between atoms: C_5  and  C_6
REMARK    3  A    between atoms: C_6  and  N_7
REMARK    4  A    between atoms: C_8  and  C_10
REMARK    5  A    between atoms: C_22  and  C_23
REMARK    6  A    between atoms: C_23  and  N_24
REMARK                            x       y       z     vdW  Elec       q    Type
REMARK                         _______ _______ _______ _____ _____    ______ ____
ROOT
ATOM      1  C   UNL     1      49.507   6.947  16.106  0.00  0.00    +0.000 C 
ENDROOT
BRANCH   1   4
ATOM      2  C   UNL     1      47.096   5.954  13.334  0.00  0.00    +0.000 A 
ATOM      3  C   UNL     1      47.954   6.715  14.147  0.00  0.00    +0.000 A 
ATOM      4  C   UNL     1      48.395   6.233  15.382  0.00  0.00    +0.000 A 
ATOM      5  C   UNL     1      47.837   5.050  15.874  0.00  0.00    +0.000 A 
ATOM      6  C   UNL     1      46.910   4.329  15.108  0.00  0.00    +0.000 A 
ATOM      7  C   UNL     1      46.559   4.739  13.807  0.00  0.00    +0.000 A 
BRANCH   2   9
ATOM      8  N   UNL     1      46.742   6.719  10.882  0.00  0.00    +0.000 NA
ATOM      9  C   UNL     1      46.937   6.423  11.988  0.00  0.00    +0.000 C 
ENDBRANCH   2   9
BRANCH   7  10
ATOM     10  C   UNL     1      45.751   3.782  12.940  0.00  0.00    +0.000 C 
BRANCH  10  11
ATOM     11  N   UNL     1      44.294   3.747  13.192  0.00  0.00    +0.000 NA
ATOM     12  C   UNL     1      43.623   2.894  12.181  0.00  0.00    +0.000 C 
ATOM     13  C   UNL     1      43.536   3.764  10.938  0.00  0.00    +0.000 C 
ATOM     14  C   UNL     1      43.274   5.150  11.506  0.00  0.00    +0.000 C 
ATOM     15  C   UNL     1      43.641   5.053  12.988  0.00  0.00    +0.000 C 
ENDBRANCH  10  11
ENDBRANCH   7  10
ENDBRANCH   1   4
BRANCH   1  16
ATOM     16  N   UNL     1      50.514   6.043  16.585  0.00  0.00    +0.000 N 
ATOM     17  C   UNL     1      50.551   5.596  17.876  0.00  0.00    +0.000 C 
ATOM     18  O   UNL     1      49.751   5.991  18.721  0.00  0.00    +0.000 OA
ATOM     19  H   UNL     1      51.174   5.692  15.898  0.00  0.00    +0.000 HD
BRANCH  17  20
ATOM     20  C   UNL     1      51.594   4.616  18.212  0.00  0.00    +0.000 A 
ATOM     21  C   UNL     1      52.714   5.040  18.916  0.00  0.00    +0.000 A 
ATOM     22  S   UNL     1      53.845   3.805  19.223  0.00  0.00    +0.000 S 
ATOM     23  C   UNL     1      52.878   2.651  18.433  0.00  0.00    +0.000 A 
ATOM     24  N   UNL     1      53.292   1.357  18.332  0.00  0.00    +0.000 NA
ATOM     25  C   UNL     1      52.465   0.580  17.719  0.00  0.00    +0.000 A 
ATOM     26  N   UNL     1      51.258   0.982  17.201  0.00  0.00    +0.000 N 
ATOM     27  C   UNL     1      50.802   2.266  17.268  0.00  0.00    +0.000 A 
ATOM     28  O   UNL     1      49.713   2.581  16.789  0.00  0.00    +0.000 OA
ATOM     29  C   UNL     1      51.697   3.194  17.948  0.00  0.00    +0.000 A 
ATOM     30  H   UNL     1      50.659   0.314  16.741  0.00  0.00    +0.000 HD
ENDBRANCH  17  20
ENDBRANCH   1  16
TORSDOF 6
ENDMDL
MODEL 4
REMARK VINA RESULT:    -6.493      3.110      8.906
REMARK INTER + INTRA:          -9.876
REMARK INTER:                  -8.481
REMARK INTRA:                  -1.395
REMARK UNBOUND:                -1.106
REMARK  Name = 
REMARK  6 active torsions:
REMARK  status: ('A' for Active; 'I' for Inactive)
REMARK    1  A    between atoms: C_2  and  C_3
REMARK    2  A    between atoms: C_5  and  C_6
REMARK    3  A    between atoms: C_6  and  N_7
REMARK    4  A    between atoms: C_8  and  C_10
REMARK    5  A    between atoms: C_22  and  C_23
REMARK    6  A    between atoms: C_23  and  N_24
REMARK                            x       y       z     vdW  Elec       q    Type
REMARK                         _______ _______ _______ _____ _____    ______ ____
ROOT
ATOM      1  C   UNL     1      49.643   8.445  12.973  0.00  0.00    +0.000 C 
ENDROOT
BRANCH   1   4
ATOM      2  C   UNL     1      47.008   5.699  12.997  0.00  0.00    +0.000 A 
ATOM      3  C   UNL     1      48.251   6.355  12.996  0.00  0.00    +0.000 A 
ATOM      4  C   UNL     1      48.347   7.722  12.716  0.00  0.00    +0.000 A 
ATOM      5  C   UNL     1      47.204   8.393  12.275  0.00  0.00    +0.000 A 
ATOM      6  C   UNL     1      45.975   7.724  12.187  0.00  0.00    +0.000 A 
ATOM      7  C   UNL     1      45.842   6.380  12.592  0.00  0.00    +0.000 A 
BRANCH   2   9
ATOM      8  N   UNL     1      47.103   3.310  14.001  0.00  0.00    +0.000 NA
ATOM      9  C   UNL     1      47.002   4.381  13.563  0.00  0.00    +0.000 C 
ENDBRANCH   2   9
BRANCH   7  10
ATOM     10  C   UNL     1      44.441   5.796  12.711  0.00  0.00    +0.000 C 
BRANCH  10  11
ATOM     11  N   UNL     1      43.773   5.440  11.441  0.00  0.00    +0.000 NA
ATOM     12  C   UNL     1      42.766   4.377  11.675  0.00  0.00    +0.000 C 
ATOM     13  C   UNL     1      43.576   3.095  11.779  0.00  0.00    +0.000 C 
ATOM     14  C   UNL     1      44.687   3.306  10.761  0.00  0.00    +0.000 C 
ATOM     15  C   UNL     1      44.682   4.808  10.468  0.00  0.00    +0.000 C 
ENDBRANCH  10  11
ENDBRANCH   7  10
ENDBRANCH   1   4
BRANCH   1  16
ATOM     16  N   UNL     1      50.511   7.714  13.851  0.00  0.00    +0.000 N 
ATOM     17  C   UNL     1      50.608   7.987  15.187  0.00  0.00    +0.000 C 
ATOM     18  O   UNL     1      49.997   8.919  15.704  0.00  0.00    +0.000 OA
ATOM     19  H   UNL     1      51.011   6.928  13.447  0.00  0.00    +0.000 HD
BRANCH  17  20
ATOM     20  C   UNL     1      51.480   7.112  15.984  0.00  0.00    +0.000 A 
ATOM     21  C   UNL     1      52.825   7.438  16.115  0.00  0.00    +0.000 A 
ATOM     22  S   UNL     1      53.717   6.331  17.051  0.00  0.00    +0.000 S 
ATOM     23  C   UNL     1      52.339   5.373  17.325  0.00  0.00    +0.000 A 
ATOM     24  N   UNL     1      52.428   4.234  18.067  0.00  0.00    +0.000 NA
ATOM     25  C   UNL     1      51.313   3.602  18.209  0.00  0.00    +0.000 A 
ATOM     26  N   UNL     1      50.114   4.011  17.677  0.00  0.00    +0.000 N 
ATOM     27  C   UNL     1      49.974   5.138  16.920  0.00  0.00    +0.000 A 
ATOM     28  O   UNL     1      48.880   5.466  16.463  0.00  0.00    +0.000 OA
ATOM     29  C   UNL     1      51.204   5.894  16.722  0.00  0.00    +0.000 A 
ATOM     30  H   UNL     1      49.280   3.469  17.838  0.00  0.00    +0.000 HD
ENDBRANCH  17  20
ENDBRANCH   1  16
TORSDOF 6
ENDMDL
MODEL 5
REMARK VINA RESULT:    -6.424      2.851      8.779
REMARK INTER + INTRA:          -9.783
REMARK INTER:                  -8.705
REMARK INTRA:                  -1.078
REMARK UNBOUND:                -1.106
REMARK  Name = 
REMARK  6 active torsions:
REMARK  status: ('A' for Active; 'I' for Inactive)
REMARK    1  A    between atoms: C_2  and  C_3
REMARK    2  A    between atoms: C_5  and  C_6
REMARK    3  A    between atoms: C_6  and  N_7
REMARK    4  A    between atoms: C_8  and  C_10
REMARK    5  A    between atoms: C_22  and  C_23
REMARK    6  A    between atoms: C_23  and  N_24
REMARK                            x       y       z     vdW  Elec       q    Type
REMARK                         _______ _______ _______ _____ _____    ______ ____
ROOT
ATOM      1  C   UNL     1      48.921   7.928  15.761  0.00  0.00    +0.000 C 
ENDROOT
BRANCH   1   4
ATOM      2  C   UNL     1      47.269   5.447  13.394  0.00  0.00    +0.000 A 
ATOM      3  C   UNL     1      48.090   5.990  14.398  0.00  0.00    +0.000 A 
ATOM      4  C   UNL     1      48.251   7.372  14.532  0.00  0.00    +0.000 A 
ATOM      5  C   UNL     1      47.713   8.204  13.547  0.00  0.00    +0.000 A 
ATOM      6  C   UNL     1      46.967   7.664  12.490  0.00  0.00    +0.000 A 
ATOM      7  C   UNL     1      46.689   6.284  12.419  0.00  0.00    +0.000 A 
BRANCH   2   9
ATOM      8  N   UNL     1      46.818   2.909  13.671  0.00  0.00    +0.000 NA
ATOM      9  C   UNL     1      46.964   4.053  13.528  0.00  0.00    +0.000 C 
ENDBRANCH   2   9
BRANCH   7  10
ATOM     10  C   UNL     1      45.668   5.803  11.397  0.00  0.00    +0.000 C 
BRANCH  10  11
ATOM     11  N   UNL     1      44.267   6.215  11.630  0.00  0.00    +0.000 NA
ATOM     12  C   UNL     1      43.835   5.805  12.989  0.00  0.00    +0.000 C 
ATOM     13  C   UNL     1      43.533   4.321  12.865  0.00  0.00    +0.000 C 
ATOM     14  C   UNL     1      42.928   4.207  11.474  0.00  0.00    +0.000 C 
ATOM     15  C   UNL     1      43.306   5.509  10.764  0.00  0.00    +0.000 C 
ENDBRANCH  10  11
ENDBRANCH   7  10
ENDBRANCH   1   4
BRANCH   1  16
ATOM     16  N   UNL     1      49.916   7.039  16.289  0.00  0.00    +0.000 N 
ATOM     17  C   UNL     1      49.674   6.204  17.344  0.00  0.00    +0.000 C 
ATOM     18  O   UNL     1      48.600   6.210  17.941  0.00  0.00    +0.000 OA
ATOM     19  H   UNL     1      50.804   7.007  15.799  0.00  0.00    +0.000 HD
BRANCH  17  20
ATOM     20  C   UNL     1      50.759   5.292  17.735  0.00  0.00    +0.000 A 
ATOM     21  C   UNL     1      51.875   5.811  18.381  0.00  0.00    +0.000 A 
ATOM     22  S   UNL     1      53.057   4.647  18.761  0.00  0.00    +0.000 S 
ATOM     23  C   UNL     1      52.121   3.399  18.083  0.00  0.00    +0.000 A 
ATOM     24  N   UNL     1      52.583   2.118  18.075  0.00  0.00    +0.000 NA
ATOM     25  C   UNL     1      51.777   1.265  17.541  0.00  0.00    +0.000 A 
ATOM     26  N   UNL     1      50.547   1.580  17.017  0.00  0.00    +0.000 N 
ATOM     27  C   UNL     1      50.043   2.848  16.993  0.00  0.00    +0.000 A 
ATOM     28  O   UNL     1      48.935   3.084  16.512  0.00  0.00    +0.000 OA
ATOM     29  C   UNL     1      50.913   3.858  17.581  0.00  0.00    +0.000 A 
ATOM     30  H   UNL     1      49.966   0.856  16.623  0.00  0.00    +0.000 HD
ENDBRANCH  17  20
ENDBRANCH   1  16
TORSDOF 6
ENDMDL
MODEL 6
REMARK VINA RESULT:    -6.359      4.746      7.169
REMARK INTER + INTRA:          -9.695
REMARK INTER:                  -8.990
REMARK INTRA:                  -0.705
REMARK UNBOUND:                -1.106
REMARK  Name = 
REMARK  6 active torsions:
REMARK  status: ('A' for Active; 'I' for Inactive)
REMARK    1  A    between atoms: C_2  and  C_3
REMARK    2  A    between atoms: C_5  and  C_6
REMARK    3  A    between atoms: C_6  and  N_7
REMARK    4  A    between atoms: C_8  and  C_10
REMARK    5  A    between atoms: C_22  and  C_23
REMARK    6  A    between atoms: C_23  and  N_24
REMARK                            x       y       z     vdW  Elec       q    Type
REMARK                         _______ _______ _______ _____ _____    ______ ____
ROOT
ATOM      1  C   UNL     1      44.203   4.968  10.645  0.00  0.00    +0.000 C 
ENDROOT
BRANCH   1   4
ATOM      2  C   UNL     1      46.480   5.308  13.676  0.00  0.00    +0.000 A 
ATOM      3  C   UNL     1      45.508   4.820  12.785  0.00  0.00    +0.000 A 
ATOM      4  C   UNL     1      45.043   5.601  11.724  0.00  0.00    +0.000 A 
ATOM      5  C   UNL     1      45.438   6.939  11.659  0.00  0.00    +0.000 A 
ATOM      6  C   UNL     1      46.339   7.461  12.598  0.00  0.00    +0.000 A 
ATOM      7  C   UNL     1      46.915   6.646  13.592  0.00  0.00    +0.000 A 
BRANCH   2   9
ATOM      8  N   UNL     1      47.478   3.563  15.314  0.00  0.00    +0.000 NA
ATOM      9  C   UNL     1      47.075   4.332  14.542  0.00  0.00    +0.000 C 
ENDBRANCH   2   9
BRANCH   7  10
ATOM     10  C   UNL     1      48.069   7.209  14.411  0.00  0.00    +0.000 C 
BRANCH  10  11
ATOM     11  N   UNL     1      49.429   6.913  13.910  0.00  0.00    +0.000 NA
ATOM     12  C   UNL     1      50.410   7.844  14.520  0.00  0.00    +0.000 C 
ATOM     13  C   UNL     1      50.246   9.140  13.744  0.00  0.00    +0.000 C 
ATOM     14  C   UNL     1      49.970   8.660  12.327  0.00  0.00    +0.000 C 
ATOM     15  C   UNL     1      49.585   7.186  12.470  0.00  0.00    +0.000 C 
ENDBRANCH  10  11
ENDBRANCH   7  10
ENDBRANCH   1   4
BRANCH   1  16
ATOM     16  N   UNL     1      44.967   4.090   9.806  0.00  0.00    +0.000 N 
ATOM     17  C   UNL     1      44.656   2.768   9.646  0.00  0.00    +0.000 C 
ATOM     18  O   UNL     1      43.733   2.241  10.262  0.00  0.00    +0.000 OA
ATOM     19  H   UNL     1      45.722   4.510   9.275  0.00  0.00    +0.000 HD
BRANCH  17  20
ATOM     20  C   UNL     1      45.477   2.000   8.699  0.00  0.00    +0.000 A 
ATOM     21  C   UNL     1      45.410   0.612   8.719  0.00  0.00    +0.000 A 
ATOM     22  S   UNL     1      46.424  -0.145   7.581  0.00  0.00    +0.000 S 
ATOM     23  C   UNL     1      46.988   1.353   7.008  0.00  0.00    +0.000 A 
ATOM     24  N   UNL     1      47.913   1.405   6.010  0.00  0.00    +0.000 NA
ATOM     25  C   UNL     1      48.253   2.598   5.660  0.00  0.00    +0.000 A 
ATOM     26  N   UNL     1      47.745   3.746   6.218  0.00  0.00    +0.000 N 
ATOM     27  C   UNL     1      46.825   3.748   7.225  0.00  0.00    +0.000 A 
ATOM     28  O   UNL     1      46.398   4.802   7.697  0.00  0.00    +0.000 OA
ATOM     29  C   UNL     1      46.404   2.424   7.667  0.00  0.00    +0.000 A 
ATOM     30  H   UNL     1      48.052   4.647   5.886  0.00  0.00    +0.000 HD
ENDBRANCH  17  20
ENDBRANCH   1  16
TORSDOF 6
ENDMDL
MODEL 7
REMARK VINA RESULT:    -6.311      4.144      9.356
REMARK INTER + INTRA:          -9.631
REMARK INTER:                  -8.814
REMARK INTRA:                  -0.817
REMARK UNBOUND:                -1.106
REMARK  Name = 
REMARK  6 active torsions:
REMARK  status: ('A' for Active; 'I' for Inactive)
REMARK    1  A    between atoms: C_2  and  C_3
REMARK    2  A    between atoms: C_5  and  C_6
REMARK    3  A    between atoms: C_6  and  N_7
REMARK    4  A    between atoms: C_8  and  C_10
REMARK    5  A    between atoms: C_22  and  C_23
REMARK    6  A    between atoms: C_23  and  N_24
REMARK                            x       y       z     vdW  Elec       q    Type
REMARK                         _______ _______ _______ _____ _____    ______ ____
ROOT
ATOM      1  C   UNL     1      44.493   5.256  12.910  0.00  0.00    +0.000 C 
ENDROOT
BRANCH   1   4
ATOM      2  C   UNL     1      45.078   3.261   9.722  0.00  0.00    +0.000 A 
ATOM      3  C   UNL     1      44.825   3.584  11.067  0.00  0.00    +0.000 A 
ATOM      4  C   UNL     1      45.013   4.884  11.546  0.00  0.00    +0.000 A 
ATOM      5  C   UNL     1      45.615   5.823  10.706  0.00  0.00    +0.000 A 
ATOM      6  C   UNL     1      45.954   5.485   9.388  0.00  0.00    +0.000 A 
ATOM      7  C   UNL     1      45.648   4.216   8.856  0.00  0.00    +0.000 A 
BRANCH   2   9
ATOM      8  N   UNL     1      44.222   0.980   8.835  0.00  0.00    +0.000 NA
ATOM      9  C   UNL     1      44.591   1.985   9.287  0.00  0.00    +0.000 C 
ENDBRANCH   2   9
BRANCH   7  10
ATOM     10  C   UNL     1      45.810   4.003   7.357  0.00  0.00    +0.000 C 
BRANCH  10  11
ATOM     11  N   UNL     1      47.173   3.673   6.889  0.00  0.00    +0.000 NA
ATOM     12  C   UNL     1      47.183   3.520   5.413  0.00  0.00    +0.000 C 
ATOM     13  C   UNL     1      46.604   2.137   5.166  0.00  0.00    +0.000 C 
ATOM     14  C   UNL     1      47.154   1.321   6.325  0.00  0.00    +0.000 C 
ATOM     15  C   UNL     1      47.638   2.352   7.348  0.00  0.00    +0.000 C 
ENDBRANCH  10  11
ENDBRANCH   7  10
ENDBRANCH   1   4
BRANCH   1  16
ATOM     16  N   UNL     1      45.545   5.635  13.810  0.00  0.00    +0.000 N 
ATOM     17  C   UNL     1      46.452   4.738  14.303  0.00  0.00    +0.000 C 
ATOM     18  O   UNL     1      46.380   3.539  14.048  0.00  0.00    +0.000 OA
ATOM     19  H   UNL     1      45.631   6.624  14.019  0.00  0.00    +0.000 HD
BRANCH  17  20
ATOM     20  C   UNL     1      47.522   5.274  15.157  0.00  0.00    +0.000 A 
ATOM     21  C   UNL     1      48.334   6.288  14.662  0.00  0.00    +0.000 A 
ATOM     22  S   UNL     1      49.539   6.801  15.749  0.00  0.00    +0.000 S 
ATOM     23  C   UNL     1      49.019   5.693  16.930  0.00  0.00    +0.000 A 
ATOM     24  N   UNL     1      49.658   5.614  18.130  0.00  0.00    +0.000 NA
ATOM     25  C   UNL     1      49.164   4.742  18.940  0.00  0.00    +0.000 A 
ATOM     26  N   UNL     1      48.082   3.944  18.658  0.00  0.00    +0.000 N 
ATOM     27  C   UNL     1      47.413   3.979  17.469  0.00  0.00    +0.000 A 
ATOM     28  O   UNL     1      46.448   3.243  17.260  0.00  0.00    +0.000 OA
ATOM     29  C   UNL     1      47.930   4.945  16.509  0.00  0.00    +0.000 A 
ATOM     30  H   UNL     1      47.745   3.289  19.347  0.00  0.00    +0.000 HD
ENDBRANCH  17  20
ENDBRANCH   1  16
TORSDOF 6
ENDMDL
MODEL 8
REMARK VINA RESULT:    -6.295      3.988      8.768
REMARK INTER + INTRA:          -9.609
REMARK INTER:                  -8.167
REMARK INTRA:                  -1.443
REMARK UNBOUND:                -1.106
REMARK  Name = 
REMARK  6 active torsions:
REMARK  status: ('A' for Active; 'I' for Inactive)
REMARK    1  A    between atoms: C_2  and  C_3
REMARK    2  A    between atoms: C_5  and  C_6
REMARK    3  A    between atoms: C_6  and  N_7
REMARK    4  A    between atoms: C_8  and  C_10
REMARK    5  A    between atoms: C_22  and  C_23
REMARK    6  A    between atoms: C_23  and  N_24
REMARK                            x       y       z     vdW  Elec       q    Type
REMARK                         _______ _______ _______ _____ _____    ______ ____
ROOT
ATOM      1  C   UNL     1      49.206   8.585  14.630  0.00  0.00    +0.000 C 
ENDROOT
BRANCH   1   4
ATOM      2  C   UNL     1      46.971   5.719  13.500  0.00  0.00    +0.000 A 
ATOM      3  C   UNL     1      48.105   6.454  13.886  0.00  0.00    +0.000 A 
ATOM      4  C   UNL     1      48.068   7.849  13.972  0.00  0.00    +0.000 A 
ATOM      5  C   UNL     1      46.931   8.514  13.509  0.00  0.00    +0.000 A 
ATOM      6  C   UNL     1      45.826   7.791  13.037  0.00  0.00    +0.000 A 
ATOM      7  C   UNL     1      45.805   6.383  13.069  0.00  0.00    +0.000 A 
BRANCH   2   9
ATOM      8  N   UNL     1      47.045   3.171  13.976  0.00  0.00    +0.000 NA
ATOM      9  C   UNL     1      47.046   4.303  13.715  0.00  0.00    +0.000 C 
ENDBRANCH   2   9
BRANCH   7  10
ATOM     10  C   UNL     1      44.488   5.672  12.784  0.00  0.00    +0.000 C 
BRANCH  10  11
ATOM     11  N   UNL     1      44.103   5.560  11.361  0.00  0.00    +0.000 NA
ATOM     12  C   UNL     1      42.915   4.683  11.222  0.00  0.00    +0.000 C 
ATOM     13  C   UNL     1      43.464   3.270  11.338  0.00  0.00    +0.000 C 
ATOM     14  C   UNL     1      44.808   3.364  10.633  0.00  0.00    +0.000 C 
ATOM     15  C   UNL     1      45.111   4.861  10.544  0.00  0.00    +0.000 C 
ENDBRANCH  10  11
ENDBRANCH   7  10
ENDBRANCH   1   4
BRANCH   1  16
ATOM     16  N   UNL     1      49.408   8.172  15.990  0.00  0.00    +0.000 N 
ATOM     17  C   UNL     1      48.665   8.662  17.028  0.00  0.00    +0.000 C 
ATOM     18  O   UNL     1      47.814   9.533  16.860  0.00  0.00    +0.000 OA
ATOM     19  H   UNL     1      50.094   7.441  16.147  0.00  0.00    +0.000 HD
BRANCH  17  20
ATOM     20  C   UNL     1      48.928   8.098  18.360  0.00  0.00    +0.000 A 
ATOM     21  C   UNL     1      49.418   8.931  19.358  0.00  0.00    +0.000 A 
ATOM     22  S   UNL     1      49.690   8.143  20.843  0.00  0.00    +0.000 S 
ATOM     23  C   UNL     1      49.155   6.657  20.212  0.00  0.00    +0.000 A 
ATOM     24  N   UNL     1      49.148   5.540  20.991  0.00  0.00    +0.000 NA
ATOM     25  C   UNL     1      48.712   4.480  20.399  0.00  0.00    +0.000 A 
ATOM     26  N   UNL     1      48.278   4.441  19.096  0.00  0.00    +0.000 N 
ATOM     27  C   UNL     1      48.274   5.528  18.272  0.00  0.00    +0.000 A 
ATOM     28  O   UNL     1      47.877   5.446  17.110  0.00  0.00    +0.000 OA
ATOM     29  C   UNL     1      48.761   6.757  18.886  0.00  0.00    +0.000 A 
ATOM     30  H   UNL     1      47.942   3.575  18.703  0.00  0.00    +0.000 HD
ENDBRANCH  17  20
ENDBRANCH   1  16
TORSDOF 6
ENDMDL
MODEL 9
REMARK VINA RESULT:    -6.290      2.987      9.478
REMARK INTER + INTRA:          -9.603
REMARK INTER:                  -8.964
REMARK INTRA:                  -0.638
REMARK UNBOUND:                -1.106
REMARK  Name = 
REMARK  6 active torsions:
REMARK  status: ('A' for Active; 'I' for Inactive)
REMARK    1  A    between atoms: C_2  and  C_3
REMARK    2  A    between atoms: C_5  and  C_6
REMARK    3  A    between atoms: C_6  and  N_7
REMARK    4  A    between atoms: C_8  and  C_10
REMARK    5  A    between atoms: C_22  and  C_23
REMARK    6  A    between atoms: C_23  and  N_24
REMARK                            x       y       z     vdW  Elec       q    Type
REMARK                         _______ _______ _______ _____ _____    ______ ____
ROOT
ATOM      1  C   UNL     1      46.911   4.124  14.580  0.00  0.00    +0.000 C 
ENDROOT
BRANCH   1   4
ATOM      2  C   UNL     1      44.659   6.040  12.184  0.00  0.00    +0.000 A 
ATOM      3  C   UNL     1      45.235   4.993  12.924  0.00  0.00    +0.000 A 
ATOM      4  C   UNL     1      46.450   5.166  13.593  0.00  0.00    +0.000 A 
ATOM      5  C   UNL     1      47.168   6.345  13.380  0.00  0.00    +0.000 A 
ATOM      6  C   UNL     1      46.641   7.360  12.569  0.00  0.00    +0.000 A 
ATOM      7  C   UNL     1      45.358   7.249  11.996  0.00  0.00    +0.000 A 
BRANCH   2   9
ATOM      8  N   UNL     1      42.212   5.569  11.464  0.00  0.00    +0.000 NA
ATOM      9  C   UNL     1      43.298   5.838  11.780  0.00  0.00    +0.000 C 
ENDBRANCH   2   9
BRANCH   7  10
ATOM     10  C   UNL     1      44.748   8.483  11.344  0.00  0.00    +0.000 C 
BRANCH  10  11
ATOM     11  N   UNL     1      44.810   9.734  12.130  0.00  0.00    +0.000 NA
ATOM     12  C   UNL     1      43.690  10.629  11.753  0.00  0.00    +0.000 C 
ATOM     13  C   UNL     1      44.125  11.259  10.440  0.00  0.00    +0.000 C 
ATOM     14  C   UNL     1      45.622  11.446  10.628  0.00  0.00    +0.000 C 
ATOM     15  C   UNL     1      45.993  10.555  11.815  0.00  0.00    +0.000 C 
ENDBRANCH  10  11
ENDBRANCH   7  10
ENDBRANCH   1   4
BRANCH   1  16
ATOM     16  N   UNL     1      47.456   4.707  15.773  0.00  0.00    +0.000 N 
ATOM     17  C   UNL     1      47.245   4.178  17.015  0.00  0.00    +0.000 C 
ATOM     18  O   UNL     1      46.522   3.199  17.188  0.00  0.00    +0.000 OA
ATOM     19  H   UNL     1      48.071   5.505  15.650  0.00  0.00    +0.000 HD
BRANCH  17  20
ATOM     20  C   UNL     1      47.924   4.832  18.143  0.00  0.00    +0.000 A 
ATOM     21  C   UNL     1      47.210   5.726  18.932  0.00  0.00    +0.000 A 
ATOM     22  S   UNL     1      48.124   6.420  20.190  0.00  0.00    +0.000 S 
ATOM     23  C   UNL     1      49.510   5.547  19.734  0.00  0.00    +0.000 A 
ATOM     24  N   UNL     1      50.677   5.699  20.421  0.00  0.00    +0.000 NA
ATOM     25  C   UNL     1      51.651   4.976  19.983  0.00  0.00    +0.000 A 
ATOM     26  N   UNL     1      51.560   4.110  18.920  0.00  0.00    +0.000 N 
ATOM     27  C   UNL     1      50.418   3.929  18.195  0.00  0.00    +0.000 A 
ATOM     28  O   UNL     1      50.383   3.143  17.249  0.00  0.00    +0.000 OA
ATOM     29  C   UNL     1      49.281   4.724  18.642  0.00  0.00    +0.000 A 
ATOM     30  H   UNL     1      52.363   3.570  18.639  0.00  0.00    +0.000 HD
ENDBRANCH  17  20
ENDBRANCH   1  16
TORSDOF 6
ENDMDL
