MODEL 1
REMARK VINA RESULT:    -8.570      0.000      0.000
REMARK INTER + INTRA:         -13.338
REMARK INTER:                 -12.077
REMARK INTRA:                  -1.261
REMARK UNBOUND:                -1.261
REMARK  Name = 
REMARK  8 active torsions:
REMARK  status: ('A' for Active; 'I' for Inactive)
REMARK    1  A    between atoms: C_1  and  C_2
REMARK    2  A    between atoms: C_2  and  N_3
REMARK    3  A    between atoms: C_2  and  C_25
REMARK    4  A    between atoms: N_3  and  C_4
REMARK    5  A    between atoms: C_4  and  C_5
REMARK    6  A    between atoms: C_8  and  C_9
REMARK    7  A    between atoms: C_9  and  N_10
REMARK    8  A    between atoms: C_11  and  C_13
REMARK                            x       y       z     vdW  Elec       q    Type
REMARK                         _______ _______ _______ _____ _____    ______ ____
ROOT
ATOM      1  C   UNL     1      44.648   5.682  10.966  0.00  0.00    +0.000 A 
ATOM      2  C   UNL     1      44.128   6.404  12.051  0.00  0.00    +0.000 A 
ATOM      3  C   UNL     1      44.954   7.223  12.828  0.00  0.00    +0.000 A 
ATOM      4  C   UNL     1      46.317   7.344  12.531  0.00  0.00    +0.000 A 
ATOM      5  C   UNL     1      46.836   6.624  11.447  0.00  0.00    +0.000 A 
ATOM      6  C   UNL     1      46.010   5.807  10.669  0.00  0.00    +0.000 A 
ENDROOT
BRANCH   1   7
ATOM      7  C   UNL     1      43.773   4.719  10.190  0.00  0.00    +0.000 C 
BRANCH   7   8
ATOM      8  N   UNL     1      44.438   4.229   8.988  0.00  0.00    +0.000 NA
ATOM      9  H   UNL     1      45.130   4.920   8.695  0.00  0.00    +0.000 HD
BRANCH   8  11
ATOM     10  C   UNL     1      44.165   1.760   9.364  0.00  0.00    +0.000 C 
ATOM     11  C   UNL     1      45.125   2.943   9.172  0.00  0.00    +0.000 C 
BRANCH  11  12
ATOM     12  C   UNL     1      46.020   2.668   7.967  0.00  0.00    +0.000 A 
ATOM     13  C   UNL     1      46.680   1.438   7.829  0.00  0.00    +0.000 A 
ATOM     14  C   UNL     1      47.476   1.182   6.710  0.00  0.00    +0.000 A 
ATOM     15  C   UNL     1      47.622   2.149   5.716  0.00  0.00    +0.000 A 
ATOM     16  C   UNL     1      46.977   3.376   5.842  0.00  0.00    +0.000 A 
ATOM     17  C   UNL     1      46.184   3.634   6.961  0.00  0.00    +0.000 A 
ENDBRANCH  11  12
ENDBRANCH   8  11
ENDBRANCH   7   8
ENDBRANCH   1   7
BRANCH   4  18
ATOM     18  C   UNL     1      47.226   8.176  13.395  0.00  0.00    +0.000 C 
BRANCH  18  19
ATOM     19  N   UNL     1      47.580   7.473  14.604  0.00  0.00    +0.000 N 
ATOM     20  C   UNL     1      48.817   6.903  14.758  0.00  0.00    +0.000 C 
ATOM     21  O   UNL     1      49.689   7.005  13.899  0.00  0.00    +0.000 OA
ATOM     22  H   UNL     1      46.820   7.201  15.221  0.00  0.00    +0.000 HD
BRANCH  20  23
ATOM     23  C   UNL     1      49.074   6.212  16.027  0.00  0.00    +0.000 A 
ATOM     24  C   UNL     1      50.094   6.661  16.857  0.00  0.00    +0.000 A 
ATOM     25  S   UNL     1      50.245   5.772  18.303  0.00  0.00    +0.000 S 
ATOM     26  C   UNL     1      48.984   4.722  17.853  0.00  0.00    +0.000 A 
ATOM     27  N   UNL     1      48.617   3.687  18.655  0.00  0.00    +0.000 NA
ATOM     28  C   UNL     1      47.668   2.956  18.177  0.00  0.00    +0.000 A 
ATOM     29  N   UNL     1      47.046   3.167  16.975  0.00  0.00    +0.000 N 
ATOM     30  C   UNL     1      47.364   4.215  16.145  0.00  0.00    +0.000 A 
ATOM     31  O   UNL     1      46.758   4.401  15.094  0.00  0.00    +0.000 OA
ATOM     32  C   UNL     1      48.438   5.062  16.626  0.00  0.00    +0.000 A 
ATOM     33  H   UNL     1      46.299   2.560  16.664  0.00  0.00    +0.000 HD
ENDBRANCH  20  23
ENDBRANCH  18  19
ENDBRANCH   4  18
TORSDOF 7
ENDMDL
MODEL 2
REMARK VINA RESULT:    -8.363      1.934      2.433
REMARK INTER + INTRA:         -13.047
REMARK INTER:                 -12.150
REMARK INTRA:                  -0.897
REMARK UNBOUND:                -1.261
REMARK  Name = 
REMARK  8 active torsions:
REMARK  status: ('A' for Active; 'I' for Inactive)
REMARK    1  A    between atoms: C_1  and  C_2
REMARK    2  A    between atoms: C_2  and  N_3
REMARK    3  A    between atoms: C_2  and  C_25
REMARK    4  A    between atoms: N_3  and  C_4
REMARK    5  A    between atoms: C_4  and  C_5
REMARK    6  A    between atoms: C_8  and  C_9
REMARK    7  A    between atoms: C_9  and  N_10
REMARK    8  A    between atoms: C_11  and  C_13
REMARK                            x       y       z     vdW  Elec       q    Type
REMARK                         _______ _______ _______ _____ _____    ______ ____
ROOT
ATOM      1  C   UNL     1      45.311   4.222  12.148  0.00  0.00    +0.000 A 
ATOM      2  C   UNL     1      46.050   3.764  13.250  0.00  0.00    +0.000 A 
ATOM      3  C   UNL     1      47.035   4.567  13.834  0.00  0.00    +0.000 A 
ATOM      4  C   UNL     1      47.298   5.848  13.334  0.00  0.00    +0.000 A 
ATOM      5  C   UNL     1      46.559   6.306  12.234  0.00  0.00    +0.000 A 
ATOM      6  C   UNL     1      45.574   5.504  11.650  0.00  0.00    +0.000 A 
ENDROOT
BRANCH   1   7
ATOM      7  C   UNL     1      44.318   3.313  11.454  0.00  0.00    +0.000 C 
BRANCH   7   8
ATOM      8  N   UNL     1      44.952   2.502  10.420  0.00  0.00    +0.000 NA
ATOM      9  H   UNL     1      44.735   1.521  10.599  0.00  0.00    +0.000 HD
BRANCH   8  11
ATOM     10  C   UNL     1      44.073   4.290   8.889  0.00  0.00    +0.000 C 
ATOM     11  C   UNL     1      44.510   2.827   9.057  0.00  0.00    +0.000 C 
BRANCH  11  12
ATOM     12  C   UNL     1      45.636   2.528   8.072  0.00  0.00    +0.000 A 
ATOM     13  C   UNL     1      46.029   3.480   7.120  0.00  0.00    +0.000 A 
ATOM     14  C   UNL     1      47.080   3.210   6.239  0.00  0.00    +0.000 A 
ATOM     15  C   UNL     1      47.749   1.989   6.299  0.00  0.00    +0.000 A 
ATOM     16  C   UNL     1      47.367   1.033   7.235  0.00  0.00    +0.000 A 
ATOM     17  C   UNL     1      46.316   1.299   8.114  0.00  0.00    +0.000 A 
ENDBRANCH  11  12
ENDBRANCH   8  11
ENDBRANCH   7   8
ENDBRANCH   1   7
BRANCH   4  18
ATOM     18  C   UNL     1      48.395   6.697  13.919  0.00  0.00    +0.000 C 
BRANCH  18  19
ATOM     19  N   UNL     1      48.214   6.871  15.340  0.00  0.00    +0.000 N 
ATOM     20  C   UNL     1      49.237   6.636  16.220  0.00  0.00    +0.000 C 
ATOM     21  O   UNL     1      50.359   6.312  15.838  0.00  0.00    +0.000 OA
ATOM     22  H   UNL     1      47.259   6.929  15.681  0.00  0.00    +0.000 HD
BRANCH  20  23
ATOM     23  C   UNL     1      48.947   6.844  17.643  0.00  0.00    +0.000 A 
ATOM     24  C   UNL     1      48.803   8.137  18.131  0.00  0.00    +0.000 A 
ATOM     25  S   UNL     1      48.441   8.209  19.794  0.00  0.00    +0.000 S 
ATOM     26  C   UNL     1      48.510   6.515  19.937  0.00  0.00    +0.000 A 
ATOM     27  N   UNL     1      48.317   5.906  21.138  0.00  0.00    +0.000 NA
ATOM     28  C   UNL     1      48.426   4.622  21.106  0.00  0.00    +0.000 A 
ATOM     29  N   UNL     1      48.702   3.887  19.983  0.00  0.00    +0.000 N 
ATOM     30  C   UNL     1      48.876   4.454  18.744  0.00  0.00    +0.000 A 
ATOM     31  O   UNL     1      49.080   3.764  17.751  0.00  0.00    +0.000 OA
ATOM     32  C   UNL     1      48.781   5.901  18.725  0.00  0.00    +0.000 A 
ATOM     33  H   UNL     1      48.762   2.878  20.026  0.00  0.00    +0.000 HD
ENDBRANCH  20  23
ENDBRANCH  18  19
ENDBRANCH   4  18
TORSDOF 7
ENDMDL
MODEL 3
REMARK VINA RESULT:    -8.094      2.575      3.134
REMARK INTER + INTRA:         -12.668
REMARK INTER:                 -11.509
REMARK INTRA:                  -1.159
REMARK UNBOUND:                -1.261
REMARK  Name = 
REMARK  8 active torsions:
REMARK  status: ('A' for Active; 'I' for Inactive)
REMARK    1  A    between atoms: C_1  and  C_2
REMARK    2  A    between atoms: C_2  and  N_3
REMARK    3  A    between atoms: C_2  and  C_25
REMARK    4  A    between atoms: N_3  and  C_4
REMARK    5  A    between atoms: C_4  and  C_5
REMARK    6  A    between atoms: C_8  and  C_9
REMARK    7  A    between atoms: C_9  and  N_10
REMARK    8  A    between atoms: C_11  and  C_13
REMARK                            x       y       z     vdW  Elec       q    Type
REMARK                         _______ _______ _______ _____ _____    ______ ____
ROOT
ATOM      1  C   UNL     1      45.553   4.488  12.239  0.00  0.00    +0.000 A 
ATOM      2  C   UNL     1      45.990   5.699  11.682  0.00  0.00    +0.000 A 
ATOM      3  C   UNL     1      46.942   6.487  12.337  0.00  0.00    +0.000 A 
ATOM      4  C   UNL     1      47.484   6.075  13.562  0.00  0.00    +0.000 A 
ATOM      5  C   UNL     1      47.049   4.865  14.118  0.00  0.00    +0.000 A 
ATOM      6  C   UNL     1      46.098   4.077  13.462  0.00  0.00    +0.000 A 
ENDROOT
BRANCH   1   7
ATOM      7  C   UNL     1      44.450   3.688  11.579  0.00  0.00    +0.000 C 
BRANCH   7   8
ATOM      8  N   UNL     1      44.979   2.693  10.652  0.00  0.00    +0.000 NA
ATOM      9  H   UNL     1      44.678   1.768  10.962  0.00  0.00    +0.000 HD
BRANCH   8  11
ATOM     10  C   UNL     1      44.076   4.312   8.955  0.00  0.00    +0.000 C 
ATOM     11  C   UNL     1      44.532   2.878   9.264  0.00  0.00    +0.000 C 
BRANCH  11  12
ATOM     12  C   UNL     1      45.662   2.500   8.311  0.00  0.00    +0.000 A 
ATOM     13  C   UNL     1      46.127   1.178   8.238  0.00  0.00    +0.000 A 
ATOM     14  C   UNL     1      47.144   0.832   7.345  0.00  0.00    +0.000 A 
ATOM     15  C   UNL     1      47.707   1.800   6.513  0.00  0.00    +0.000 A 
ATOM     16  C   UNL     1      47.258   3.116   6.577  0.00  0.00    +0.000 A 
ATOM     17  C   UNL     1      46.245   3.463   7.472  0.00  0.00    +0.000 A 
ENDBRANCH  11  12
ENDBRANCH   8  11
ENDBRANCH   7   8
ENDBRANCH   1   7
BRANCH   4  18
ATOM     18  C   UNL     1      48.466   6.943  14.303  0.00  0.00    +0.000 C 
BRANCH  18  19
ATOM     19  N   UNL     1      48.187   6.948  15.719  0.00  0.00    +0.000 N 
ATOM     20  C   UNL     1      49.074   6.420  16.620  0.00  0.00    +0.000 C 
ATOM     21  O   UNL     1      50.160   5.964  16.269  0.00  0.00    +0.000 OA
ATOM     22  H   UNL     1      47.226   7.121  16.001  0.00  0.00    +0.000 HD
BRANCH  20  23
ATOM     23  C   UNL     1      48.693   6.477  18.036  0.00  0.00    +0.000 A 
ATOM     24  C   UNL     1      48.848   5.350  18.833  0.00  0.00    +0.000 A 
ATOM     25  S   UNL     1      48.389   5.588  20.457  0.00  0.00    +0.000 S 
ATOM     26  C   UNL     1      47.920   7.193  20.145  0.00  0.00    +0.000 A 
ATOM     27  N   UNL     1      47.395   7.972  21.130  0.00  0.00    +0.000 NA
ATOM     28  C   UNL     1      47.058   9.156  20.748  0.00  0.00    +0.000 A 
ATOM     29  N   UNL     1      47.202   9.638  19.474  0.00  0.00    +0.000 N 
ATOM     30  C   UNL     1      47.752   8.899  18.454  0.00  0.00    +0.000 A 
ATOM     31  O   UNL     1      47.907   9.376  17.334  0.00  0.00    +0.000 OA
ATOM     32  C   UNL     1      48.135   7.551  18.824  0.00  0.00    +0.000 A 
ATOM     33  H   UNL     1      46.926  10.584  19.243  0.00  0.00    +0.000 HD
ENDBRANCH  20  23
ENDBRANCH  18  19
ENDBRANCH   4  18
TORSDOF 7
ENDMDL
MODEL 4
REMARK VINA RESULT:    -7.676      2.399      3.605
REMARK INTER + INTRA:         -12.079
REMARK INTER:                 -11.027
REMARK INTRA:                  -1.052
REMARK UNBOUND:                -1.261
REMARK  Name = 
REMARK  8 active torsions:
REMARK  status: ('A' for Active; 'I' for Inactive)
REMARK    1  A    between atoms: C_1  and  C_2
REMARK    2  A    between atoms: C_2  and  N_3
REMARK    3  A    between atoms: C_2  and  C_25
REMARK    4  A    between atoms: N_3  and  C_4
REMARK    5  A    between atoms: C_4  and  C_5
REMARK    6  A    between atoms: C_8  and  C_9
REMARK    7  A    between atoms: C_9  and  N_10
REMARK    8  A    between atoms: C_11  and  C_13
REMARK                            x       y       z     vdW  Elec       q    Type
REMARK                         _______ _______ _______ _____ _____    ______ ____
ROOT
ATOM      1  C   UNL     1      44.599   4.512  11.928  0.00  0.00    +0.000 A 
ATOM      2  C   UNL     1      45.233   3.291  12.205  0.00  0.00    +0.000 A 
ATOM      3  C   UNL     1      46.234   3.208  13.179  0.00  0.00    +0.000 A 
ATOM      4  C   UNL     1      46.618   4.344  13.902  0.00  0.00    +0.000 A 
ATOM      5  C   UNL     1      45.984   5.564  13.627  0.00  0.00    +0.000 A 
ATOM      6  C   UNL     1      44.982   5.646  12.655  0.00  0.00    +0.000 A 
ENDROOT
BRANCH   1   7
ATOM      7  C   UNL     1      43.589   4.619  10.805  0.00  0.00    +0.000 C 
BRANCH   7   8
ATOM      8  N   UNL     1      43.883   3.690   9.719  0.00  0.00    +0.000 NA
ATOM      9  H   UNL     1      43.002   3.406   9.288  0.00  0.00    +0.000 HD
BRANCH   8  11
ATOM     10  C   UNL     1      45.671   5.371   9.178  0.00  0.00    +0.000 C 
ATOM     11  C   UNL     1      44.743   4.256   8.671  0.00  0.00    +0.000 C 
BRANCH  11  12
ATOM     12  C   UNL     1      45.590   3.147   8.054  0.00  0.00    +0.000 A 
ATOM     13  C   UNL     1      46.411   3.403   6.946  0.00  0.00    +0.000 A 
ATOM     14  C   UNL     1      47.204   2.389   6.402  0.00  0.00    +0.000 A 
ATOM     15  C   UNL     1      47.188   1.111   6.958  0.00  0.00    +0.000 A 
ATOM     16  C   UNL     1      46.375   0.841   8.055  0.00  0.00    +0.000 A 
ATOM     17  C   UNL     1      45.579   1.851   8.597  0.00  0.00    +0.000 A 
ENDBRANCH  11  12
ENDBRANCH   8  11
ENDBRANCH   7   8
ENDBRANCH   1   7
BRANCH   4  18
ATOM     18  C   UNL     1      47.734   4.279  14.910  0.00  0.00    +0.000 C 
BRANCH  18  19
ATOM     19  N   UNL     1      47.599   5.320  15.901  0.00  0.00    +0.000 N 
ATOM     20  C   UNL     1      48.528   5.477  16.896  0.00  0.00    +0.000 C 
ATOM     21  O   UNL     1      49.532   4.773  16.962  0.00  0.00    +0.000 OA
ATOM     22  H   UNL     1      46.689   5.762  15.987  0.00  0.00    +0.000 HD
BRANCH  20  23
ATOM     23  C   UNL     1      48.296   6.568  17.851  0.00  0.00    +0.000 A 
ATOM     24  C   UNL     1      48.125   6.274  19.198  0.00  0.00    +0.000 A 
ATOM     25  S   UNL     1      47.896   7.649  20.178  0.00  0.00    +0.000 S 
ATOM     26  C   UNL     1      47.969   8.687  18.832  0.00  0.00    +0.000 A 
ATOM     27  N   UNL     1      47.812  10.030  18.976  0.00  0.00    +0.000 NA
ATOM     28  C   UNL     1      47.863  10.692  17.870  0.00  0.00    +0.000 A 
ATOM     29  N   UNL     1      48.063  10.138  16.634  0.00  0.00    +0.000 N 
ATOM     30  C   UNL     1      48.255   8.791  16.443  0.00  0.00    +0.000 A 
ATOM     31  O   UNL     1      48.475   8.331  15.326  0.00  0.00    +0.000 OA
ATOM     32  C   UNL     1      48.191   7.994  17.653  0.00  0.00    +0.000 A 
ATOM     33  H   UNL     1      48.103  10.718  15.806  0.00  0.00    +0.000 HD
ENDBRANCH  20  23
ENDBRANCH  18  19
ENDBRANCH   4  18
TORSDOF 7
ENDMDL
MODEL 5
REMARK VINA RESULT:    -7.418      2.657      3.359
REMARK INTER + INTRA:         -11.715
REMARK INTER:                 -10.732
REMARK INTRA:                  -0.983
REMARK UNBOUND:                -1.261
REMARK  Name = 
REMARK  8 active torsions:
REMARK  status: ('A' for Active; 'I' for Inactive)
REMARK    1  A    between atoms: C_1  and  C_2
REMARK    2  A    between atoms: C_2  and  N_3
REMARK    3  A    between atoms: C_2  and  C_25
REMARK    4  A    between atoms: N_3  and  C_4
REMARK    5  A    between atoms: C_4  and  C_5
REMARK    6  A    between atoms: C_8  and  C_9
REMARK    7  A    between atoms: C_9  and  N_10
REMARK    8  A    between atoms: C_11  and  C_13
REMARK                            x       y       z     vdW  Elec       q    Type
REMARK                         _______ _______ _______ _____ _____    ______ ____
ROOT
ATOM      1  C   UNL     1      44.652   4.625  11.754  0.00  0.00    +0.000 A 
ATOM      2  C   UNL     1      45.229   3.388  12.080  0.00  0.00    +0.000 A 
ATOM      3  C   UNL     1      46.131   3.276  13.143  0.00  0.00    +0.000 A 
ATOM      4  C   UNL     1      46.470   4.399  13.908  0.00  0.00    +0.000 A 
ATOM      5  C   UNL     1      45.893   5.634  13.585  0.00  0.00    +0.000 A 
ATOM      6  C   UNL     1      44.990   5.746  12.523  0.00  0.00    +0.000 A 
ENDROOT
BRANCH   1   7
ATOM      7  C   UNL     1      43.755   4.763  10.542  0.00  0.00    +0.000 C 
BRANCH   7   8
ATOM      8  N   UNL     1      44.072   3.775   9.516  0.00  0.00    +0.000 NA
ATOM      9  H   UNL     1      43.201   3.459   9.089  0.00  0.00    +0.000 HD
BRANCH   8  11
ATOM     10  C   UNL     1      45.879   5.414   8.913  0.00  0.00    +0.000 C 
ATOM     11  C   UNL     1      44.945   4.287   8.449  0.00  0.00    +0.000 C 
BRANCH  11  12
ATOM     12  C   UNL     1      45.784   3.144   7.887  0.00  0.00    +0.000 A 
ATOM     13  C   UNL     1      45.728   1.864   8.457  0.00  0.00    +0.000 A 
ATOM     14  C   UNL     1      46.479   0.815   7.921  0.00  0.00    +0.000 A 
ATOM     15  C   UNL     1      47.293   1.031   6.810  0.00  0.00    +0.000 A 
ATOM     16  C   UNL     1      47.362   2.297   6.235  0.00  0.00    +0.000 A 
ATOM     17  C   UNL     1      46.615   3.346   6.772  0.00  0.00    +0.000 A 
ENDBRANCH  11  12
ENDBRANCH   8  11
ENDBRANCH   7   8
ENDBRANCH   1   7
BRANCH   4  18
ATOM     18  C   UNL     1      47.484   4.302  15.017  0.00  0.00    +0.000 C 
BRANCH  18  19
ATOM     19  N   UNL     1      47.709   5.589  15.628  0.00  0.00    +0.000 N 
ATOM     20  C   UNL     1      48.527   5.724  16.719  0.00  0.00    +0.000 C 
ATOM     21  O   UNL     1      49.137   4.769  17.194  0.00  0.00    +0.000 OA
ATOM     22  H   UNL     1      47.063   6.335  15.388  0.00  0.00    +0.000 HD
BRANCH  20  23
ATOM     23  C   UNL     1      48.689   7.078  17.262  0.00  0.00    +0.000 A 
ATOM     24  C   UNL     1      49.305   8.056  16.491  0.00  0.00    +0.000 A 
ATOM     25  S   UNL     1      49.389   9.579  17.251  0.00  0.00    +0.000 S 
ATOM     26  C   UNL     1      48.649   8.976  18.660  0.00  0.00    +0.000 A 
ATOM     27  N   UNL     1      48.445   9.778  19.740  0.00  0.00    +0.000 NA
ATOM     28  C   UNL     1      47.901   9.185  20.747  0.00  0.00    +0.000 A 
ATOM     29  N   UNL     1      47.534   7.865  20.774  0.00  0.00    +0.000 N 
ATOM     30  C   UNL     1      47.694   7.024  19.699  0.00  0.00    +0.000 A 
ATOM     31  O   UNL     1      47.316   5.858  19.741  0.00  0.00    +0.000 OA
ATOM     32  C   UNL     1      48.318   7.636  18.541  0.00  0.00    +0.000 A 
ATOM     33  H   UNL     1      47.100   7.464  21.595  0.00  0.00    +0.000 HD
ENDBRANCH  20  23
ENDBRANCH  18  19
ENDBRANCH   4  18
TORSDOF 7
ENDMDL
MODEL 6
REMARK VINA RESULT:    -7.384      2.989      8.364
REMARK INTER + INTRA:         -11.667
REMARK INTER:                  -9.866
REMARK INTRA:                  -1.801
REMARK UNBOUND:                -1.261
REMARK  Name = 
REMARK  8 active torsions:
REMARK  status: ('A' for Active; 'I' for Inactive)
REMARK    1  A    between atoms: C_1  and  C_2
REMARK    2  A    between atoms: C_2  and  N_3
REMARK    3  A    between atoms: C_2  and  C_25
REMARK    4  A    between atoms: N_3  and  C_4
REMARK    5  A    between atoms: C_4  and  C_5
REMARK    6  A    between atoms: C_8  and  C_9
REMARK    7  A    between atoms: C_9  and  N_10
REMARK    8  A    between atoms: C_11  and  C_13
REMARK                            x       y       z     vdW  Elec       q    Type
REMARK                         _______ _______ _______ _____ _____    ______ ____
ROOT
ATOM      1  C   UNL     1      48.926   7.958  16.138  0.00  0.00    +0.000 A 
ATOM      2  C   UNL     1      49.150   6.806  15.369  0.00  0.00    +0.000 A 
ATOM      3  C   UNL     1      48.743   6.748  14.032  0.00  0.00    +0.000 A 
ATOM      4  C   UNL     1      48.111   7.845  13.433  0.00  0.00    +0.000 A 
ATOM      5  C   UNL     1      47.890   8.996  14.201  0.00  0.00    +0.000 A 
ATOM      6  C   UNL     1      48.297   9.054  15.537  0.00  0.00    +0.000 A 
ENDROOT
BRANCH   1   7
ATOM      7  C   UNL     1      49.275   7.980  17.612  0.00  0.00    +0.000 C 
BRANCH   7   8
ATOM      8  N   UNL     1      50.106   6.842  17.992  0.00  0.00    +0.000 NA
ATOM      9  H   UNL     1      50.917   7.190  18.506  0.00  0.00    +0.000 HD
BRANCH   8  11
ATOM     10  C   UNL     1      48.049   6.343  19.346  0.00  0.00    +0.000 C 
ATOM     11  C   UNL     1      49.415   5.859  18.837  0.00  0.00    +0.000 C 
BRANCH  11  12
ATOM     12  C   UNL     1      49.223   4.562  18.056  0.00  0.00    +0.000 A 
ATOM     13  C   UNL     1      50.313   3.724  17.778  0.00  0.00    +0.000 A 
ATOM     14  C   UNL     1      50.127   2.525  17.086  0.00  0.00    +0.000 A 
ATOM     15  C   UNL     1      48.853   2.148  16.664  0.00  0.00    +0.000 A 
ATOM     16  C   UNL     1      47.763   2.972  16.929  0.00  0.00    +0.000 A 
ATOM     17  C   UNL     1      47.947   4.171  17.617  0.00  0.00    +0.000 A 
ENDBRANCH  11  12
ENDBRANCH   8  11
ENDBRANCH   7   8
ENDBRANCH   1   7
BRANCH   4  18
ATOM     18  C   UNL     1      47.618   7.773  12.012  0.00  0.00    +0.000 C 
BRANCH  18  19
ATOM     19  N   UNL     1      46.927   6.530  11.766  0.00  0.00    +0.000 N 
ATOM     20  C   UNL     1      45.562   6.447  11.858  0.00  0.00    +0.000 C 
ATOM     21  O   UNL     1      44.868   7.429  12.108  0.00  0.00    +0.000 OA
ATOM     22  H   UNL     1      47.485   5.682  11.769  0.00  0.00    +0.000 HD
BRANCH  20  23
ATOM     23  C   UNL     1      44.960   5.136  11.586  0.00  0.00    +0.000 A 
ATOM     24  C   UNL     1      44.270   4.477  12.596  0.00  0.00    +0.000 A 
ATOM     25  S   UNL     1      43.606   2.984  12.114  0.00  0.00    +0.000 S 
ATOM     26  C   UNL     1      44.256   3.139  10.550  0.00  0.00    +0.000 A 
ATOM     27  N   UNL     1      44.080   2.162   9.619  0.00  0.00    +0.000 NA
ATOM     28  C   UNL     1      44.650   2.398   8.487  0.00  0.00    +0.000 A 
ATOM     29  N   UNL     1      45.376   3.523   8.194  0.00  0.00    +0.000 N 
ATOM     30  C   UNL     1      45.558   4.547   9.092  0.00  0.00    +0.000 A 
ATOM     31  O   UNL     1      46.177   5.561   8.784  0.00  0.00    +0.000 OA
ATOM     32  C   UNL     1      44.950   4.327  10.390  0.00  0.00    +0.000 A 
ATOM     33  H   UNL     1      45.789   3.650   7.280  0.00  0.00    +0.000 HD
ENDBRANCH  20  23
ENDBRANCH  18  19
ENDBRANCH   4  18
TORSDOF 7
ENDMDL
MODEL 7
REMARK VINA RESULT:    -7.112      4.564      9.543
REMARK INTER + INTRA:         -11.284
REMARK INTER:                 -10.192
REMARK INTRA:                  -1.093
REMARK UNBOUND:                -1.261
REMARK  Name = 
REMARK  8 active torsions:
REMARK  status: ('A' for Active; 'I' for Inactive)
REMARK    1  A    between atoms: C_1  and  C_2
REMARK    2  A    between atoms: C_2  and  N_3
REMARK    3  A    between atoms: C_2  and  C_25
REMARK    4  A    between atoms: N_3  and  C_4
REMARK    5  A    between atoms: C_4  and  C_5
REMARK    6  A    between atoms: C_8  and  C_9
REMARK    7  A    between atoms: C_9  and  N_10
REMARK    8  A    between atoms: C_11  and  C_13
REMARK                            x       y       z     vdW  Elec       q    Type
REMARK                         _______ _______ _______ _____ _____    ______ ____
ROOT
ATOM      1  C   UNL     1      51.382   3.687  17.825  0.00  0.00    +0.000 A 
ATOM      2  C   UNL     1      50.851   2.457  17.409  0.00  0.00    +0.000 A 
ATOM      3  C   UNL     1      49.498   2.337  17.076  0.00  0.00    +0.000 A 
ATOM      4  C   UNL     1      48.648   3.448  17.144  0.00  0.00    +0.000 A 
ATOM      5  C   UNL     1      49.179   4.678  17.559  0.00  0.00    +0.000 A 
ATOM      6  C   UNL     1      50.531   4.797  17.890  0.00  0.00    +0.000 A 
ENDROOT
BRANCH   1   7
ATOM      7  C   UNL     1      52.822   3.790  18.282  0.00  0.00    +0.000 C 
BRANCH   7   8
ATOM      8  N   UNL     1      53.180   2.716  19.202  0.00  0.00    +0.000 NA
ATOM      9  H   UNL     1      52.631   1.889  18.963  0.00  0.00    +0.000 HD
BRANCH   8  11
ATOM     10  C   UNL     1      55.148   1.872  20.516  0.00  0.00    +0.000 C 
ATOM     11  C   UNL     1      54.602   2.348  19.162  0.00  0.00    +0.000 C 
BRANCH  11  12
ATOM     12  C   UNL     1      54.814   1.250  18.125  0.00  0.00    +0.000 A 
ATOM     13  C   UNL     1      54.514  -0.087  18.424  0.00  0.00    +0.000 A 
ATOM     14  C   UNL     1      54.685  -1.085  17.461  0.00  0.00    +0.000 A 
ATOM     15  C   UNL     1      55.156  -0.761  16.190  0.00  0.00    +0.000 A 
ATOM     16  C   UNL     1      55.462   0.561  15.880  0.00  0.00    +0.000 A 
ATOM     17  C   UNL     1      55.295   1.558  16.841  0.00  0.00    +0.000 A 
ENDBRANCH  11  12
ENDBRANCH   8  11
ENDBRANCH   7   8
ENDBRANCH   1   7
BRANCH   4  18
ATOM     18  C   UNL     1      47.178   3.318  16.844  0.00  0.00    +0.000 C 
BRANCH  18  19
ATOM     19  N   UNL     1      46.752   4.319  15.896  0.00  0.00    +0.000 N 
ATOM     20  C   UNL     1      46.815   4.090  14.546  0.00  0.00    +0.000 C 
ATOM     21  O   UNL     1      47.190   3.014  14.087  0.00  0.00    +0.000 OA
ATOM     22  H   UNL     1      46.644   5.268  16.242  0.00  0.00    +0.000 HD
BRANCH  20  23
ATOM     23  C   UNL     1      46.355   5.174  13.670  0.00  0.00    +0.000 A 
ATOM     24  C   UNL     1      47.169   6.281  13.464  0.00  0.00    +0.000 A 
ATOM     25  S   UNL     1      46.506   7.434  12.400  0.00  0.00    +0.000 S 
ATOM     26  C   UNL     1      45.084   6.520  12.210  0.00  0.00    +0.000 A 
ATOM     27  N   UNL     1      44.064   6.969  11.429  0.00  0.00    +0.000 NA
ATOM     28  C   UNL     1      43.036   6.190  11.398  0.00  0.00    +0.000 A 
ATOM     29  N   UNL     1      42.936   4.999  12.069  0.00  0.00    +0.000 N 
ATOM     30  C   UNL     1      43.950   4.493  12.846  0.00  0.00    +0.000 A 
ATOM     31  O   UNL     1      43.844   3.403  13.399  0.00  0.00    +0.000 OA
ATOM     32  C   UNL     1      45.125   5.338  12.930  0.00  0.00    +0.000 A 
ATOM     33  H   UNL     1      42.104   4.430  11.992  0.00  0.00    +0.000 HD
ENDBRANCH  20  23
ENDBRANCH  18  19
ENDBRANCH   4  18
TORSDOF 7
ENDMDL
MODEL 8
REMARK VINA RESULT:    -6.978      2.238      3.374
REMARK INTER + INTRA:         -11.096
REMARK INTER:                 -10.284
REMARK INTRA:                  -0.812
REMARK UNBOUND:                -1.261
REMARK  Name = 
REMARK  8 active torsions:
REMARK  status: ('A' for Active; 'I' for Inactive)
REMARK    1  A    between atoms: C_1  and  C_2
REMARK    2  A    between atoms: C_2  and  N_3
REMARK    3  A    between atoms: C_2  and  C_25
REMARK    4  A    between atoms: N_3  and  C_4
REMARK    5  A    between atoms: C_4  and  C_5
REMARK    6  A    between atoms: C_8  and  C_9
REMARK    7  A    between atoms: C_9  and  N_10
REMARK    8  A    between atoms: C_11  and  C_13
REMARK                            x       y       z     vdW  Elec       q    Type
REMARK                         _______ _______ _______ _____ _____    ______ ____
ROOT
ATOM      1  C   UNL     1      45.830   5.742  11.554  0.00  0.00    +0.000 A 
ATOM      2  C   UNL     1      45.099   4.708  12.159  0.00  0.00    +0.000 A 
ATOM      3  C   UNL     1      45.526   4.141  13.365  0.00  0.00    +0.000 A 
ATOM      4  C   UNL     1      46.688   4.601  13.995  0.00  0.00    +0.000 A 
ATOM      5  C   UNL     1      47.417   5.635  13.391  0.00  0.00    +0.000 A 
ATOM      6  C   UNL     1      46.990   6.203  12.187  0.00  0.00    +0.000 A 
ENDROOT
BRANCH   1   7
ATOM      7  C   UNL     1      45.422   6.284  10.200  0.00  0.00    +0.000 C 
BRANCH   7   8
ATOM      8  N   UNL     1      45.857   5.414   9.112  0.00  0.00    +0.000 NA
ATOM      9  H   UNL     1      46.873   5.318   9.160  0.00  0.00    +0.000 HD
BRANCH   8  11
ATOM     10  C   UNL     1      43.782   4.040   8.769  0.00  0.00    +0.000 C 
ATOM     11  C   UNL     1      45.268   4.068   9.156  0.00  0.00    +0.000 C 
BRANCH  11  12
ATOM     12  C   UNL     1      46.043   3.143   8.224  0.00  0.00    +0.000 A 
ATOM     13  C   UNL     1      46.789   3.662   7.155  0.00  0.00    +0.000 A 
ATOM     14  C   UNL     1      47.519   2.811   6.321  0.00  0.00    +0.000 A 
ATOM     15  C   UNL     1      47.513   1.435   6.543  0.00  0.00    +0.000 A 
ATOM     16  C   UNL     1      46.774   0.905   7.597  0.00  0.00    +0.000 A 
ATOM     17  C   UNL     1      46.042   1.753   8.429  0.00  0.00    +0.000 A 
ENDBRANCH  11  12
ENDBRANCH   8  11
ENDBRANCH   7   8
ENDBRANCH   1   7
BRANCH   4  18
ATOM     18  C   UNL     1      47.187   3.959  15.262  0.00  0.00    +0.000 C 
BRANCH  18  19
ATOM     19  N   UNL     1      47.676   4.952  16.188  0.00  0.00    +0.000 N 
ATOM     20  C   UNL     1      47.474   4.824  17.538  0.00  0.00    +0.000 C 
ATOM     21  O   UNL     1      46.912   3.843  18.019  0.00  0.00    +0.000 OA
ATOM     22  H   UNL     1      47.947   5.852  15.803  0.00  0.00    +0.000 HD
BRANCH  20  23
ATOM     23  C   UNL     1      48.013   5.889  18.392  0.00  0.00    +0.000 A 
ATOM     24  C   UNL     1      47.210   6.449  19.377  0.00  0.00    +0.000 A 
ATOM     25  S   UNL     1      47.991   7.650  20.300  0.00  0.00    +0.000 S 
ATOM     26  C   UNL     1      49.418   7.500  19.386  0.00  0.00    +0.000 A 
ATOM     27  N   UNL     1      50.499   8.285  19.644  0.00  0.00    +0.000 NA
ATOM     28  C   UNL     1      51.501   8.085  18.858  0.00  0.00    +0.000 A 
ATOM     29  N   UNL     1      51.527   7.167  17.840  0.00  0.00    +0.000 N 
ATOM     30  C   UNL     1      50.470   6.334  17.560  0.00  0.00    +0.000 A 
ATOM     31  O   UNL     1      50.542   5.493  16.669  0.00  0.00    +0.000 OA
ATOM     32  C   UNL     1      49.308   6.528  18.406  0.00  0.00    +0.000 A 
ATOM     33  H   UNL     1      52.351   7.053  17.266  0.00  0.00    +0.000 HD
ENDBRANCH  20  23
ENDBRANCH  18  19
ENDBRANCH   4  18
TORSDOF 7
ENDMDL
MODEL 9
REMARK VINA RESULT:    -6.829      1.461      2.239
REMARK INTER + INTRA:         -10.885
REMARK INTER:                 -10.040
REMARK INTRA:                  -0.845
REMARK UNBOUND:                -1.261
REMARK  Name = 
REMARK  8 active torsions:
REMARK  status: ('A' for Active; 'I' for Inactive)
REMARK    1  A    between atoms: C_1  and  C_2
REMARK    2  A    between atoms: C_2  and  N_3
REMARK    3  A    between atoms: C_2  and  C_25
REMARK    4  A    between atoms: N_3  and  C_4
REMARK    5  A    between atoms: C_4  and  C_5
REMARK    6  A    between atoms: C_8  and  C_9
REMARK    7  A    between atoms: C_9  and  N_10
REMARK    8  A    between atoms: C_11  and  C_13
REMARK                            x       y       z     vdW  Elec       q    Type
REMARK                         _______ _______ _______ _____ _____    ______ ____
ROOT
ATOM      1  C   UNL     1      44.917   6.745  11.925  0.00  0.00    +0.000 A 
ATOM      2  C   UNL     1      46.145   6.081  11.780  0.00  0.00    +0.000 A 
ATOM      3  C   UNL     1      47.338   6.684  12.191  0.00  0.00    +0.000 A 
ATOM      4  C   UNL     1      47.328   7.962  12.764  0.00  0.00    +0.000 A 
ATOM      5  C   UNL     1      46.101   8.624  12.911  0.00  0.00    +0.000 A 
ATOM      6  C   UNL     1      44.909   8.021  12.501  0.00  0.00    +0.000 A 
ENDROOT
BRANCH   1   7
ATOM      7  C   UNL     1      43.641   6.132  11.386  0.00  0.00    +0.000 C 
BRANCH   7   8
ATOM      8  N   UNL     1      43.891   5.287  10.224  0.00  0.00    +0.000 NA
ATOM      9  H   UNL     1      44.512   5.787   9.586  0.00  0.00    +0.000 HD
BRANCH   8  11
ATOM     10  C   UNL     1      43.515   2.941  11.044  0.00  0.00    +0.000 C 
ATOM     11  C   UNL     1      44.516   3.997  10.552  0.00  0.00    +0.000 C 
BRANCH  11  12
ATOM     12  C   UNL     1      45.245   3.459   9.325  0.00  0.00    +0.000 A 
ATOM     13  C   UNL     1      45.772   4.333   8.363  0.00  0.00    +0.000 A 
ATOM     14  C   UNL     1      46.463   3.834   7.255  0.00  0.00    +0.000 A 
ATOM     15  C   UNL     1      46.635   2.460   7.095  0.00  0.00    +0.000 A 
ATOM     16  C   UNL     1      46.114   1.581   8.040  0.00  0.00    +0.000 A 
ATOM     17  C   UNL     1      45.421   2.077   9.145  0.00  0.00    +0.000 A 
ENDBRANCH  11  12
ENDBRANCH   8  11
ENDBRANCH   7   8
ENDBRANCH   1   7
BRANCH   4  18
ATOM     18  C   UNL     1      48.611   8.643  13.157  0.00  0.00    +0.000 C 
BRANCH  18  19
ATOM     19  N   UNL     1      49.062   8.193  14.452  0.00  0.00    +0.000 N 
ATOM     20  C   UNL     1      50.377   7.878  14.676  0.00  0.00    +0.000 C 
ATOM     21  O   UNL     1      51.232   8.008  13.803  0.00  0.00    +0.000 OA
ATOM     22  H   UNL     1      48.351   7.882  15.108  0.00  0.00    +0.000 HD
BRANCH  20  23
ATOM     23  C   UNL     1      50.729   7.431  16.029  0.00  0.00    +0.000 A 
ATOM     24  C   UNL     1      51.802   8.020  16.686  0.00  0.00    +0.000 A 
ATOM     25  S   UNL     1      52.063   7.412  18.257  0.00  0.00    +0.000 S 
ATOM     26  C   UNL     1      50.781   6.305  18.099  0.00  0.00    +0.000 A 
ATOM     27  N   UNL     1      50.480   5.437  19.103  0.00  0.00    +0.000 NA
ATOM     28  C   UNL     1      49.504   4.636  18.838  0.00  0.00    +0.000 A 
ATOM     29  N   UNL     1      48.796   4.626  17.665  0.00  0.00    +0.000 N 
ATOM     30  C   UNL     1      49.046   5.501  16.635  0.00  0.00    +0.000 A 
ATOM     31  O   UNL     1      48.365   5.493  15.614  0.00  0.00    +0.000 OA
ATOM     32  C   UNL     1      50.146   6.415  16.873  0.00  0.00    +0.000 A 
ATOM     33  H   UNL     1      48.033   3.977  17.526  0.00  0.00    +0.000 HD
ENDBRANCH  20  23
ENDBRANCH  18  19
ENDBRANCH   4  18
TORSDOF 7
ENDMDL
