MODEL 1
REMARK VINA RESULT:    -7.559      0.000      0.000
REMARK INTER + INTRA:         -10.264
REMARK INTER:                  -9.548
REMARK INTRA:                  -0.716
REMARK UNBOUND:                -0.716
REMARK  Name = 
REMARK  5 active torsions:
REMARK  status: ('A' for Active; 'I' for Inactive)
REMARK    1  A    between atoms: N_1  and  C_2
REMARK    2  A    between atoms: C_2  and  C_3
REMARK    3  A    between atoms: C_6  and  O_7
REMARK    4  A    between atoms: O_7  and  C_8
REMARK    5  A    between atoms: C_8  and  C_9
REMARK                            x       y       z     vdW  Elec       q    Type
REMARK                         _______ _______ _______ _____ _____    ______ ____
ROOT
ATOM      1  C   UNL     1      46.558   2.197   7.608  0.00  0.00    +0.000 A 
ATOM      2  C   UNL     1      45.729   1.380   8.392  0.00  0.00    +0.000 A 
ATOM      3  C   UNL     1      44.704   1.937   9.164  0.00  0.00    +0.000 A 
ATOM      4  C   UNL     1      44.502   3.315   9.171  0.00  0.00    +0.000 A 
ATOM      5  C   UNL     1      45.278   4.125   8.339  0.00  0.00    +0.000 A 
ATOM      6  C   UNL     1      46.308   3.573   7.575  0.00  0.00    +0.000 A 
ENDROOT
BRANCH   1   7
ATOM      7  C   UNL     1      47.714   1.617   6.835  0.00  0.00    +0.000 C 
BRANCH   7   8
ATOM      8  N   UNL     1      48.601   2.656   6.333  0.00  0.00    +0.000 NA
ATOM      9  H   UNL     1      49.370   2.780   6.988  0.00  0.00    +0.000 HD
ATOM     10  H   UNL     1      48.093   3.539   6.312  0.00  0.00    +0.000 HD
ENDBRANCH   7   8
ENDBRANCH   1   7
BRANCH   4  11
ATOM     11  O   UNL     1      43.541   3.779  10.036  0.00  0.00    +0.000 OA
BRANCH  11  12
ATOM     12  C   UNL     1      43.678   3.293  11.375  0.00  0.00    +0.000 C 
BRANCH  12  13
ATOM     13  C   UNL     1      44.703   4.076  12.161  0.00  0.00    +0.000 A 
ATOM     14  C   UNL     1      45.757   3.387  12.780  0.00  0.00    +0.000 A 
ATOM     15  C   UNL     1      46.755   4.077  13.466  0.00  0.00    +0.000 A 
ATOM     16  C   UNL     1      46.722   5.472  13.535  0.00  0.00    +0.000 A 
ATOM     17 CL   UNL     1      47.997   6.260  14.391  0.00  0.00    +0.000 Cl
ATOM     18  C   UNL     1      45.680   6.173  12.914  0.00  0.00    +0.000 A 
ATOM     19 CL   UNL     1      45.584   7.898  12.949  0.00  0.00    +0.000 Cl
ATOM     20  C   UNL     1      44.679   5.477  12.227  0.00  0.00    +0.000 A 
ENDBRANCH  12  13
ENDBRANCH  11  12
ENDBRANCH   4  11
TORSDOF 5
ENDMDL
MODEL 2
REMARK VINA RESULT:    -7.446      1.116      2.077
REMARK INTER + INTRA:         -10.121
REMARK INTER:                  -9.495
REMARK INTRA:                  -0.626
REMARK UNBOUND:                -0.716
REMARK  Name = 
REMARK  5 active torsions:
REMARK  status: ('A' for Active; 'I' for Inactive)
REMARK    1  A    between atoms: N_1  and  C_2
REMARK    2  A    between atoms: C_2  and  C_3
REMARK    3  A    between atoms: C_6  and  O_7
REMARK    4  A    between atoms: O_7  and  C_8
REMARK    5  A    between atoms: C_8  and  C_9
REMARK                            x       y       z     vdW  Elec       q    Type
REMARK                         _______ _______ _______ _____ _____    ______ ____
ROOT
ATOM      1  C   UNL     1      46.381   2.059   7.821  0.00  0.00    +0.000 A 
ATOM      2  C   UNL     1      46.434   3.437   7.567  0.00  0.00    +0.000 A 
ATOM      3  C   UNL     1      45.530   4.310   8.183  0.00  0.00    +0.000 A 
ATOM      4  C   UNL     1      44.557   3.815   9.049  0.00  0.00    +0.000 A 
ATOM      5  C   UNL     1      44.546   2.454   9.359  0.00  0.00    +0.000 A 
ATOM      6  C   UNL     1      45.440   1.579   8.740  0.00  0.00    +0.000 A 
ENDROOT
BRANCH   1   7
ATOM      7  C   UNL     1      47.298   1.101   7.105  0.00  0.00    +0.000 C 
BRANCH   7   8
ATOM      8  N   UNL     1      48.343   1.801   6.373  0.00  0.00    +0.000 NA
ATOM      9  H   UNL     1      48.194   2.804   6.463  0.00  0.00    +0.000 HD
ATOM     10  H   UNL     1      48.252   1.582   5.383  0.00  0.00    +0.000 HD
ENDBRANCH   7   8
ENDBRANCH   1   7
BRANCH   4  11
ATOM     11  O   UNL     1      43.651   4.732   9.524  0.00  0.00    +0.000 OA
BRANCH  11  12
ATOM     12  C   UNL     1      43.509   4.727  10.947  0.00  0.00    +0.000 C 
BRANCH  12  13
ATOM     13  C   UNL     1      44.767   5.192  11.644  0.00  0.00    +0.000 A 
ATOM     14  C   UNL     1      45.355   6.403  11.248  0.00  0.00    +0.000 A 
ATOM     15  C   UNL     1      46.483   6.895  11.902  0.00  0.00    +0.000 A 
ATOM     16  C   UNL     1      47.036   6.189  12.973  0.00  0.00    +0.000 A 
ATOM     17 CL   UNL     1      48.425   6.866  13.743  0.00  0.00    +0.000 Cl
ATOM     18  C   UNL     1      46.453   4.985  13.384  0.00  0.00    +0.000 A 
ATOM     19 CL   UNL     1      47.077   4.067  14.709  0.00  0.00    +0.000 Cl
ATOM     20  C   UNL     1      45.321   4.491  12.724  0.00  0.00    +0.000 A 
ENDBRANCH  12  13
ENDBRANCH  11  12
ENDBRANCH   4  11
TORSDOF 5
ENDMDL
MODEL 3
REMARK VINA RESULT:    -7.181      3.873      6.223
REMARK INTER + INTRA:          -9.786
REMARK INTER:                  -9.322
REMARK INTRA:                  -0.464
REMARK UNBOUND:                -0.716
REMARK  Name = 
REMARK  5 active torsions:
REMARK  status: ('A' for Active; 'I' for Inactive)
REMARK    1  A    between atoms: N_1  and  C_2
REMARK    2  A    between atoms: C_2  and  C_3
REMARK    3  A    between atoms: C_6  and  O_7
REMARK    4  A    between atoms: O_7  and  C_8
REMARK    5  A    between atoms: C_8  and  C_9
REMARK                            x       y       z     vdW  Elec       q    Type
REMARK                         _______ _______ _______ _____ _____    ______ ____
ROOT
ATOM      1  C   UNL     1      47.132   5.887  13.381  0.00  0.00    +0.000 A 
ATOM      2  C   UNL     1      46.250   4.811  13.559  0.00  0.00    +0.000 A 
ATOM      3  C   UNL     1      45.310   4.490  12.573  0.00  0.00    +0.000 A 
ATOM      4  C   UNL     1      45.233   5.246  11.406  0.00  0.00    +0.000 A 
ATOM      5  C   UNL     1      46.155   6.274  11.193  0.00  0.00    +0.000 A 
ATOM      6  C   UNL     1      47.088   6.602  12.179  0.00  0.00    +0.000 A 
ENDROOT
BRANCH   1   7
ATOM      7  C   UNL     1      48.096   6.291  14.468  0.00  0.00    +0.000 C 
BRANCH   7   8
ATOM      8  N   UNL     1      49.386   6.686  13.923  0.00  0.00    +0.000 NA
ATOM      9  H   UNL     1      49.634   6.052  13.166  0.00  0.00    +0.000 HD
ATOM     10  H   UNL     1      50.096   6.567  14.644  0.00  0.00    +0.000 HD
ENDBRANCH   7   8
ENDBRANCH   1   7
BRANCH   4  11
ATOM     11  O   UNL     1      44.214   4.922  10.544  0.00  0.00    +0.000 OA
BRANCH  11  12
ATOM     12  C   UNL     1      44.130   3.526  10.240  0.00  0.00    +0.000 C 
BRANCH  12  13
ATOM     13  C   UNL     1      45.036   3.141   9.094  0.00  0.00    +0.000 A 
ATOM     14  C   UNL     1      45.546   4.149   8.261  0.00  0.00    +0.000 A 
ATOM     15  C   UNL     1      46.429   3.842   7.228  0.00  0.00    +0.000 A 
ATOM     16  C   UNL     1      46.828   2.520   7.016  0.00  0.00    +0.000 A 
ATOM     17 CL   UNL     1      47.934   2.217   5.727  0.00  0.00    +0.000 Cl
ATOM     18  C   UNL     1      46.334   1.506   7.845  0.00  0.00    +0.000 A 
ATOM     19 CL   UNL     1      46.795  -0.148   7.648  0.00  0.00    +0.000 Cl
ATOM     20  C   UNL     1      45.445   1.817   8.882  0.00  0.00    +0.000 A 
ENDBRANCH  12  13
ENDBRANCH  11  12
ENDBRANCH   4  11
TORSDOF 5
ENDMDL
MODEL 4
REMARK VINA RESULT:    -6.099      4.023      6.297
REMARK INTER + INTRA:          -8.420
REMARK INTER:                  -7.827
REMARK INTRA:                  -0.593
REMARK UNBOUND:                -0.716
REMARK  Name = 
REMARK  5 active torsions:
REMARK  status: ('A' for Active; 'I' for Inactive)
REMARK    1  A    between atoms: N_1  and  C_2
REMARK    2  A    between atoms: C_2  and  C_3
REMARK    3  A    between atoms: C_6  and  O_7
REMARK    4  A    between atoms: O_7  and  C_8
REMARK    5  A    between atoms: C_8  and  C_9
REMARK                            x       y       z     vdW  Elec       q    Type
REMARK                         _______ _______ _______ _____ _____    ______ ____
ROOT
ATOM      1  C   UNL     1      47.038   7.198  13.331  0.00  0.00    +0.000 A 
ATOM      2  C   UNL     1      47.061   5.797  13.402  0.00  0.00    +0.000 A 
ATOM      3  C   UNL     1      46.052   5.036  12.800  0.00  0.00    +0.000 A 
ATOM      4  C   UNL     1      45.005   5.665  12.132  0.00  0.00    +0.000 A 
ATOM      5  C   UNL     1      45.015   7.056  11.998  0.00  0.00    +0.000 A 
ATOM      6  C   UNL     1      46.014   7.818  12.605  0.00  0.00    +0.000 A 
ENDROOT
BRANCH   1   7
ATOM      7  C   UNL     1      48.075   8.029  14.041  0.00  0.00    +0.000 C 
BRANCH   7   8
ATOM      8  N   UNL     1      47.472   8.919  15.023  0.00  0.00    +0.000 NA
ATOM      9  H   UNL     1      47.629   8.538  15.954  0.00  0.00    +0.000 HD
ATOM     10  H   UNL     1      46.464   8.928  14.881  0.00  0.00    +0.000 HD
ENDBRANCH   7   8
ENDBRANCH   1   7
BRANCH   4  11
ATOM     11  O   UNL     1      44.009   4.843  11.663  0.00  0.00    +0.000 OA
BRANCH  11  12
ATOM     12  C   UNL     1      43.790   4.938  10.252  0.00  0.00    +0.000 C 
BRANCH  12  13
ATOM     13  C   UNL     1      44.617   3.935   9.482  0.00  0.00    +0.000 A 
ATOM     14  C   UNL     1      44.547   2.579   9.839  0.00  0.00    +0.000 A 
ATOM     15  C   UNL     1      45.249   1.615   9.119  0.00  0.00    +0.000 A 
ATOM     16  C   UNL     1      46.026   1.989   8.019  0.00  0.00    +0.000 A 
ATOM     17 CL   UNL     1      46.857   0.739   7.167  0.00  0.00    +0.000 Cl
ATOM     18  C   UNL     1      46.097   3.336   7.647  0.00  0.00    +0.000 A 
ATOM     19 CL   UNL     1      47.028   3.867   6.291  0.00  0.00    +0.000 Cl
ATOM     20  C   UNL     1      45.392   4.304   8.373  0.00  0.00    +0.000 A 
ENDBRANCH  12  13
ENDBRANCH  11  12
ENDBRANCH   4  11
TORSDOF 5
ENDMDL
MODEL 5
REMARK VINA RESULT:    -6.061      3.699      5.909
REMARK INTER + INTRA:          -8.371
REMARK INTER:                  -7.845
REMARK INTRA:                  -0.526
REMARK UNBOUND:                -0.716
REMARK  Name = 
REMARK  5 active torsions:
REMARK  status: ('A' for Active; 'I' for Inactive)
REMARK    1  A    between atoms: N_1  and  C_2
REMARK    2  A    between atoms: C_2  and  C_3
REMARK    3  A    between atoms: C_6  and  O_7
REMARK    4  A    between atoms: O_7  and  C_8
REMARK    5  A    between atoms: C_8  and  C_9
REMARK                            x       y       z     vdW  Elec       q    Type
REMARK                         _______ _______ _______ _____ _____    ______ ____
ROOT
ATOM      1  C   UNL     1      46.694   4.824  14.176  0.00  0.00    +0.000 A 
ATOM      2  C   UNL     1      45.367   4.413  13.980  0.00  0.00    +0.000 A 
ATOM      3  C   UNL     1      44.652   4.824  12.850  0.00  0.00    +0.000 A 
ATOM      4  C   UNL     1      45.250   5.660  11.909  0.00  0.00    +0.000 A 
ATOM      5  C   UNL     1      46.592   6.015  12.063  0.00  0.00    +0.000 A 
ATOM      6  C   UNL     1      47.305   5.613  13.194  0.00  0.00    +0.000 A 
ENDROOT
BRANCH   1   7
ATOM      7  C   UNL     1      47.447   4.452  15.426  0.00  0.00    +0.000 C 
BRANCH   7   8
ATOM      8  N   UNL     1      47.819   3.045  15.431  0.00  0.00    +0.000 NA
ATOM      9  H   UNL     1      48.394   2.851  14.614  0.00  0.00    +0.000 HD
ATOM     10  H   UNL     1      46.976   2.482  15.332  0.00  0.00    +0.000 HD
ENDBRANCH   7   8
ENDBRANCH   1   7
BRANCH   4  11
ATOM     11  O   UNL     1      44.440   6.094  10.888  0.00  0.00    +0.000 OA
BRANCH  11  12
ATOM     12  C   UNL     1      43.634   5.066  10.305  0.00  0.00    +0.000 C 
BRANCH  12  13
ATOM     13  C   UNL     1      44.470   4.010   9.620  0.00  0.00    +0.000 A 
ATOM     14  C   UNL     1      44.256   2.660   9.939  0.00  0.00    +0.000 A 
ATOM     15  C   UNL     1      44.966   1.653   9.289  0.00  0.00    +0.000 A 
ATOM     16  C   UNL     1      45.897   1.978   8.299  0.00  0.00    +0.000 A 
ATOM     17 CL   UNL     1      46.730   0.677   7.529  0.00  0.00    +0.000 Cl
ATOM     18  C   UNL     1      46.115   3.320   7.966  0.00  0.00    +0.000 A 
ATOM     19 CL   UNL     1      47.241   3.793   6.743  0.00  0.00    +0.000 Cl
ATOM     20  C   UNL     1      45.400   4.330   8.621  0.00  0.00    +0.000 A 
ENDBRANCH  12  13
ENDBRANCH  11  12
ENDBRANCH   4  11
TORSDOF 5
ENDMDL
MODEL 6
REMARK VINA RESULT:    -5.183      4.498      6.446
REMARK INTER + INTRA:          -7.263
REMARK INTER:                  -6.869
REMARK INTRA:                  -0.394
REMARK UNBOUND:                -0.716
REMARK  Name = 
REMARK  5 active torsions:
REMARK  status: ('A' for Active; 'I' for Inactive)
REMARK    1  A    between atoms: N_1  and  C_2
REMARK    2  A    between atoms: C_2  and  C_3
REMARK    3  A    between atoms: C_6  and  O_7
REMARK    4  A    between atoms: O_7  and  C_8
REMARK    5  A    between atoms: C_8  and  C_9
REMARK                            x       y       z     vdW  Elec       q    Type
REMARK                         _______ _______ _______ _____ _____    ______ ____
ROOT
ATOM      1  C   UNL     1      44.805   4.441  12.053  0.00  0.00    +0.000 A 
ATOM      2  C   UNL     1      45.146   5.734  12.480  0.00  0.00    +0.000 A 
ATOM      3  C   UNL     1      46.163   5.928  13.421  0.00  0.00    +0.000 A 
ATOM      4  C   UNL     1      46.842   4.835  13.955  0.00  0.00    +0.000 A 
ATOM      5  C   UNL     1      46.555   3.553  13.482  0.00  0.00    +0.000 A 
ATOM      6  C   UNL     1      45.534   3.355  12.550  0.00  0.00    +0.000 A 
ENDROOT
BRANCH   1   7
ATOM      7  C   UNL     1      43.661   4.214  11.100  0.00  0.00    +0.000 C 
BRANCH   7   8
ATOM      8  N   UNL     1      42.972   2.961  11.374  0.00  0.00    +0.000 NA
ATOM      9  H   UNL     1      42.606   2.985  12.323  0.00  0.00    +0.000 HD
ATOM     10  H   UNL     1      43.650   2.202  11.345  0.00  0.00    +0.000 HD
ENDBRANCH   7   8
ENDBRANCH   1   7
BRANCH   4  11
ATOM     11  O   UNL     1      47.751   5.116  14.946  0.00  0.00    +0.000 OA
BRANCH  11  12
ATOM     12  C   UNL     1      47.545   4.376  16.153  0.00  0.00    +0.000 C 
BRANCH  12  13
ATOM     13  C   UNL     1      48.842   3.857  16.727  0.00  0.00    +0.000 A 
ATOM     14  C   UNL     1      49.097   2.477  16.692  0.00  0.00    +0.000 A 
ATOM     15  C   UNL     1      50.305   1.963  17.160  0.00  0.00    +0.000 A 
ATOM     16  C   UNL     1      51.286   2.822  17.661  0.00  0.00    +0.000 A 
ATOM     17 CL   UNL     1      52.762   2.116  18.210  0.00  0.00    +0.000 Cl
ATOM     18  C   UNL     1      51.048   4.202  17.693  0.00  0.00    +0.000 A 
ATOM     19 CL   UNL     1      52.221   5.323  18.288  0.00  0.00    +0.000 Cl
ATOM     20  C   UNL     1      49.833   4.716  17.224  0.00  0.00    +0.000 A 
ENDBRANCH  12  13
ENDBRANCH  11  12
ENDBRANCH   4  11
TORSDOF 5
ENDMDL
MODEL 7
REMARK VINA RESULT:    -5.051      4.309      6.034
REMARK INTER + INTRA:          -7.096
REMARK INTER:                  -6.661
REMARK INTRA:                  -0.435
REMARK UNBOUND:                -0.716
REMARK  Name = 
REMARK  5 active torsions:
REMARK  status: ('A' for Active; 'I' for Inactive)
REMARK    1  A    between atoms: N_1  and  C_2
REMARK    2  A    between atoms: C_2  and  C_3
REMARK    3  A    between atoms: C_6  and  O_7
REMARK    4  A    between atoms: O_7  and  C_8
REMARK    5  A    between atoms: C_8  and  C_9
REMARK                            x       y       z     vdW  Elec       q    Type
REMARK                         _______ _______ _______ _____ _____    ______ ____
ROOT
ATOM      1  C   UNL     1      43.890   5.059  11.999  0.00  0.00    +0.000 A 
ATOM      2  C   UNL     1      44.589   6.146  12.545  0.00  0.00    +0.000 A 
ATOM      3  C   UNL     1      45.806   5.950  13.207  0.00  0.00    +0.000 A 
ATOM      4  C   UNL     1      46.332   4.667  13.341  0.00  0.00    +0.000 A 
ATOM      5  C   UNL     1      45.677   3.592  12.738  0.00  0.00    +0.000 A 
ATOM      6  C   UNL     1      44.458   3.783  12.085  0.00  0.00    +0.000 A 
ENDROOT
BRANCH   1   7
ATOM      7  C   UNL     1      42.542   5.247  11.352  0.00  0.00    +0.000 C 
BRANCH   7   8
ATOM      8  N   UNL     1      41.913   6.491  11.771  0.00  0.00    +0.000 NA
ATOM      9  H   UNL     1      42.534   7.267  11.550  0.00  0.00    +0.000 HD
ATOM     10  H   UNL     1      41.811   6.482  12.784  0.00  0.00    +0.000 HD
ENDBRANCH   7   8
ENDBRANCH   1   7
BRANCH   4  11
ATOM     11  O   UNL     1      47.476   4.561  14.094  0.00  0.00    +0.000 OA
BRANCH  11  12
ATOM     12  C   UNL     1      47.494   3.431  14.972  0.00  0.00    +0.000 C 
BRANCH  12  13
ATOM     13  C   UNL     1      47.843   3.821  16.390  0.00  0.00    +0.000 A 
ATOM     14  C   UNL     1      47.976   2.814  17.358  0.00  0.00    +0.000 A 
ATOM     15  C   UNL     1      48.352   3.125  18.663  0.00  0.00    +0.000 A 
ATOM     16  C   UNL     1      48.613   4.451  19.021  0.00  0.00    +0.000 A 
ATOM     17 CL   UNL     1      49.086   4.760  20.651  0.00  0.00    +0.000 Cl
ATOM     18  C   UNL     1      48.492   5.464  18.062  0.00  0.00    +0.000 A 
ATOM     19 CL   UNL     1      48.811   7.122  18.431  0.00  0.00    +0.000 Cl
ATOM     20  C   UNL     1      48.113   5.148  16.751  0.00  0.00    +0.000 A 
ENDBRANCH  12  13
ENDBRANCH  11  12
ENDBRANCH   4  11
TORSDOF 5
ENDMDL
MODEL 8
REMARK VINA RESULT:    -5.047      5.124      7.489
REMARK INTER + INTRA:          -7.091
REMARK INTER:                  -6.640
REMARK INTRA:                  -0.451
REMARK UNBOUND:                -0.716
REMARK  Name = 
REMARK  5 active torsions:
REMARK  status: ('A' for Active; 'I' for Inactive)
REMARK    1  A    between atoms: N_1  and  C_2
REMARK    2  A    between atoms: C_2  and  C_3
REMARK    3  A    between atoms: C_6  and  O_7
REMARK    4  A    between atoms: O_7  and  C_8
REMARK    5  A    between atoms: C_8  and  C_9
REMARK                            x       y       z     vdW  Elec       q    Type
REMARK                         _______ _______ _______ _____ _____    ______ ____
ROOT
ATOM      1  C   UNL     1      50.531   3.680  17.749  0.00  0.00    +0.000 A 
ATOM      2  C   UNL     1      49.880   2.511  17.327  0.00  0.00    +0.000 A 
ATOM      3  C   UNL     1      48.663   2.582  16.639  0.00  0.00    +0.000 A 
ATOM      4  C   UNL     1      48.079   3.819  16.375  0.00  0.00    +0.000 A 
ATOM      5  C   UNL     1      48.757   4.987  16.731  0.00  0.00    +0.000 A 
ATOM      6  C   UNL     1      49.966   4.919  17.426  0.00  0.00    +0.000 A 
ENDROOT
BRANCH   1   7
ATOM      7  C   UNL     1      51.801   3.613  18.558  0.00  0.00    +0.000 C 
BRANCH   7   8
ATOM      8  N   UNL     1      52.391   2.283  18.525  0.00  0.00    +0.000 NA
ATOM      9  H   UNL     1      53.213   2.271  19.124  0.00  0.00    +0.000 HD
ATOM     10  H   UNL     1      52.719   2.094  17.580  0.00  0.00    +0.000 HD
ENDBRANCH   7   8
ENDBRANCH   1   7
BRANCH   4  11
ATOM     11  O   UNL     1      46.837   3.786  15.788  0.00  0.00    +0.000 OA
BRANCH  11  12
ATOM     12  C   UNL     1      46.869   3.643  14.365  0.00  0.00    +0.000 C 
BRANCH  12  13
ATOM     13  C   UNL     1      46.212   4.808  13.663  0.00  0.00    +0.000 A 
ATOM     14  C   UNL     1      46.941   5.994  13.486  0.00  0.00    +0.000 A 
ATOM     15  C   UNL     1      46.391   7.072  12.795  0.00  0.00    +0.000 A 
ATOM     16  C   UNL     1      45.104   6.979  12.258  0.00  0.00    +0.000 A 
ATOM     17 CL   UNL     1      44.494   8.348  11.404  0.00  0.00    +0.000 Cl
ATOM     18  C   UNL     1      44.370   5.798  12.421  0.00  0.00    +0.000 A 
ATOM     19 CL   UNL     1      42.779   5.609  11.772  0.00  0.00    +0.000 Cl
ATOM     20  C   UNL     1      44.924   4.717  13.116  0.00  0.00    +0.000 A 
ENDBRANCH  12  13
ENDBRANCH  11  12
ENDBRANCH   4  11
TORSDOF 5
ENDMDL
MODEL 9
REMARK VINA RESULT:    -4.898      4.650      6.272
REMARK INTER + INTRA:          -6.903
REMARK INTER:                  -6.475
REMARK INTRA:                  -0.428
REMARK UNBOUND:                -0.716
REMARK  Name = 
REMARK  5 active torsions:
REMARK  status: ('A' for Active; 'I' for Inactive)
REMARK    1  A    between atoms: N_1  and  C_2
REMARK    2  A    between atoms: C_2  and  C_3
REMARK    3  A    between atoms: C_6  and  O_7
REMARK    4  A    between atoms: O_7  and  C_8
REMARK    5  A    between atoms: C_8  and  C_9
REMARK                            x       y       z     vdW  Elec       q    Type
REMARK                         _______ _______ _______ _____ _____    ______ ____
ROOT
ATOM      1  C   UNL     1      44.483   5.508  11.880  0.00  0.00    +0.000 A 
ATOM      2  C   UNL     1      45.480   6.359  11.379  0.00  0.00    +0.000 A 
ATOM      3  C   UNL     1      46.754   6.382  11.956  0.00  0.00    +0.000 A 
ATOM      4  C   UNL     1      47.044   5.566  13.047  0.00  0.00    +0.000 A 
ATOM      5  C   UNL     1      46.078   4.667  13.505  0.00  0.00    +0.000 A 
ATOM      6  C   UNL     1      44.803   4.648  12.937  0.00  0.00    +0.000 A 
ENDROOT
BRANCH   1   7
ATOM      7  C   UNL     1      43.086   5.531  11.317  0.00  0.00    +0.000 C 
BRANCH   7   8
ATOM      8  N   UNL     1      42.638   6.888  11.041  0.00  0.00    +0.000 NA
ATOM      9  H   UNL     1      41.817   7.087  11.609  0.00  0.00    +0.000 HD
ATOM     10  H   UNL     1      42.338   6.943  10.070  0.00  0.00    +0.000 HD
ENDBRANCH   7   8
ENDBRANCH   1   7
BRANCH   4  11
ATOM     11  O   UNL     1      48.285   5.732  13.611  0.00  0.00    +0.000 OA
BRANCH  11  12
ATOM     12  C   UNL     1      48.349   6.781  14.582  0.00  0.00    +0.000 C 
BRANCH  12  13
ATOM     13  C   UNL     1      48.687   6.258  15.959  0.00  0.00    +0.000 A 
ATOM     14  C   UNL     1      49.380   7.091  16.852  0.00  0.00    +0.000 A 
ATOM     15  C   UNL     1      49.661   6.667  18.149  0.00  0.00    +0.000 A 
ATOM     16  C   UNL     1      49.244   5.406  18.581  0.00  0.00    +0.000 A 
ATOM     17 CL   UNL     1      49.616   4.955  20.205  0.00  0.00    +0.000 Cl
ATOM     18  C   UNL     1      48.545   4.569  17.704  0.00  0.00    +0.000 A 
ATOM     19 CL   UNL     1      47.988   3.002  18.176  0.00  0.00    +0.000 Cl
ATOM     20  C   UNL     1      48.264   4.996  16.400  0.00  0.00    +0.000 A 
ENDBRANCH  12  13
ENDBRANCH  11  12
ENDBRANCH   4  11
TORSDOF 5
ENDMDL
