MODEL 1
REMARK VINA RESULT:    -5.453      0.000      0.000
REMARK INTER + INTRA:          -6.841
REMARK INTER:                  -6.568
REMARK INTRA:                  -0.273
REMARK UNBOUND:                -0.273
REMARK  Name = 
REMARK  4 active torsions:
REMARK  status: ('A' for Active; 'I' for Inactive)
REMARK    1  A    between atoms: N_1  and  C_2
REMARK    2  A    between atoms: C_2  and  C_3
REMARK    3  A    between atoms: C_6  and  C_7
REMARK    4  A    between atoms: C_8  and  C_9
REMARK                            x       y       z     vdW  Elec       q    Type
REMARK                         _______ _______ _______ _____ _____    ______ ____
ROOT
ATOM      1  C   UNL     1      45.000   4.288  10.078  0.00  0.00    +0.000 A 
ATOM      2  C   UNL     1      45.547   5.525  10.446  0.00  0.00    +0.000 A 
ATOM      3  C   UNL     1      45.982   5.758  11.755  0.00  0.00    +0.000 A 
ATOM      4  C   UNL     1      45.868   4.761  12.732  0.00  0.00    +0.000 A 
ATOM      5  C   UNL     1      45.312   3.528  12.367  0.00  0.00    +0.000 A 
ATOM      6  C   UNL     1      44.878   3.295  11.056  0.00  0.00    +0.000 A 
ENDROOT
BRANCH   4   7
ATOM      7  C   UNL     1      46.415   4.916  14.090  0.00  0.00    +0.000 C 
ATOM      8  C   UNL     1      47.181   4.013  14.724  0.00  0.00    +0.000 C 
BRANCH   8   9
ATOM      9  C   UNL     1      47.633   4.159  16.114  0.00  0.00    +0.000 A 
ATOM     10  C   UNL     1      47.585   3.149  17.060  0.00  0.00    +0.000 A 
ATOM     11  N   UNL     1      48.056   3.256  18.321  0.00  0.00    +0.000 NA
ATOM     12  C   UNL     1      48.617   4.435  18.631  0.00  0.00    +0.000 A 
ATOM     13  N   UNL     1      48.739   5.487  17.810  0.00  0.00    +0.000 NA
ATOM     14  C   UNL     1      48.244   5.317  16.562  0.00  0.00    +0.000 A 
ENDBRANCH   8   9
ENDBRANCH   4   7
BRANCH   1  15
ATOM     15  C   UNL     1      44.545   4.042   8.662  0.00  0.00    +0.000 C 
BRANCH  15  16
ATOM     16  N   UNL     1      45.657   4.097   7.719  0.00  0.00    +0.000 NA
ATOM     17  H   UNL     1      46.493   4.414   8.208  0.00  0.00    +0.000 HD
ATOM     18  H   UNL     1      45.454   4.802   7.012  0.00  0.00    +0.000 HD
ENDBRANCH  15  16
ENDBRANCH   1  15
TORSDOF 4
ENDMDL
MODEL 2
REMARK VINA RESULT:    -5.204      1.453      7.614
REMARK INTER + INTRA:          -6.541
REMARK INTER:                  -6.284
REMARK INTRA:                  -0.258
REMARK UNBOUND:                -0.273
REMARK  Name = 
REMARK  4 active torsions:
REMARK  status: ('A' for Active; 'I' for Inactive)
REMARK    1  A    between atoms: N_1  and  C_2
REMARK    2  A    between atoms: C_2  and  C_3
REMARK    3  A    between atoms: C_6  and  C_7
REMARK    4  A    between atoms: C_8  and  C_9
REMARK                            x       y       z     vdW  Elec       q    Type
REMARK                         _______ _______ _______ _____ _____    ______ ____
ROOT
ATOM      1  C   UNL     1      48.635   4.557  18.485  0.00  0.00    +0.000 A 
ATOM      2  C   UNL     1      47.961   3.379  18.135  0.00  0.00    +0.000 A 
ATOM      3  C   UNL     1      47.418   3.215  16.856  0.00  0.00    +0.000 A 
ATOM      4  C   UNL     1      47.527   4.232  15.899  0.00  0.00    +0.000 A 
ATOM      5  C   UNL     1      48.193   5.413  16.252  0.00  0.00    +0.000 A 
ATOM      6  C   UNL     1      48.737   5.577  17.532  0.00  0.00    +0.000 A 
ENDROOT
BRANCH   4   7
ATOM      7  C   UNL     1      47.077   4.062  14.508  0.00  0.00    +0.000 C 
ATOM      8  C   UNL     1      46.135   4.805  13.903  0.00  0.00    +0.000 C 
BRANCH   8   9
ATOM      9  C   UNL     1      45.643   4.549  12.543  0.00  0.00    +0.000 A 
ATOM     10  C   UNL     1      45.052   3.365  12.138  0.00  0.00    +0.000 A 
ATOM     11  N   UNL     1      44.540   3.145  10.907  0.00  0.00    +0.000 NA
ATOM     12  C   UNL     1      44.615   4.179  10.056  0.00  0.00    +0.000 A 
ATOM     13  N   UNL     1      45.149   5.379  10.323  0.00  0.00    +0.000 NA
ATOM     14  C   UNL     1      45.648   5.534  11.571  0.00  0.00    +0.000 A 
ENDBRANCH   8   9
ENDBRANCH   4   7
BRANCH   1  15
ATOM     15  C   UNL     1      49.227   4.720  19.861  0.00  0.00    +0.000 C 
BRANCH  15  16
ATOM     16  N   UNL     1      48.511   3.929  20.856  0.00  0.00    +0.000 NA
ATOM     17  H   UNL     1      48.422   2.972  20.520  0.00  0.00    +0.000 HD
ATOM     18  H   UNL     1      47.563   4.293  20.944  0.00  0.00    +0.000 HD
ENDBRANCH  15  16
ENDBRANCH   1  15
TORSDOF 4
ENDMDL
MODEL 3
REMARK VINA RESULT:    -4.792      4.331      5.547
REMARK INTER + INTRA:          -6.046
REMARK INTER:                  -5.786
REMARK INTRA:                  -0.260
REMARK UNBOUND:                -0.273
REMARK  Name = 
REMARK  4 active torsions:
REMARK  status: ('A' for Active; 'I' for Inactive)
REMARK    1  A    between atoms: N_1  and  C_2
REMARK    2  A    between atoms: C_2  and  C_3
REMARK    3  A    between atoms: C_6  and  C_7
REMARK    4  A    between atoms: C_8  and  C_9
REMARK                            x       y       z     vdW  Elec       q    Type
REMARK                         _______ _______ _______ _____ _____    ______ ____
ROOT
ATOM      1  C   UNL     1      44.408   4.201  11.568  0.00  0.00    +0.000 A 
ATOM      2  C   UNL     1      44.864   4.585  12.837  0.00  0.00    +0.000 A 
ATOM      3  C   UNL     1      45.788   5.625  12.984  0.00  0.00    +0.000 A 
ATOM      4  C   UNL     1      46.287   6.298  11.863  0.00  0.00    +0.000 A 
ATOM      5  C   UNL     1      45.839   5.908  10.594  0.00  0.00    +0.000 A 
ATOM      6  C   UNL     1      44.913   4.868  10.447  0.00  0.00    +0.000 A 
ENDROOT
BRANCH   4   7
ATOM      7  C   UNL     1      47.170   7.471  11.971  0.00  0.00    +0.000 C 
ATOM      8  C   UNL     1      48.490   7.473  11.725  0.00  0.00    +0.000 C 
BRANCH   8   9
ATOM      9  C   UNL     1      49.358   8.640  11.933  0.00  0.00    +0.000 A 
ATOM     10  C   UNL     1      50.625   8.580  12.487  0.00  0.00    +0.000 A 
ATOM     11  N   UNL     1      51.453   9.639  12.624  0.00  0.00    +0.000 NA
ATOM     12  C   UNL     1      50.981  10.806  12.162  0.00  0.00    +0.000 A 
ATOM     13  N   UNL     1      49.782  10.999  11.594  0.00  0.00    +0.000 NA
ATOM     14  C   UNL     1      48.999   9.900  11.490  0.00  0.00    +0.000 A 
ENDBRANCH   8   9
ENDBRANCH   4   7
BRANCH   1  15
ATOM     15  C   UNL     1      43.402   3.088  11.420  0.00  0.00    +0.000 C 
BRANCH  15  16
ATOM     16  N   UNL     1      43.505   2.117  12.505  0.00  0.00    +0.000 NA
ATOM     17  H   UNL     1      42.671   1.534  12.511  0.00  0.00    +0.000 HD
ATOM     18  H   UNL     1      43.514   2.617  13.393  0.00  0.00    +0.000 HD
ENDBRANCH  15  16
ENDBRANCH   1  15
TORSDOF 4
ENDMDL
MODEL 4
REMARK VINA RESULT:    -4.742      4.608      5.678
REMARK INTER + INTRA:          -5.984
REMARK INTER:                  -5.701
REMARK INTRA:                  -0.284
REMARK UNBOUND:                -0.273
REMARK  Name = 
REMARK  4 active torsions:
REMARK  status: ('A' for Active; 'I' for Inactive)
REMARK    1  A    between atoms: N_1  and  C_2
REMARK    2  A    between atoms: C_2  and  C_3
REMARK    3  A    between atoms: C_6  and  C_7
REMARK    4  A    between atoms: C_8  and  C_9
REMARK                            x       y       z     vdW  Elec       q    Type
REMARK                         _______ _______ _______ _____ _____    ______ ____
ROOT
ATOM      1  C   UNL     1      44.380   5.490  12.546  0.00  0.00    +0.000 A 
ATOM      2  C   UNL     1      45.273   4.848  13.414  0.00  0.00    +0.000 A 
ATOM      3  C   UNL     1      46.630   5.187  13.429  0.00  0.00    +0.000 A 
ATOM      4  C   UNL     1      47.128   6.170  12.567  0.00  0.00    +0.000 A 
ATOM      5  C   UNL     1      46.238   6.806  11.691  0.00  0.00    +0.000 A 
ATOM      6  C   UNL     1      44.879   6.467  11.677  0.00  0.00    +0.000 A 
ENDROOT
BRANCH   4   7
ATOM      7  C   UNL     1      48.521   6.643  12.625  0.00  0.00    +0.000 C 
ATOM      8  C   UNL     1      49.059   7.572  11.816  0.00  0.00    +0.000 C 
BRANCH   8   9
ATOM      9  C   UNL     1      50.477   7.953  11.841  0.00  0.00    +0.000 A 
ATOM     10  C   UNL     1      51.346   7.791  10.776  0.00  0.00    +0.000 A 
ATOM     11  N   UNL     1      52.635   8.196  10.769  0.00  0.00    +0.000 NA
ATOM     12  C   UNL     1      53.055   8.809  11.886  0.00  0.00    +0.000 A 
ATOM     13  N   UNL     1      52.315   9.040  12.980  0.00  0.00    +0.000 NA
ATOM     14  C   UNL     1      51.035   8.607  12.925  0.00  0.00    +0.000 A 
ENDBRANCH   8   9
ENDBRANCH   4   7
BRANCH   1  15
ATOM     15  C   UNL     1      42.917   5.127  12.545  0.00  0.00    +0.000 C 
BRANCH  15  16
ATOM     16  N   UNL     1      42.127   6.064  11.753  0.00  0.00    +0.000 NA
ATOM     17  H   UNL     1      41.268   6.282  12.254  0.00  0.00    +0.000 HD
ATOM     18  H   UNL     1      41.847   5.608  10.886  0.00  0.00    +0.000 HD
ENDBRANCH  15  16
ENDBRANCH   1  15
TORSDOF 4
ENDMDL
MODEL 5
REMARK VINA RESULT:    -4.686      3.405      4.241
REMARK INTER + INTRA:          -5.917
REMARK INTER:                  -5.659
REMARK INTRA:                  -0.258
REMARK UNBOUND:                -0.273
REMARK  Name = 
REMARK  4 active torsions:
REMARK  status: ('A' for Active; 'I' for Inactive)
REMARK    1  A    between atoms: N_1  and  C_2
REMARK    2  A    between atoms: C_2  and  C_3
REMARK    3  A    between atoms: C_6  and  C_7
REMARK    4  A    between atoms: C_8  and  C_9
REMARK                            x       y       z     vdW  Elec       q    Type
REMARK                         _______ _______ _______ _____ _____    ______ ____
ROOT
ATOM      1  C   UNL     1      44.815   3.858  11.208  0.00  0.00    +0.000 A 
ATOM      2  C   UNL     1      45.352   3.648  12.485  0.00  0.00    +0.000 A 
ATOM      3  C   UNL     1      46.195   4.595  13.075  0.00  0.00    +0.000 A 
ATOM      4  C   UNL     1      46.530   5.772  12.396  0.00  0.00    +0.000 A 
ATOM      5  C   UNL     1      46.001   5.979  11.115  0.00  0.00    +0.000 A 
ATOM      6  C   UNL     1      45.156   5.031  10.525  0.00  0.00    +0.000 A 
ENDROOT
BRANCH   4   7
ATOM      7  C   UNL     1      47.317   6.850  13.018  0.00  0.00    +0.000 C 
ATOM      8  C   UNL     1      48.652   6.850  13.162  0.00  0.00    +0.000 C 
BRANCH   8   9
ATOM      9  C   UNL     1      49.397   7.899  13.871  0.00  0.00    +0.000 A 
ATOM     10  C   UNL     1      50.519   7.669  14.648  0.00  0.00    +0.000 A 
ATOM     11  N   UNL     1      51.245   8.635  15.252  0.00  0.00    +0.000 NA
ATOM     12  C   UNL     1      50.823   9.892  15.043  0.00  0.00    +0.000 A 
ATOM     13  N   UNL     1      49.764  10.253  14.305  0.00  0.00    +0.000 NA
ATOM     14  C   UNL     1      49.077   9.238  13.731  0.00  0.00    +0.000 A 
ENDBRANCH   8   9
ENDBRANCH   4   7
BRANCH   1  15
ATOM     15  C   UNL     1      43.897   2.838  10.585  0.00  0.00    +0.000 C 
BRANCH  15  16
ATOM     16  N   UNL     1      43.043   2.198  11.580  0.00  0.00    +0.000 NA
ATOM     17  H   UNL     1      42.754   2.893  12.267  0.00  0.00    +0.000 HD
ATOM     18  H   UNL     1      43.591   1.504  12.086  0.00  0.00    +0.000 HD
ENDBRANCH  15  16
ENDBRANCH   1  15
TORSDOF 4
ENDMDL
MODEL 6
REMARK VINA RESULT:    -4.151      3.014      3.937
REMARK INTER + INTRA:          -5.273
REMARK INTER:                  -4.993
REMARK INTRA:                  -0.280
REMARK UNBOUND:                -0.273
REMARK  Name = 
REMARK  4 active torsions:
REMARK  status: ('A' for Active; 'I' for Inactive)
REMARK    1  A    between atoms: N_1  and  C_2
REMARK    2  A    between atoms: C_2  and  C_3
REMARK    3  A    between atoms: C_6  and  C_7
REMARK    4  A    between atoms: C_8  and  C_9
REMARK                            x       y       z     vdW  Elec       q    Type
REMARK                         _______ _______ _______ _____ _____    ______ ____
ROOT
ATOM      1  C   UNL     1      44.198   6.021  12.070  0.00  0.00    +0.000 A 
ATOM      2  C   UNL     1      44.497   4.965  12.941  0.00  0.00    +0.000 A 
ATOM      3  C   UNL     1      45.725   4.910  13.608  0.00  0.00    +0.000 A 
ATOM      4  C   UNL     1      46.690   5.905  13.410  0.00  0.00    +0.000 A 
ATOM      5  C   UNL     1      46.395   6.955  12.531  0.00  0.00    +0.000 A 
ATOM      6  C   UNL     1      45.165   7.012  11.864  0.00  0.00    +0.000 A 
ENDROOT
BRANCH   4   7
ATOM      7  C   UNL     1      47.947   5.953  14.174  0.00  0.00    +0.000 C 
ATOM      8  C   UNL     1      48.591   7.075  14.535  0.00  0.00    +0.000 C 
BRANCH   8   9
ATOM      9  C   UNL     1      49.893   7.086  15.216  0.00  0.00    +0.000 A 
ATOM     10  C   UNL     1      51.001   7.784  14.769  0.00  0.00    +0.000 A 
ATOM     11  N   UNL     1      52.181   7.849  15.423  0.00  0.00    +0.000 NA
ATOM     12  C   UNL     1      52.233   7.191  16.591  0.00  0.00    +0.000 A 
ATOM     13  N   UNL     1      51.233   6.490  17.142  0.00  0.00    +0.000 NA
ATOM     14  C   UNL     1      50.079   6.460  16.436  0.00  0.00    +0.000 A 
ENDBRANCH   8   9
ENDBRANCH   4   7
BRANCH   1  15
ATOM     15  C   UNL     1      42.867   6.080  11.365  0.00  0.00    +0.000 C 
BRANCH  15  16
ATOM     16  N   UNL     1      42.456   7.454  11.096  0.00  0.00    +0.000 NA
ATOM     17  H   UNL     1      42.394   7.961  11.977  0.00  0.00    +0.000 HD
ATOM     18  H   UNL     1      41.516   7.445  10.702  0.00  0.00    +0.000 HD
ENDBRANCH  15  16
ENDBRANCH   1  15
TORSDOF 4
ENDMDL
MODEL 7
REMARK VINA RESULT:    -4.116      1.779      2.503
REMARK INTER + INTRA:          -5.231
REMARK INTER:                  -4.961
REMARK INTRA:                  -0.270
REMARK UNBOUND:                -0.273
REMARK  Name = 
REMARK  4 active torsions:
REMARK  status: ('A' for Active; 'I' for Inactive)
REMARK    1  A    between atoms: N_1  and  C_2
REMARK    2  A    between atoms: C_2  and  C_3
REMARK    3  A    between atoms: C_6  and  C_7
REMARK    4  A    between atoms: C_8  and  C_9
REMARK                            x       y       z     vdW  Elec       q    Type
REMARK                         _______ _______ _______ _____ _____    ______ ____
ROOT
ATOM      1  C   UNL     1      45.402   4.661  11.009  0.00  0.00    +0.000 A 
ATOM      2  C   UNL     1      46.070   5.877  11.207  0.00  0.00    +0.000 A 
ATOM      3  C   UNL     1      46.720   6.152  12.415  0.00  0.00    +0.000 A 
ATOM      4  C   UNL     1      46.707   5.220  13.459  0.00  0.00    +0.000 A 
ATOM      5  C   UNL     1      46.031   4.008  13.265  0.00  0.00    +0.000 A 
ATOM      6  C   UNL     1      45.381   3.733  12.056  0.00  0.00    +0.000 A 
ENDROOT
BRANCH   4   7
ATOM      7  C   UNL     1      47.472   5.412  14.703  0.00  0.00    +0.000 C 
ATOM      8  C   UNL     1      48.333   6.416  14.935  0.00  0.00    +0.000 C 
BRANCH   8   9
ATOM      9  C   UNL     1      49.150   6.526  16.151  0.00  0.00    +0.000 A 
ATOM     10  C   UNL     1      49.962   7.606  16.450  0.00  0.00    +0.000 A 
ATOM     11  N   UNL     1      50.666   7.742  17.595  0.00  0.00    +0.000 NA
ATOM     12  C   UNL     1      50.526   6.746  18.483  0.00  0.00    +0.000 A 
ATOM     13  N   UNL     1      49.765   5.654  18.324  0.00  0.00    +0.000 NA
ATOM     14  C   UNL     1      49.088   5.576  17.155  0.00  0.00    +0.000 A 
ENDBRANCH   8   9
ENDBRANCH   4   7
BRANCH   1  15
ATOM     15  C   UNL     1      44.715   4.368   9.700  0.00  0.00    +0.000 C 
BRANCH  15  16
ATOM     16  N   UNL     1      43.376   4.948   9.650  0.00  0.00    +0.000 NA
ATOM     17  H   UNL     1      43.351   5.779  10.239  0.00  0.00    +0.000 HD
ATOM     18  H   UNL     1      42.717   4.287  10.058  0.00  0.00    +0.000 HD
ENDBRANCH  15  16
ENDBRANCH   1  15
TORSDOF 4
ENDMDL
MODEL 8
REMARK VINA RESULT:    -3.781      6.015      8.211
REMARK INTER + INTRA:          -4.827
REMARK INTER:                  -4.554
REMARK INTRA:                  -0.273
REMARK UNBOUND:                -0.273
REMARK  Name = 
REMARK  4 active torsions:
REMARK  status: ('A' for Active; 'I' for Inactive)
REMARK    1  A    between atoms: N_1  and  C_2
REMARK    2  A    between atoms: C_2  and  C_3
REMARK    3  A    between atoms: C_6  and  C_7
REMARK    4  A    between atoms: C_8  and  C_9
REMARK                            x       y       z     vdW  Elec       q    Type
REMARK                         _______ _______ _______ _____ _____    ______ ____
ROOT
ATOM      1  C   UNL     1      52.673   1.462  17.771  0.00  0.00    +0.000 A 
ATOM      2  C   UNL     1      51.354   1.283  17.335  0.00  0.00    +0.000 A 
ATOM      3  C   UNL     1      50.457   2.357  17.298  0.00  0.00    +0.000 A 
ATOM      4  C   UNL     1      50.857   3.634  17.709  0.00  0.00    +0.000 A 
ATOM      5  C   UNL     1      52.174   3.811  18.154  0.00  0.00    +0.000 A 
ATOM      6  C   UNL     1      53.071   2.737  18.190  0.00  0.00    +0.000 A 
ENDROOT
BRANCH   4   7
ATOM      7  C   UNL     1      49.989   4.816  17.580  0.00  0.00    +0.000 C 
ATOM      8  C   UNL     1      50.312   5.947  16.932  0.00  0.00    +0.000 C 
BRANCH   8   9
ATOM      9  C   UNL     1      49.459   7.143  16.903  0.00  0.00    +0.000 A 
ATOM     10  C   UNL     1      48.767   7.634  17.996  0.00  0.00    +0.000 A 
ATOM     11  N   UNL     1      48.032   8.767  17.993  0.00  0.00    +0.000 NA
ATOM     12  C   UNL     1      48.013   9.441  16.832  0.00  0.00    +0.000 A 
ATOM     13  N   UNL     1      48.646   9.084  15.706  0.00  0.00    +0.000 NA
ATOM     14  C   UNL     1      49.362   7.938  15.775  0.00  0.00    +0.000 A 
ENDBRANCH   8   9
ENDBRANCH   4   7
BRANCH   1  15
ATOM     15  C   UNL     1      53.636   0.303  17.796  0.00  0.00    +0.000 C 
BRANCH  15  16
ATOM     16  N   UNL     1      53.109  -0.822  18.562  0.00  0.00    +0.000 NA
ATOM     17  H   UNL     1      52.141  -0.629  18.813  0.00  0.00    +0.000 HD
ATOM     18  H   UNL     1      53.625  -0.894  19.438  0.00  0.00    +0.000 HD
ENDBRANCH  15  16
ENDBRANCH   1  15
TORSDOF 4
ENDMDL
MODEL 9
REMARK VINA RESULT:    -3.573      9.773     12.075
REMARK INTER + INTRA:          -4.576
REMARK INTER:                  -4.317
REMARK INTRA:                  -0.259
REMARK UNBOUND:                -0.273
REMARK  Name = 
REMARK  4 active torsions:
REMARK  status: ('A' for Active; 'I' for Inactive)
REMARK    1  A    between atoms: N_1  and  C_2
REMARK    2  A    between atoms: C_2  and  C_3
REMARK    3  A    between atoms: C_6  and  C_7
REMARK    4  A    between atoms: C_8  and  C_9
REMARK                            x       y       z     vdW  Elec       q    Type
REMARK                         _______ _______ _______ _____ _____    ______ ____
ROOT
ATOM      1  C   UNL     1      45.788  -6.832  18.109  0.00  0.00    +0.000 A 
ATOM      2  C   UNL     1      45.798  -5.574  18.726  0.00  0.00    +0.000 A 
ATOM      3  C   UNL     1      44.724  -4.690  18.574  0.00  0.00    +0.000 A 
ATOM      4  C   UNL     1      43.618  -5.041  17.791  0.00  0.00    +0.000 A 
ATOM      5  C   UNL     1      43.612  -6.295  17.166  0.00  0.00    +0.000 A 
ATOM      6  C   UNL     1      44.687  -7.179  17.318  0.00  0.00    +0.000 A 
ENDROOT
BRANCH   4   7
ATOM      7  C   UNL     1      42.416  -4.197  17.695  0.00  0.00    +0.000 C 
ATOM      8  C   UNL     1      42.112  -3.396  16.660  0.00  0.00    +0.000 C 
BRANCH   8   9
ATOM      9  C   UNL     1      40.951  -2.496  16.638  0.00  0.00    +0.000 A 
ATOM     10  C   UNL     1      40.385  -1.982  15.484  0.00  0.00    +0.000 A 
ATOM     11  N   UNL     1      39.280  -1.206  15.452  0.00  0.00    +0.000 NA
ATOM     12  C   UNL     1      38.714  -0.955  16.643  0.00  0.00    +0.000 A 
ATOM     13  N   UNL     1      39.151  -1.400  17.829  0.00  0.00    +0.000 NA
ATOM     14  C   UNL     1      40.264  -2.169  17.793  0.00  0.00    +0.000 A 
ENDBRANCH   8   9
ENDBRANCH   4   7
BRANCH   1  15
ATOM     15  C   UNL     1      46.945  -7.782  18.288  0.00  0.00    +0.000 C 
BRANCH  15  16
ATOM     16  N   UNL     1      47.116  -8.169  19.684  0.00  0.00    +0.000 NA
ATOM     17  H   UNL     1      46.619  -7.507  20.277  0.00  0.00    +0.000 HD
ATOM     18  H   UNL     1      48.103  -8.089  19.928  0.00  0.00    +0.000 HD
ENDBRANCH  15  16
ENDBRANCH   1  15
TORSDOF 4
ENDMDL
