MODEL 1
REMARK VINA RESULT:    -7.511      0.000      0.000
REMARK INTER + INTRA:         -11.714
REMARK INTER:                 -10.585
REMARK INTRA:                  -1.129
REMARK UNBOUND:                -1.129
REMARK  Name = 
REMARK  8 active torsions:
REMARK  status: ('A' for Active; 'I' for Inactive)
REMARK    1  A    between atoms: C_1  and  C_2
REMARK    2  A    between atoms: C_2  and  C_3
REMARK    3  A    between atoms: C_2  and  C_18
REMARK    4  A    between atoms: C_3  and  N_4
REMARK    5  A    between atoms: N_4  and  C_5
REMARK    6  A    between atoms: C_8  and  C_9
REMARK    7  A    between atoms: C_12  and  C_13
REMARK    8  A    between atoms: C_22  and  C_23
REMARK                            x       y       z     vdW  Elec       q    Type
REMARK                         _______ _______ _______ _____ _____    ______ ____
ROOT
ATOM      1  C   UNL     1      44.602   5.826  12.707  0.00  0.00    +0.000 A 
ATOM      2  C   UNL     1      45.222   6.915  12.100  0.00  0.00    +0.000 A 
ATOM      3  C   UNL     1      46.542   7.260  12.412  0.00  0.00    +0.000 A 
ATOM      4  C   UNL     1      47.307   6.511  13.324  0.00  0.00    +0.000 A 
ATOM      5  C   UNL     1      46.705   5.420  13.966  0.00  0.00    +0.000 A 
ATOM      6  C   UNL     1      45.370   5.081  13.614  0.00  0.00    +0.000 A 
ENDROOT
BRANCH   4   7
ATOM      7  C   UNL     1      48.706   6.998  13.491  0.00  0.00    +0.000 C 
ATOM      8  N   UNL     1      49.610   6.785  12.493  0.00  0.00    +0.000 N 
ATOM      9  O   UNL     1      49.027   7.648  14.479  0.00  0.00    +0.000 OA
ATOM     10  H   UNL     1      49.497   6.108  11.753  0.00  0.00    +0.000 HD
ATOM     11  H   UNL     1      50.560   7.078  12.692  0.00  0.00    +0.000 HD
ENDBRANCH   4   7
BRANCH   5  12
ATOM     12  C   UNL     1      47.330   4.586  15.049  0.00  0.00    +0.000 C 
ATOM     13  F   UNL     1      48.383   5.137  15.704  0.00  0.00    +0.000 F 
ATOM     14  F   UNL     1      46.434   4.262  16.025  0.00  0.00    +0.000 F 
ATOM     15  F   UNL     1      47.792   3.395  14.569  0.00  0.00    +0.000 F 
ENDBRANCH   5  12
BRANCH   1  16
ATOM     16  N   UNL     1      43.322   5.375  12.382  0.00  0.00    +0.000 N 
ATOM     17  H   UNL     1      42.587   5.911  12.836  0.00  0.00    +0.000 HD
BRANCH  16  18
ATOM     18  C   UNL     1      43.001   4.990  11.015  0.00  0.00    +0.000 C 
BRANCH  18  20
ATOM     19  C   UNL     1      43.420   2.556  11.775  0.00  0.00    +0.000 C 
ATOM     20  C   UNL     1      43.561   3.624  10.730  0.00  0.00    +0.000 C 
BRANCH  20  21
ATOM     21  C   UNL     1      44.590   3.467   9.682  0.00  0.00    +0.000 A 
ATOM     22  C   UNL     1      45.143   4.586   9.045  0.00  0.00    +0.000 A 
ATOM     23  C   UNL     1      46.102   4.440   8.036  0.00  0.00    +0.000 A 
ATOM     24  C   UNL     1      46.528   3.169   7.655  0.00  0.00    +0.000 A 
ATOM     25  C   UNL     1      45.999   2.042   8.284  0.00  0.00    +0.000 A 
ATOM     26  C   UNL     1      45.032   2.194   9.290  0.00  0.00    +0.000 A 
BRANCH  25  27
ATOM     27  C   UNL     1      46.442   0.731   7.908  0.00  0.00    +0.000 C 
ATOM     28  N   UNL     1      46.803  -0.328   7.602  0.00  0.00    +0.000 NA
ENDBRANCH  25  27
ENDBRANCH  20  21
ENDBRANCH  18  20
ENDBRANCH  16  18
ENDBRANCH   1  16
TORSDOF 7
ENDMDL
MODEL 2
REMARK VINA RESULT:    -6.876      1.646      1.956
REMARK INTER + INTRA:         -10.819
REMARK INTER:                 -10.082
REMARK INTRA:                  -0.737
REMARK UNBOUND:                -1.129
REMARK  Name = 
REMARK  8 active torsions:
REMARK  status: ('A' for Active; 'I' for Inactive)
REMARK    1  A    between atoms: C_1  and  C_2
REMARK    2  A    between atoms: C_2  and  C_3
REMARK    3  A    between atoms: C_2  and  C_18
REMARK    4  A    between atoms: C_3  and  N_4
REMARK    5  A    between atoms: N_4  and  C_5
REMARK    6  A    between atoms: C_8  and  C_9
REMARK    7  A    between atoms: C_12  and  C_13
REMARK    8  A    between atoms: C_22  and  C_23
REMARK                            x       y       z     vdW  Elec       q    Type
REMARK                         _______ _______ _______ _____ _____    ______ ____
ROOT
ATOM      1  C   UNL     1      46.221   5.087  13.574  0.00  0.00    +0.000 A 
ATOM      2  C   UNL     1      46.887   6.270  13.266  0.00  0.00    +0.000 A 
ATOM      3  C   UNL     1      47.896   6.769  14.098  0.00  0.00    +0.000 A 
ATOM      4  C   UNL     1      48.298   6.088  15.261  0.00  0.00    +0.000 A 
ATOM      5  C   UNL     1      47.634   4.904  15.610  0.00  0.00    +0.000 A 
ATOM      6  C   UNL     1      46.627   4.412  14.733  0.00  0.00    +0.000 A 
ENDROOT
BRANCH   4   7
ATOM      7  C   UNL     1      49.419   6.743  15.994  0.00  0.00    +0.000 C 
ATOM      8  N   UNL     1      49.155   7.813  16.798  0.00  0.00    +0.000 N 
ATOM      9  O   UNL     1      50.555   6.286  15.939  0.00  0.00    +0.000 OA
ATOM     10  H   UNL     1      48.313   8.367  16.754  0.00  0.00    +0.000 HD
ATOM     11  H   UNL     1      49.964   8.258  17.216  0.00  0.00    +0.000 HD
ENDBRANCH   4   7
BRANCH   5  12
ATOM     12  C   UNL     1      47.850   4.115  16.871  0.00  0.00    +0.000 C 
ATOM     13  F   UNL     1      48.961   3.337  16.913  0.00  0.00    +0.000 F 
ATOM     14  F   UNL     1      47.936   4.919  17.969  0.00  0.00    +0.000 F 
ATOM     15  F   UNL     1      46.811   3.267  17.121  0.00  0.00    +0.000 F 
ENDBRANCH   5  12
BRANCH   1  16
ATOM     16  N   UNL     1      45.268   4.489  12.747  0.00  0.00    +0.000 N 
ATOM     17  H   UNL     1      44.417   4.239  13.243  0.00  0.00    +0.000 HD
BRANCH  16  18
ATOM     18  C   UNL     1      45.031   5.002  11.405  0.00  0.00    +0.000 C 
BRANCH  18  20
ATOM     19  C   UNL     1      43.502   2.943  11.089  0.00  0.00    +0.000 C 
ATOM     20  C   UNL     1      44.515   3.896  10.526  0.00  0.00    +0.000 C 
BRANCH  20  21
ATOM     21  C   UNL     1      45.295   3.491   9.338  0.00  0.00    +0.000 A 
ATOM     22  C   UNL     1      45.772   4.447   8.433  0.00  0.00    +0.000 A 
ATOM     23  C   UNL     1      46.492   4.065   7.295  0.00  0.00    +0.000 A 
ATOM     24  C   UNL     1      46.751   2.718   7.050  0.00  0.00    +0.000 A 
ATOM     25  C   UNL     1      46.294   1.750   7.945  0.00  0.00    +0.000 A 
ATOM     26  C   UNL     1      45.567   2.138   9.082  0.00  0.00    +0.000 A 
BRANCH  25  27
ATOM     27  C   UNL     1      46.567   0.362   7.709  0.00  0.00    +0.000 C 
ATOM     28  N   UNL     1      46.790  -0.761   7.522  0.00  0.00    +0.000 NA
ENDBRANCH  25  27
ENDBRANCH  20  21
ENDBRANCH  18  20
ENDBRANCH  16  18
ENDBRANCH   1  16
TORSDOF 7
ENDMDL
MODEL 3
REMARK VINA RESULT:    -6.874      3.594      7.055
REMARK INTER + INTRA:         -10.816
REMARK INTER:                  -9.469
REMARK INTRA:                  -1.346
REMARK UNBOUND:                -1.129
REMARK  Name = 
REMARK  8 active torsions:
REMARK  status: ('A' for Active; 'I' for Inactive)
REMARK    1  A    between atoms: C_1  and  C_2
REMARK    2  A    between atoms: C_2  and  C_3
REMARK    3  A    between atoms: C_2  and  C_18
REMARK    4  A    between atoms: C_3  and  N_4
REMARK    5  A    between atoms: N_4  and  C_5
REMARK    6  A    between atoms: C_8  and  C_9
REMARK    7  A    between atoms: C_12  and  C_13
REMARK    8  A    between atoms: C_22  and  C_23
REMARK                            x       y       z     vdW  Elec       q    Type
REMARK                         _______ _______ _______ _____ _____    ______ ____
ROOT
ATOM      1  C   UNL     1      46.009   6.983  11.950  0.00  0.00    +0.000 A 
ATOM      2  C   UNL     1      45.228   6.501  12.997  0.00  0.00    +0.000 A 
ATOM      3  C   UNL     1      44.491   5.320  12.862  0.00  0.00    +0.000 A 
ATOM      4  C   UNL     1      44.526   4.556  11.682  0.00  0.00    +0.000 A 
ATOM      5  C   UNL     1      45.288   5.025  10.603  0.00  0.00    +0.000 A 
ATOM      6  C   UNL     1      46.043   6.218  10.776  0.00  0.00    +0.000 A 
ENDROOT
BRANCH   4   7
ATOM      7  C   UNL     1      43.717   3.305  11.740  0.00  0.00    +0.000 C 
ATOM      8  N   UNL     1      44.098   2.303  12.582  0.00  0.00    +0.000 N 
ATOM      9  O   UNL     1      42.679   3.201  11.096  0.00  0.00    +0.000 OA
ATOM     10  H   UNL     1      45.018   2.217  12.990  0.00  0.00    +0.000 HD
ATOM     11  H   UNL     1      43.550   1.452  12.529  0.00  0.00    +0.000 HD
ENDBRANCH   4   7
BRANCH   5  12
ATOM     12  C   UNL     1      45.346   4.405   9.234  0.00  0.00    +0.000 C 
ATOM     13  F   UNL     1      45.641   3.081   9.183  0.00  0.00    +0.000 F 
ATOM     14  F   UNL     1      44.164   4.532   8.565  0.00  0.00    +0.000 F 
ATOM     15  F   UNL     1      46.280   5.008   8.444  0.00  0.00    +0.000 F 
ENDBRANCH   5  12
BRANCH   1  16
ATOM     16  N   UNL     1      46.835   8.105  12.044  0.00  0.00    +0.000 N 
ATOM     17  H   UNL     1      46.480   8.902  11.521  0.00  0.00    +0.000 HD
BRANCH  16  18
ATOM     18  C   UNL     1      47.444   8.468  13.316  0.00  0.00    +0.000 C 
BRANCH  18  20
ATOM     19  C   UNL     1      49.564   7.460  12.235  0.00  0.00    +0.000 C 
ATOM     20  C   UNL     1      48.760   7.756  13.467  0.00  0.00    +0.000 C 
BRANCH  20  21
ATOM     21  C   UNL     1      49.029   6.984  14.698  0.00  0.00    +0.000 A 
ATOM     22  C   UNL     1      50.193   7.207  15.445  0.00  0.00    +0.000 A 
ATOM     23  C   UNL     1      50.462   6.462  16.599  0.00  0.00    +0.000 A 
ATOM     24  C   UNL     1      49.563   5.486  17.026  0.00  0.00    +0.000 A 
ATOM     25  C   UNL     1      48.393   5.256  16.303  0.00  0.00    +0.000 A 
ATOM     26  C   UNL     1      48.132   6.001  15.143  0.00  0.00    +0.000 A 
BRANCH  25  27
ATOM     27  C   UNL     1      47.456   4.263  16.743  0.00  0.00    +0.000 C 
ATOM     28  N   UNL     1      46.701   3.459  17.102  0.00  0.00    +0.000 NA
ENDBRANCH  25  27
ENDBRANCH  20  21
ENDBRANCH  18  20
ENDBRANCH  16  18
ENDBRANCH   1  16
TORSDOF 7
ENDMDL
MODEL 4
REMARK VINA RESULT:    -6.665      1.828      2.222
REMARK INTER + INTRA:         -10.522
REMARK INTER:                  -9.533
REMARK INTRA:                  -0.989
REMARK UNBOUND:                -1.129
REMARK  Name = 
REMARK  8 active torsions:
REMARK  status: ('A' for Active; 'I' for Inactive)
REMARK    1  A    between atoms: C_1  and  C_2
REMARK    2  A    between atoms: C_2  and  C_3
REMARK    3  A    between atoms: C_2  and  C_18
REMARK    4  A    between atoms: C_3  and  N_4
REMARK    5  A    between atoms: N_4  and  C_5
REMARK    6  A    between atoms: C_8  and  C_9
REMARK    7  A    between atoms: C_12  and  C_13
REMARK    8  A    between atoms: C_22  and  C_23
REMARK                            x       y       z     vdW  Elec       q    Type
REMARK                         _______ _______ _______ _____ _____    ______ ____
ROOT
ATOM      1  C   UNL     1      45.355   6.376  12.615  0.00  0.00    +0.000 A 
ATOM      2  C   UNL     1      45.009   7.498  11.867  0.00  0.00    +0.000 A 
ATOM      3  C   UNL     1      45.810   8.645  11.874  0.00  0.00    +0.000 A 
ATOM      4  C   UNL     1      47.008   8.707  12.609  0.00  0.00    +0.000 A 
ATOM      5  C   UNL     1      47.374   7.600  13.388  0.00  0.00    +0.000 A 
ATOM      6  C   UNL     1      46.551   6.441  13.344  0.00  0.00    +0.000 A 
ENDROOT
BRANCH   4   7
ATOM      7  C   UNL     1      47.753   9.989  12.456  0.00  0.00    +0.000 C 
ATOM      8  N   UNL     1      47.870  10.824  13.527  0.00  0.00    +0.000 N 
ATOM      9  O   UNL     1      48.318  10.262  11.403  0.00  0.00    +0.000 OA
ATOM     10  H   UNL     1      47.289  10.782  14.351  0.00  0.00    +0.000 HD
ATOM     11  H   UNL     1      48.328  11.710  13.345  0.00  0.00    +0.000 HD
ENDBRANCH   4   7
BRANCH   5  12
ATOM     12  C   UNL     1      48.550   7.536  14.323  0.00  0.00    +0.000 C 
ATOM     13  F   UNL     1      49.761   7.841  13.792  0.00  0.00    +0.000 F 
ATOM     14  F   UNL     1      48.404   8.378  15.385  0.00  0.00    +0.000 F 
ATOM     15  F   UNL     1      48.700   6.292  14.861  0.00  0.00    +0.000 F 
ENDBRANCH   5  12
BRANCH   1  16
ATOM     16  N   UNL     1      44.650   5.171  12.588  0.00  0.00    +0.000 N 
ATOM     17  H   UNL     1      44.452   4.809  13.517  0.00  0.00    +0.000 HD
BRANCH  16  18
ATOM     18  C   UNL     1      43.560   4.976  11.642  0.00  0.00    +0.000 C 
BRANCH  18  20
ATOM     19  C   UNL     1      43.307   2.406  11.738  0.00  0.00    +0.000 C 
ATOM     20  C   UNL     1      43.704   3.636  10.975  0.00  0.00    +0.000 C 
BRANCH  20  21
ATOM     21  C   UNL     1      44.610   3.497   9.817  0.00  0.00    +0.000 A 
ATOM     22  C   UNL     1      45.004   4.619   9.075  0.00  0.00    +0.000 A 
ATOM     23  C   UNL     1      45.845   4.488   7.963  0.00  0.00    +0.000 A 
ATOM     24  C   UNL     1      46.310   3.230   7.582  0.00  0.00    +0.000 A 
ATOM     25  C   UNL     1      45.939   2.102   8.314  0.00  0.00    +0.000 A 
ATOM     26  C   UNL     1      45.090   2.238   9.424  0.00  0.00    +0.000 A 
BRANCH  25  27
ATOM     27  C   UNL     1      46.423   0.806   7.938  0.00  0.00    +0.000 C 
ATOM     28  N   UNL     1      46.818  -0.242   7.635  0.00  0.00    +0.000 NA
ENDBRANCH  25  27
ENDBRANCH  20  21
ENDBRANCH  18  20
ENDBRANCH  16  18
ENDBRANCH   1  16
TORSDOF 7
ENDMDL
MODEL 5
REMARK VINA RESULT:    -6.569      2.537      3.761
REMARK INTER + INTRA:         -10.387
REMARK INTER:                  -9.275
REMARK INTRA:                  -1.112
REMARK UNBOUND:                -1.129
REMARK  Name = 
REMARK  8 active torsions:
REMARK  status: ('A' for Active; 'I' for Inactive)
REMARK    1  A    between atoms: C_1  and  C_2
REMARK    2  A    between atoms: C_2  and  C_3
REMARK    3  A    between atoms: C_2  and  C_18
REMARK    4  A    between atoms: C_3  and  N_4
REMARK    5  A    between atoms: N_4  and  C_5
REMARK    6  A    between atoms: C_8  and  C_9
REMARK    7  A    between atoms: C_12  and  C_13
REMARK    8  A    between atoms: C_22  and  C_23
REMARK                            x       y       z     vdW  Elec       q    Type
REMARK                         _______ _______ _______ _____ _____    ______ ____
ROOT
ATOM      1  C   UNL     1      47.151   5.918  13.757  0.00  0.00    +0.000 A 
ATOM      2  C   UNL     1      46.736   4.592  13.669  0.00  0.00    +0.000 A 
ATOM      3  C   UNL     1      47.064   3.666  14.665  0.00  0.00    +0.000 A 
ATOM      4  C   UNL     1      47.798   4.036  15.807  0.00  0.00    +0.000 A 
ATOM      5  C   UNL     1      48.247   5.359  15.916  0.00  0.00    +0.000 A 
ATOM      6  C   UNL     1      47.880   6.283  14.898  0.00  0.00    +0.000 A 
ENDROOT
BRANCH   4   7
ATOM      7  C   UNL     1      48.009   2.928  16.782  0.00  0.00    +0.000 C 
ATOM      8  N   UNL     1      47.072   2.702  17.747  0.00  0.00    +0.000 N 
ATOM      9  O   UNL     1      48.973   2.179  16.679  0.00  0.00    +0.000 OA
ATOM     10  H   UNL     1      46.367   3.368  18.027  0.00  0.00    +0.000 HD
ATOM     11  H   UNL     1      47.302   1.981  18.421  0.00  0.00    +0.000 HD
ENDBRANCH   4   7
BRANCH   5  12
ATOM     12  C   UNL     1      49.138   5.897  17.000  0.00  0.00    +0.000 C 
ATOM     13  F   UNL     1      48.675   5.789  18.271  0.00  0.00    +0.000 F 
ATOM     14  F   UNL     1      50.357   5.285  17.011  0.00  0.00    +0.000 F 
ATOM     15  F   UNL     1      49.399   7.225  16.828  0.00  0.00    +0.000 F 
ENDBRANCH   5  12
BRANCH   1  16
ATOM     16  N   UNL     1      46.788   6.912  12.846  0.00  0.00    +0.000 N 
ATOM     17  H   UNL     1      47.134   7.832  13.107  0.00  0.00    +0.000 HD
BRANCH  16  18
ATOM     18  C   UNL     1      46.843   6.654  11.415  0.00  0.00    +0.000 C 
BRANCH  18  20
ATOM     19  C   UNL     1      44.300   7.113  11.472  0.00  0.00    +0.000 C 
ATOM     20  C   UNL     1      45.462   6.352  10.902  0.00  0.00    +0.000 C 
BRANCH  20  21
ATOM     21  C   UNL     1      45.208   5.067  10.219  0.00  0.00    +0.000 A 
ATOM     22  C   UNL     1      44.420   4.077  10.822  0.00  0.00    +0.000 A 
ATOM     23  C   UNL     1      44.196   2.850  10.188  0.00  0.00    +0.000 A 
ATOM     24  C   UNL     1      44.753   2.598   8.935  0.00  0.00    +0.000 A 
ATOM     25  C   UNL     1      45.531   3.574   8.312  0.00  0.00    +0.000 A 
ATOM     26  C   UNL     1      45.758   4.801   8.956  0.00  0.00    +0.000 A 
BRANCH  25  27
ATOM     27  C   UNL     1      46.097   3.329   7.017  0.00  0.00    +0.000 C 
ATOM     28  N   UNL     1      46.555   3.134   5.970  0.00  0.00    +0.000 NA
ENDBRANCH  25  27
ENDBRANCH  20  21
ENDBRANCH  18  20
ENDBRANCH  16  18
ENDBRANCH   1  16
TORSDOF 7
ENDMDL
MODEL 6
REMARK VINA RESULT:    -6.529      3.581      7.117
REMARK INTER + INTRA:         -10.329
REMARK INTER:                  -9.393
REMARK INTRA:                  -0.937
REMARK UNBOUND:                -1.129
REMARK  Name = 
REMARK  8 active torsions:
REMARK  status: ('A' for Active; 'I' for Inactive)
REMARK    1  A    between atoms: C_1  and  C_2
REMARK    2  A    between atoms: C_2  and  C_3
REMARK    3  A    between atoms: C_2  and  C_18
REMARK    4  A    between atoms: C_3  and  N_4
REMARK    5  A    between atoms: N_4  and  C_5
REMARK    6  A    between atoms: C_8  and  C_9
REMARK    7  A    between atoms: C_12  and  C_13
REMARK    8  A    between atoms: C_22  and  C_23
REMARK                            x       y       z     vdW  Elec       q    Type
REMARK                         _______ _______ _______ _____ _____    ______ ____
ROOT
ATOM      1  C   UNL     1      47.095   6.893  12.722  0.00  0.00    +0.000 A 
ATOM      2  C   UNL     1      46.167   7.768  12.163  0.00  0.00    +0.000 A 
ATOM      3  C   UNL     1      44.944   7.302  11.668  0.00  0.00    +0.000 A 
ATOM      4  C   UNL     1      44.587   5.943  11.736  0.00  0.00    +0.000 A 
ATOM      5  C   UNL     1      45.508   5.035  12.275  0.00  0.00    +0.000 A 
ATOM      6  C   UNL     1      46.734   5.540  12.789  0.00  0.00    +0.000 A 
ENDROOT
BRANCH   4   7
ATOM      7  C   UNL     1      43.227   5.642  11.205  0.00  0.00    +0.000 C 
ATOM      8  N   UNL     1      42.139   6.222  11.788  0.00  0.00    +0.000 N 
ATOM      9  O   UNL     1      43.086   4.942  10.209  0.00  0.00    +0.000 OA
ATOM     10  H   UNL     1      42.138   6.641  12.707  0.00  0.00    +0.000 HD
ATOM     11  H   UNL     1      41.239   5.928  11.428  0.00  0.00    +0.000 HD
ENDBRANCH   4   7
BRANCH   5  12
ATOM     12  C   UNL     1      45.345   3.541  12.317  0.00  0.00    +0.000 C 
ATOM     13  F   UNL     1      46.292   2.849  12.998  0.00  0.00    +0.000 F 
ATOM     14  F   UNL     1      44.159   3.172  12.882  0.00  0.00    +0.000 F 
ATOM     15  F   UNL     1      45.337   2.997  11.066  0.00  0.00    +0.000 F 
ENDBRANCH   5  12
BRANCH   1  16
ATOM     16  N   UNL     1      48.294   7.298  13.311  0.00  0.00    +0.000 N 
ATOM     17  H   UNL     1      48.983   7.609  12.631  0.00  0.00    +0.000 HD
BRANCH  16  18
ATOM     18  C   UNL     1      48.284   8.090  14.533  0.00  0.00    +0.000 C 
BRANCH  18  20
ATOM     19  C   UNL     1      50.794   8.562  14.926  0.00  0.00    +0.000 C 
ATOM     20  C   UNL     1      49.543   7.830  15.314  0.00  0.00    +0.000 C 
BRANCH  20  21
ATOM     21  C   UNL     1      49.658   6.592  16.112  0.00  0.00    +0.000 A 
ATOM     22  C   UNL     1      50.881   6.219  16.686  0.00  0.00    +0.000 A 
ATOM     23  C   UNL     1      50.998   5.036  17.424  0.00  0.00    +0.000 A 
ATOM     24  C   UNL     1      49.890   4.211  17.604  0.00  0.00    +0.000 A 
ATOM     25  C   UNL     1      48.660   4.569  17.051  0.00  0.00    +0.000 A 
ATOM     26  C   UNL     1      48.549   5.754  16.306  0.00  0.00    +0.000 A 
BRANCH  25  27
ATOM     27  C   UNL     1      47.511   3.733  17.243  0.00  0.00    +0.000 C 
ATOM     28  N   UNL     1      46.582   3.056  17.395  0.00  0.00    +0.000 NA
ENDBRANCH  25  27
ENDBRANCH  20  21
ENDBRANCH  18  20
ENDBRANCH  16  18
ENDBRANCH   1  16
TORSDOF 7
ENDMDL
MODEL 7
REMARK VINA RESULT:    -6.424      3.828      7.384
REMARK INTER + INTRA:         -10.182
REMARK INTER:                  -9.216
REMARK INTRA:                  -0.966
REMARK UNBOUND:                -1.129
REMARK  Name = 
REMARK  8 active torsions:
REMARK  status: ('A' for Active; 'I' for Inactive)
REMARK    1  A    between atoms: C_1  and  C_2
REMARK    2  A    between atoms: C_2  and  C_3
REMARK    3  A    between atoms: C_2  and  C_18
REMARK    4  A    between atoms: C_3  and  N_4
REMARK    5  A    between atoms: N_4  and  C_5
REMARK    6  A    between atoms: C_8  and  C_9
REMARK    7  A    between atoms: C_12  and  C_13
REMARK    8  A    between atoms: C_22  and  C_23
REMARK                            x       y       z     vdW  Elec       q    Type
REMARK                         _______ _______ _______ _____ _____    ______ ____
ROOT
ATOM      1  C   UNL     1      46.459   6.377  13.274  0.00  0.00    +0.000 A 
ATOM      2  C   UNL     1      46.808   5.055  13.538  0.00  0.00    +0.000 A 
ATOM      3  C   UNL     1      46.002   3.996  13.105  0.00  0.00    +0.000 A 
ATOM      4  C   UNL     1      44.825   4.217  12.366  0.00  0.00    +0.000 A 
ATOM      5  C   UNL     1      44.437   5.537  12.101  0.00  0.00    +0.000 A 
ATOM      6  C   UNL     1      45.287   6.591  12.535  0.00  0.00    +0.000 A 
ENDROOT
BRANCH   4   7
ATOM      7  C   UNL     1      44.124   2.968  11.950  0.00  0.00    +0.000 C 
ATOM      8  N   UNL     1      44.350   2.460  10.705  0.00  0.00    +0.000 N 
ATOM      9  O   UNL     1      43.409   2.360  12.738  0.00  0.00    +0.000 OA
ATOM     10  H   UNL     1      44.753   2.980   9.939  0.00  0.00    +0.000 HD
ATOM     11  H   UNL     1      43.795   1.650  10.454  0.00  0.00    +0.000 HD
ENDBRANCH   4   7
BRANCH   5  12
ATOM     12  C   UNL     1      43.157   5.958  11.433  0.00  0.00    +0.000 C 
ATOM     13  F   UNL     1      42.009   5.683  12.101  0.00  0.00    +0.000 F 
ATOM     14  F   UNL     1      43.121   7.301  11.200  0.00  0.00    +0.000 F 
ATOM     15  F   UNL     1      43.008   5.371  10.211  0.00  0.00    +0.000 F 
ENDBRANCH   5  12
BRANCH   1  16
ATOM     16  N   UNL     1      47.258   7.475  13.599  0.00  0.00    +0.000 N 
ATOM     17  H   UNL     1      46.831   8.081  14.295  0.00  0.00    +0.000 HD
BRANCH  16  18
ATOM     18  C   UNL     1      48.695   7.317  13.768  0.00  0.00    +0.000 C 
BRANCH  18  20
ATOM     19  C   UNL     1      49.572   8.908  15.607  0.00  0.00    +0.000 C 
ATOM     20  C   UNL     1      49.064   7.553  15.207  0.00  0.00    +0.000 C 
BRANCH  20  21
ATOM     21  C   UNL     1      49.349   6.397  16.081  0.00  0.00    +0.000 A 
ATOM     22  C   UNL     1      50.625   6.210  16.630  0.00  0.00    +0.000 A 
ATOM     23  C   UNL     1      50.905   5.103  17.439  0.00  0.00    +0.000 A 
ATOM     24  C   UNL     1      49.908   4.169  17.718  0.00  0.00    +0.000 A 
ATOM     25  C   UNL     1      48.628   4.343  17.190  0.00  0.00    +0.000 A 
ATOM     26  C   UNL     1      48.355   5.451  16.373  0.00  0.00    +0.000 A 
BRANCH  25  27
ATOM     27  C   UNL     1      47.593   3.395  17.482  0.00  0.00    +0.000 C 
ATOM     28  N   UNL     1      46.757   2.626  17.718  0.00  0.00    +0.000 NA
ENDBRANCH  25  27
ENDBRANCH  20  21
ENDBRANCH  18  20
ENDBRANCH  16  18
ENDBRANCH   1  16
TORSDOF 7
ENDMDL
MODEL 8
REMARK VINA RESULT:    -6.272      3.496      7.132
REMARK INTER + INTRA:          -9.968
REMARK INTER:                  -8.429
REMARK INTRA:                  -1.539
REMARK UNBOUND:                -1.129
REMARK  Name = 
REMARK  8 active torsions:
REMARK  status: ('A' for Active; 'I' for Inactive)
REMARK    1  A    between atoms: C_1  and  C_2
REMARK    2  A    between atoms: C_2  and  C_3
REMARK    3  A    between atoms: C_2  and  C_18
REMARK    4  A    between atoms: C_3  and  N_4
REMARK    5  A    between atoms: N_4  and  C_5
REMARK    6  A    between atoms: C_8  and  C_9
REMARK    7  A    between atoms: C_12  and  C_13
REMARK    8  A    between atoms: C_22  and  C_23
REMARK                            x       y       z     vdW  Elec       q    Type
REMARK                         _______ _______ _______ _____ _____    ______ ____
ROOT
ATOM      1  C   UNL     1      48.709   7.180  13.761  0.00  0.00    +0.000 A 
ATOM      2  C   UNL     1      48.543   7.860  12.557  0.00  0.00    +0.000 A 
ATOM      3  C   UNL     1      47.538   7.494  11.655  0.00  0.00    +0.000 A 
ATOM      4  C   UNL     1      46.639   6.448  11.933  0.00  0.00    +0.000 A 
ATOM      5  C   UNL     1      46.793   5.732  13.127  0.00  0.00    +0.000 A 
ATOM      6  C   UNL     1      47.810   6.140  14.034  0.00  0.00    +0.000 A 
ENDROOT
BRANCH   4   7
ATOM      7  C   UNL     1      45.607   6.235  10.878  0.00  0.00    +0.000 C 
ATOM      8  N   UNL     1      44.447   6.950  10.926  0.00  0.00    +0.000 N 
ATOM      9  O   UNL     1      45.822   5.482   9.936  0.00  0.00    +0.000 OA
ATOM     10  H   UNL     1      44.105   7.431  11.745  0.00  0.00    +0.000 HD
ATOM     11  H   UNL     1      43.756   6.714  10.223  0.00  0.00    +0.000 HD
ENDBRANCH   4   7
BRANCH   5  12
ATOM     12  C   UNL     1      46.004   4.516  13.529  0.00  0.00    +0.000 C 
ATOM     13  F   UNL     1      46.101   3.437  12.713  0.00  0.00    +0.000 F 
ATOM     14  F   UNL     1      46.360   4.062  14.765  0.00  0.00    +0.000 F 
ATOM     15  F   UNL     1      44.669   4.784  13.610  0.00  0.00    +0.000 F 
ENDBRANCH   5  12
BRANCH   1  16
ATOM     16  N   UNL     1      49.633   7.545  14.743  0.00  0.00    +0.000 N 
ATOM     17  H   UNL     1      50.345   8.183  14.397  0.00  0.00    +0.000 HD
BRANCH  16  18
ATOM     18  C   UNL     1      49.189   7.845  16.096  0.00  0.00    +0.000 C 
BRANCH  18  20
ATOM     19  C   UNL     1      51.294   7.202  17.450  0.00  0.00    +0.000 C 
ATOM     20  C   UNL     1      49.870   6.921  17.068  0.00  0.00    +0.000 C 
BRANCH  20  21
ATOM     21  C   UNL     1      49.328   5.563  17.278  0.00  0.00    +0.000 A 
ATOM     22  C   UNL     1      47.970   5.368  17.564  0.00  0.00    +0.000 A 
ATOM     23  C   UNL     1      47.458   4.085  17.786  0.00  0.00    +0.000 A 
ATOM     24  C   UNL     1      48.298   2.975  17.717  0.00  0.00    +0.000 A 
ATOM     25  C   UNL     1      49.651   3.145  17.423  0.00  0.00    +0.000 A 
ATOM     26  C   UNL     1      50.161   4.436  17.208  0.00  0.00    +0.000 A 
BRANCH  25  27
ATOM     27  C   UNL     1      50.520   2.008  17.336  0.00  0.00    +0.000 C 
ATOM     28  N   UNL     1      51.226   1.090  17.267  0.00  0.00    +0.000 NA
ENDBRANCH  25  27
ENDBRANCH  20  21
ENDBRANCH  18  20
ENDBRANCH  16  18
ENDBRANCH   1  16
TORSDOF 7
ENDMDL
MODEL 9
REMARK VINA RESULT:    -6.229      3.139      4.887
REMARK INTER + INTRA:          -9.908
REMARK INTER:                  -9.083
REMARK INTRA:                  -0.824
REMARK UNBOUND:                -1.129
REMARK  Name = 
REMARK  8 active torsions:
REMARK  status: ('A' for Active; 'I' for Inactive)
REMARK    1  A    between atoms: C_1  and  C_2
REMARK    2  A    between atoms: C_2  and  C_3
REMARK    3  A    between atoms: C_2  and  C_18
REMARK    4  A    between atoms: C_3  and  N_4
REMARK    5  A    between atoms: N_4  and  C_5
REMARK    6  A    between atoms: C_8  and  C_9
REMARK    7  A    between atoms: C_12  and  C_13
REMARK    8  A    between atoms: C_22  and  C_23
REMARK                            x       y       z     vdW  Elec       q    Type
REMARK                         _______ _______ _______ _____ _____    ______ ____
ROOT
ATOM      1  C   UNL     1      48.626   6.396  15.578  0.00  0.00    +0.000 A 
ATOM      2  C   UNL     1      49.888   6.795  16.010  0.00  0.00    +0.000 A 
ATOM      3  C   UNL     1      50.619   6.020  16.918  0.00  0.00    +0.000 A 
ATOM      4  C   UNL     1      50.127   4.797  17.409  0.00  0.00    +0.000 A 
ATOM      5  C   UNL     1      48.852   4.377  17.008  0.00  0.00    +0.000 A 
ATOM      6  C   UNL     1      48.142   5.175  16.070  0.00  0.00    +0.000 A 
ENDROOT
BRANCH   4   7
ATOM      7  C   UNL     1      51.065   4.087  18.326  0.00  0.00    +0.000 C 
ATOM      8  N   UNL     1      51.019   4.353  19.663  0.00  0.00    +0.000 N 
ATOM      9  O   UNL     1      51.819   3.220  17.901  0.00  0.00    +0.000 OA
ATOM     10  H   UNL     1      50.585   5.168  20.070  0.00  0.00    +0.000 HD
ATOM     11  H   UNL     1      51.724   3.892  20.227  0.00  0.00    +0.000 HD
ENDBRANCH   4   7
BRANCH   5  12
ATOM     12  C   UNL     1      48.125   3.166  17.523  0.00  0.00    +0.000 C 
ATOM     13  F   UNL     1      48.223   2.922  18.854  0.00  0.00    +0.000 F 
ATOM     14  F   UNL     1      46.786   3.228  17.271  0.00  0.00    +0.000 F 
ATOM     15  F   UNL     1      48.557   2.022  16.919  0.00  0.00    +0.000 F 
ENDBRANCH   5  12
BRANCH   1  16
ATOM     16  N   UNL     1      47.881   7.074  14.612  0.00  0.00    +0.000 N 
ATOM     17  H   UNL     1      48.116   8.061  14.553  0.00  0.00    +0.000 HD
BRANCH  16  18
ATOM     18  C   UNL     1      47.618   6.460  13.319  0.00  0.00    +0.000 C 
BRANCH  18  20
ATOM     19  C   UNL     1      45.946   8.420  13.120  0.00  0.00    +0.000 C 
ATOM     20  C   UNL     1      46.352   7.028  12.737  0.00  0.00    +0.000 C 
BRANCH  20  21
ATOM     21  C   UNL     1      45.331   6.110  12.191  0.00  0.00    +0.000 A 
ATOM     22  C   UNL     1      44.207   5.755  12.948  0.00  0.00    +0.000 A 
ATOM     23  C   UNL     1      43.249   4.869  12.442  0.00  0.00    +0.000 A 
ATOM     24  C   UNL     1      43.400   4.330  11.165  0.00  0.00    +0.000 A 
ATOM     25  C   UNL     1      44.506   4.680  10.390  0.00  0.00    +0.000 A 
ATOM     26  C   UNL     1      45.467   5.564  10.905  0.00  0.00    +0.000 A 
BRANCH  25  27
ATOM     27  C   UNL     1      44.662   4.142   9.070  0.00  0.00    +0.000 C 
ATOM     28  N   UNL     1      44.792   3.705   8.003  0.00  0.00    +0.000 NA
ENDBRANCH  25  27
ENDBRANCH  20  21
ENDBRANCH  18  20
ENDBRANCH  16  18
ENDBRANCH   1  16
TORSDOF 7
ENDMDL
