MODEL 1
REMARK VINA RESULT:    -7.746      0.000      0.000
REMARK INTER + INTRA:          -9.884
REMARK INTER:                  -9.331
REMARK INTRA:                  -0.553
REMARK UNBOUND:                -0.553
REMARK  Name = 
REMARK  4 active torsions:
REMARK  status: ('A' for Active; 'I' for Inactive)
REMARK    1  A    between atoms: N_1  and  C_2
REMARK    2  A    between atoms: C_2  and  C_3
REMARK    3  A    between atoms: C_6  and  C_7
REMARK    4  A    between atoms: C_7  and  N_8
REMARK                            x       y       z     vdW  Elec       q    Type
REMARK                         _______ _______ _______ _____ _____    ______ ____
ROOT
ATOM      1  C   UNL     1      46.803   2.156   7.483  0.00  0.00    +0.000 A 
ATOM      2  C   UNL     1      45.901   1.542   8.363  0.00  0.00    +0.000 A 
ATOM      3  C   UNL     1      44.931   2.294   9.033  0.00  0.00    +0.000 A 
ATOM      4  C   UNL     1      44.849   3.681   8.843  0.00  0.00    +0.000 A 
ATOM      5  C   UNL     1      45.738   4.290   7.949  0.00  0.00    +0.000 A 
ATOM      6  C   UNL     1      46.702   3.537   7.274  0.00  0.00    +0.000 A 
ENDROOT
BRANCH   1   7
ATOM      7  C   UNL     1      47.880   1.350   6.802  0.00  0.00    +0.000 C 
BRANCH   7   8
ATOM      8  N   UNL     1      48.375   2.014   5.603  0.00  0.00    +0.000 NA
ATOM      9  H   UNL     1      47.617   2.094   4.930  0.00  0.00    +0.000 HD
ATOM     10  H   UNL     1      49.082   1.419   5.170  0.00  0.00    +0.000 HD
ENDBRANCH   7   8
ENDBRANCH   1   7
BRANCH   4  11
ATOM     11  C   UNL     1      43.827   4.507   9.584  0.00  0.00    +0.000 C 
BRANCH  11  12
ATOM     12  N   UNL     1      44.057   4.525  11.026  0.00  0.00    +0.000 N 
ATOM     13  C   UNL     1      43.333   3.784  11.936  0.00  0.00    +0.000 A 
ATOM     14  C   UNL     1      43.928   3.924  13.172  0.00  0.00    +0.000 A 
ATOM     15  C   UNL     1      45.053   4.764  13.008  0.00  0.00    +0.000 A 
ATOM     16  N   UNL     1      45.959   5.154  13.937  0.00  0.00    +0.000 NA
ATOM     17  C   UNL     1      46.945   5.949  13.466  0.00  0.00    +0.000 A 
ATOM     18  C   UNL     1      47.073   6.384  12.157  0.00  0.00    +0.000 A 
ATOM     19  C   UNL     1      46.133   5.984  11.211  0.00  0.00    +0.000 A 
ATOM     20  C   UNL     1      45.112   5.145  11.666  0.00  0.00    +0.000 A 
ENDBRANCH  11  12
ENDBRANCH   4  11
TORSDOF 4
ENDMDL
MODEL 2
REMARK VINA RESULT:    -7.565      1.132      1.638
REMARK INTER + INTRA:          -9.666
REMARK INTER:                  -9.133
REMARK INTRA:                  -0.533
REMARK UNBOUND:                -0.553
REMARK  Name = 
REMARK  4 active torsions:
REMARK  status: ('A' for Active; 'I' for Inactive)
REMARK    1  A    between atoms: N_1  and  C_2
REMARK    2  A    between atoms: C_2  and  C_3
REMARK    3  A    between atoms: C_6  and  C_7
REMARK    4  A    between atoms: C_7  and  N_8
REMARK                            x       y       z     vdW  Elec       q    Type
REMARK                         _______ _______ _______ _____ _____    ______ ____
ROOT
ATOM      1  C   UNL     1      46.508   2.307   7.520  0.00  0.00    +0.000 A 
ATOM      2  C   UNL     1      45.771   1.545   8.436  0.00  0.00    +0.000 A 
ATOM      3  C   UNL     1      44.901   2.160   9.342  0.00  0.00    +0.000 A 
ATOM      4  C   UNL     1      44.756   3.555   9.356  0.00  0.00    +0.000 A 
ATOM      5  C   UNL     1      45.479   4.313   8.426  0.00  0.00    +0.000 A 
ATOM      6  C   UNL     1      46.342   3.698   7.517  0.00  0.00    +0.000 A 
ENDROOT
BRANCH   1   7
ATOM      7  C   UNL     1      47.483   1.646   6.579  0.00  0.00    +0.000 C 
BRANCH   7   8
ATOM      8  N   UNL     1      48.649   2.484   6.331  0.00  0.00    +0.000 NA
ATOM      9  H   UNL     1      48.907   2.957   7.193  0.00  0.00    +0.000 HD
ATOM     10  H   UNL     1      48.390   3.214   5.668  0.00  0.00    +0.000 HD
ENDBRANCH   7   8
ENDBRANCH   1   7
BRANCH   4  11
ATOM     11  C   UNL     1      43.845   4.231  10.349  0.00  0.00    +0.000 C 
BRANCH  11  12
ATOM     12  N   UNL     1      44.563   5.126  11.252  0.00  0.00    +0.000 N 
ATOM     13  C   UNL     1      44.339   6.484  11.338  0.00  0.00    +0.000 A 
ATOM     14  C   UNL     1      45.072   6.972  12.400  0.00  0.00    +0.000 A 
ATOM     15  C   UNL     1      45.751   5.879  12.984  0.00  0.00    +0.000 A 
ATOM     16  N   UNL     1      46.560   5.869  14.071  0.00  0.00    +0.000 NA
ATOM     17  C   UNL     1      47.048   4.655  14.402  0.00  0.00    +0.000 A 
ATOM     18  C   UNL     1      46.799   3.474  13.722  0.00  0.00    +0.000 A 
ATOM     19  C   UNL     1      45.972   3.493  12.602  0.00  0.00    +0.000 A 
ATOM     20  C   UNL     1      45.436   4.735  12.248  0.00  0.00    +0.000 A 
ENDBRANCH  11  12
ENDBRANCH   4  11
TORSDOF 4
ENDMDL
MODEL 3
REMARK VINA RESULT:    -6.154      2.026      5.697
REMARK INTER + INTRA:          -7.966
REMARK INTER:                  -7.440
REMARK INTRA:                  -0.526
REMARK UNBOUND:                -0.553
REMARK  Name = 
REMARK  4 active torsions:
REMARK  status: ('A' for Active; 'I' for Inactive)
REMARK    1  A    between atoms: N_1  and  C_2
REMARK    2  A    between atoms: C_2  and  C_3
REMARK    3  A    between atoms: C_6  and  C_7
REMARK    4  A    between atoms: C_7  and  N_8
REMARK                            x       y       z     vdW  Elec       q    Type
REMARK                         _______ _______ _______ _____ _____    ______ ____
ROOT
ATOM      1  C   UNL     1      48.284   7.260  13.079  0.00  0.00    +0.000 A 
ATOM      2  C   UNL     1      47.469   8.066  12.272  0.00  0.00    +0.000 A 
ATOM      3  C   UNL     1      46.149   7.698  11.996  0.00  0.00    +0.000 A 
ATOM      4  C   UNL     1      45.617   6.508  12.514  0.00  0.00    +0.000 A 
ATOM      5  C   UNL     1      46.427   5.714  13.336  0.00  0.00    +0.000 A 
ATOM      6  C   UNL     1      47.743   6.086  13.618  0.00  0.00    +0.000 A 
ENDROOT
BRANCH   1   7
ATOM      7  C   UNL     1      49.722   7.634  13.334  0.00  0.00    +0.000 C 
BRANCH   7   8
ATOM      8  N   UNL     1      50.220   7.054  14.575  0.00  0.00    +0.000 NA
ATOM      9  H   UNL     1      50.386   6.061  14.434  0.00  0.00    +0.000 HD
ATOM     10  H   UNL     1      49.491   7.128  15.284  0.00  0.00    +0.000 HD
ENDBRANCH   7   8
ENDBRANCH   1   7
BRANCH   4  11
ATOM     11  C   UNL     1      44.205   6.085  12.197  0.00  0.00    +0.000 C 
BRANCH  11  12
ATOM     12  N   UNL     1      44.124   4.706  11.721  0.00  0.00    +0.000 N 
ATOM     13  C   UNL     1      43.426   3.705  12.361  0.00  0.00    +0.000 A 
ATOM     14  C   UNL     1      43.434   2.590  11.550  0.00  0.00    +0.000 A 
ATOM     15  C   UNL     1      44.147   2.926  10.376  0.00  0.00    +0.000 A 
ATOM     16  N   UNL     1      44.385   2.162   9.282  0.00  0.00    +0.000 NA
ATOM     17  C   UNL     1      45.083   2.777   8.304  0.00  0.00    +0.000 A 
ATOM     18  C   UNL     1      45.566   4.074   8.352  0.00  0.00    +0.000 A 
ATOM     19  C   UNL     1      45.325   4.850   9.482  0.00  0.00    +0.000 A 
ATOM     20  C   UNL     1      44.586   4.246  10.504  0.00  0.00    +0.000 A 
ENDBRANCH  11  12
ENDBRANCH   4  11
TORSDOF 4
ENDMDL
MODEL 4
REMARK VINA RESULT:    -5.712      1.515      6.026
REMARK INTER + INTRA:          -7.434
REMARK INTER:                  -6.959
REMARK INTRA:                  -0.474
REMARK UNBOUND:                -0.553
REMARK  Name = 
REMARK  4 active torsions:
REMARK  status: ('A' for Active; 'I' for Inactive)
REMARK    1  A    between atoms: N_1  and  C_2
REMARK    2  A    between atoms: C_2  and  C_3
REMARK    3  A    between atoms: C_6  and  C_7
REMARK    4  A    between atoms: C_7  and  N_8
REMARK                            x       y       z     vdW  Elec       q    Type
REMARK                         _______ _______ _______ _____ _____    ______ ____
ROOT
ATOM      1  C   UNL     1      45.440   6.429  12.021  0.00  0.00    +0.000 A 
ATOM      2  C   UNL     1      44.235   5.715  12.073  0.00  0.00    +0.000 A 
ATOM      3  C   UNL     1      43.844   4.894  11.011  0.00  0.00    +0.000 A 
ATOM      4  C   UNL     1      44.647   4.778   9.867  0.00  0.00    +0.000 A 
ATOM      5  C   UNL     1      45.860   5.478   9.824  0.00  0.00    +0.000 A 
ATOM      6  C   UNL     1      46.253   6.292  10.889  0.00  0.00    +0.000 A 
ENDROOT
BRANCH   1   7
ATOM      7  C   UNL     1      45.834   7.353  13.145  0.00  0.00    +0.000 C 
BRANCH   7   8
ATOM      8  N   UNL     1      47.030   6.886  13.835  0.00  0.00    +0.000 NA
ATOM      9  H   UNL     1      47.250   5.945  13.519  0.00  0.00    +0.000 HD
ATOM     10  H   UNL     1      46.825   6.815  14.831  0.00  0.00    +0.000 HD
ENDBRANCH   7   8
ENDBRANCH   1   7
BRANCH   4  11
ATOM     11  C   UNL     1      44.221   3.920   8.702  0.00  0.00    +0.000 C 
BRANCH  11  12
ATOM     12  N   UNL     1      45.165   2.842   8.421  0.00  0.00    +0.000 N 
ATOM     13  C   UNL     1      45.134   1.606   9.030  0.00  0.00    +0.000 A 
ATOM     14  C   UNL     1      46.061   0.798   8.407  0.00  0.00    +0.000 A 
ATOM     15  C   UNL     1      46.666   1.560   7.381  0.00  0.00    +0.000 A 
ATOM     16  N   UNL     1      47.608   1.177   6.486  0.00  0.00    +0.000 NA
ATOM     17  C   UNL     1      47.975   2.133   5.606  0.00  0.00    +0.000 A 
ATOM     18  C   UNL     1      47.483   3.428   5.573  0.00  0.00    +0.000 A 
ATOM     19  C   UNL     1      46.521   3.816   6.500  0.00  0.00    +0.000 A 
ATOM     20  C   UNL     1      46.108   2.840   7.412  0.00  0.00    +0.000 A 
ENDBRANCH  11  12
ENDBRANCH   4  11
TORSDOF 4
ENDMDL
MODEL 5
REMARK VINA RESULT:    -5.593      1.403      6.230
REMARK INTER + INTRA:          -7.291
REMARK INTER:                  -6.877
REMARK INTRA:                  -0.414
REMARK UNBOUND:                -0.553
REMARK  Name = 
REMARK  4 active torsions:
REMARK  status: ('A' for Active; 'I' for Inactive)
REMARK    1  A    between atoms: N_1  and  C_2
REMARK    2  A    between atoms: C_2  and  C_3
REMARK    3  A    between atoms: C_6  and  C_7
REMARK    4  A    between atoms: C_7  and  N_8
REMARK                            x       y       z     vdW  Elec       q    Type
REMARK                         _______ _______ _______ _____ _____    ______ ____
ROOT
ATOM      1  C   UNL     1      46.468   4.989  13.552  0.00  0.00    +0.000 A 
ATOM      2  C   UNL     1      46.103   5.969  12.617  0.00  0.00    +0.000 A 
ATOM      3  C   UNL     1      45.423   5.621  11.446  0.00  0.00    +0.000 A 
ATOM      4  C   UNL     1      45.102   4.282  11.179  0.00  0.00    +0.000 A 
ATOM      5  C   UNL     1      45.451   3.308  12.122  0.00  0.00    +0.000 A 
ATOM      6  C   UNL     1      46.123   3.656  13.296  0.00  0.00    +0.000 A 
ENDROOT
BRANCH   1   7
ATOM      7  C   UNL     1      47.245   5.360  14.789  0.00  0.00    +0.000 C 
BRANCH   7   8
ATOM      8  N   UNL     1      47.865   6.673  14.665  0.00  0.00    +0.000 NA
ATOM      9  H   UNL     1      48.728   6.584  14.134  0.00  0.00    +0.000 HD
ATOM     10  H   UNL     1      48.131   6.996  15.595  0.00  0.00    +0.000 HD
ENDBRANCH   7   8
ENDBRANCH   1   7
BRANCH   4  11
ATOM     11  C   UNL     1      44.397   3.892   9.904  0.00  0.00    +0.000 C 
BRANCH  11  12
ATOM     12  N   UNL     1      45.313   3.748   8.776  0.00  0.00    +0.000 N 
ATOM     13  C   UNL     1      45.948   4.801   8.153  0.00  0.00    +0.000 A 
ATOM     14  C   UNL     1      46.852   4.283   7.250  0.00  0.00    +0.000 A 
ATOM     15  C   UNL     1      46.774   2.875   7.333  0.00  0.00    +0.000 A 
ATOM     16  N   UNL     1      47.497   1.946   6.661  0.00  0.00    +0.000 NA
ATOM     17  C   UNL     1      47.206   0.666   6.976  0.00  0.00    +0.000 A 
ATOM     18  C   UNL     1      46.247   0.259   7.890  0.00  0.00    +0.000 A 
ATOM     19  C   UNL     1      45.505   1.219   8.571  0.00  0.00    +0.000 A 
ATOM     20  C   UNL     1      45.798   2.554   8.279  0.00  0.00    +0.000 A 
ENDBRANCH  11  12
ENDBRANCH   4  11
TORSDOF 4
ENDMDL
MODEL 6
REMARK VINA RESULT:    -5.549      1.840      3.126
REMARK INTER + INTRA:          -7.237
REMARK INTER:                  -6.796
REMARK INTRA:                  -0.441
REMARK UNBOUND:                -0.553
REMARK  Name = 
REMARK  4 active torsions:
REMARK  status: ('A' for Active; 'I' for Inactive)
REMARK    1  A    between atoms: N_1  and  C_2
REMARK    2  A    between atoms: C_2  and  C_3
REMARK    3  A    between atoms: C_6  and  C_7
REMARK    4  A    between atoms: C_7  and  N_8
REMARK                            x       y       z     vdW  Elec       q    Type
REMARK                         _______ _______ _______ _____ _____    ______ ____
ROOT
ATOM      1  C   UNL     1      44.980   2.599   9.257  0.00  0.00    +0.000 A 
ATOM      2  C   UNL     1      45.332   3.890   8.840  0.00  0.00    +0.000 A 
ATOM      3  C   UNL     1      44.896   5.015   9.548  0.00  0.00    +0.000 A 
ATOM      4  C   UNL     1      44.089   4.871  10.686  0.00  0.00    +0.000 A 
ATOM      5  C   UNL     1      43.753   3.580  11.112  0.00  0.00    +0.000 A 
ATOM      6  C   UNL     1      44.195   2.457  10.409  0.00  0.00    +0.000 A 
ENDROOT
BRANCH   1   7
ATOM      7  C   UNL     1      45.409   1.392   8.463  0.00  0.00    +0.000 C 
BRANCH   7   8
ATOM      8  N   UNL     1      46.708   1.592   7.833  0.00  0.00    +0.000 NA
ATOM      9  H   UNL     1      46.663   1.268   6.870  0.00  0.00    +0.000 HD
ATOM     10  H   UNL     1      47.392   1.000   8.304  0.00  0.00    +0.000 HD
ENDBRANCH   7   8
ENDBRANCH   1   7
BRANCH   4  11
ATOM     11  C   UNL     1      43.586   6.077  11.439  0.00  0.00    +0.000 C 
BRANCH  11  12
ATOM     12  N   UNL     1      44.658   7.004  11.796  0.00  0.00    +0.000 N 
ATOM     13  C   UNL     1      44.641   8.353  11.517  0.00  0.00    +0.000 A 
ATOM     14  C   UNL     1      45.726   8.933  12.139  0.00  0.00    +0.000 A 
ATOM     15  C   UNL     1      46.417   7.910  12.827  0.00  0.00    +0.000 A 
ATOM     16  N   UNL     1      47.522   8.010  13.605  0.00  0.00    +0.000 NA
ATOM     17  C   UNL     1      47.938   6.847  14.150  0.00  0.00    +0.000 A 
ATOM     18  C   UNL     1      47.343   5.610  13.959  0.00  0.00    +0.000 A 
ATOM     19  C   UNL     1      46.212   5.514  13.153  0.00  0.00    +0.000 A 
ATOM     20  C   UNL     1      45.748   6.707  12.590  0.00  0.00    +0.000 A 
ENDBRANCH  11  12
ENDBRANCH   4  11
TORSDOF 4
ENDMDL
MODEL 7
REMARK VINA RESULT:    -5.272      2.886      4.733
REMARK INTER + INTRA:          -6.904
REMARK INTER:                  -6.427
REMARK INTRA:                  -0.476
REMARK UNBOUND:                -0.553
REMARK  Name = 
REMARK  4 active torsions:
REMARK  status: ('A' for Active; 'I' for Inactive)
REMARK    1  A    between atoms: N_1  and  C_2
REMARK    2  A    between atoms: C_2  and  C_3
REMARK    3  A    between atoms: C_6  and  C_7
REMARK    4  A    between atoms: C_7  and  N_8
REMARK                            x       y       z     vdW  Elec       q    Type
REMARK                         _______ _______ _______ _____ _____    ______ ____
ROOT
ATOM      1  C   UNL     1      44.899   3.390  10.341  0.00  0.00    +0.000 A 
ATOM      2  C   UNL     1      45.192   4.640   9.777  0.00  0.00    +0.000 A 
ATOM      3  C   UNL     1      45.490   5.739  10.589  0.00  0.00    +0.000 A 
ATOM      4  C   UNL     1      45.492   5.613  11.986  0.00  0.00    +0.000 A 
ATOM      5  C   UNL     1      45.218   4.359  12.547  0.00  0.00    +0.000 A 
ATOM      6  C   UNL     1      44.928   3.260  11.736  0.00  0.00    +0.000 A 
ENDROOT
BRANCH   1   7
ATOM      7  C   UNL     1      44.529   2.220   9.466  0.00  0.00    +0.000 C 
BRANCH   7   8
ATOM      8  N   UNL     1      45.694   1.653   8.799  0.00  0.00    +0.000 NA
ATOM      9  H   UNL     1      45.428   1.354   7.864  0.00  0.00    +0.000 HD
ATOM     10  H   UNL     1      45.978   0.812   9.300  0.00  0.00    +0.000 HD
ENDBRANCH   7   8
ENDBRANCH   1   7
BRANCH   4  11
ATOM     11  C   UNL     1      45.781   6.799  12.872  0.00  0.00    +0.000 C 
BRANCH  11  12
ATOM     12  N   UNL     1      47.127   7.331  12.678  0.00  0.00    +0.000 N 
ATOM     13  C   UNL     1      48.277   6.575  12.747  0.00  0.00    +0.000 A 
ATOM     14  C   UNL     1      49.335   7.366  12.353  0.00  0.00    +0.000 A 
ATOM     15  C   UNL     1      48.813   8.638  12.024  0.00  0.00    +0.000 A 
ATOM     16  N   UNL     1      49.470   9.727  11.556  0.00  0.00    +0.000 NA
ATOM     17  C   UNL     1      48.686  10.798  11.311  0.00  0.00    +0.000 A 
ATOM     18  C   UNL     1      47.316  10.858  11.515  0.00  0.00    +0.000 A 
ATOM     19  C   UNL     1      46.650   9.738  12.002  0.00  0.00    +0.000 A 
ATOM     20  C   UNL     1      47.435   8.606  12.247  0.00  0.00    +0.000 A 
ENDBRANCH  11  12
ENDBRANCH   4  11
TORSDOF 4
ENDMDL
MODEL 8
REMARK VINA RESULT:    -5.198      3.768      7.452
REMARK INTER + INTRA:          -6.815
REMARK INTER:                  -6.317
REMARK INTRA:                  -0.498
REMARK UNBOUND:                -0.553
REMARK  Name = 
REMARK  4 active torsions:
REMARK  status: ('A' for Active; 'I' for Inactive)
REMARK    1  A    between atoms: N_1  and  C_2
REMARK    2  A    between atoms: C_2  and  C_3
REMARK    3  A    between atoms: C_6  and  C_7
REMARK    4  A    between atoms: C_7  and  N_8
REMARK                            x       y       z     vdW  Elec       q    Type
REMARK                         _______ _______ _______ _____ _____    ______ ____
ROOT
ATOM      1  C   UNL     1      48.102   5.092  17.704  0.00  0.00    +0.000 A 
ATOM      2  C   UNL     1      48.697   6.157  17.013  0.00  0.00    +0.000 A 
ATOM      3  C   UNL     1      48.545   6.284  15.629  0.00  0.00    +0.000 A 
ATOM      4  C   UNL     1      47.801   5.341  14.904  0.00  0.00    +0.000 A 
ATOM      5  C   UNL     1      47.192   4.289  15.599  0.00  0.00    +0.000 A 
ATOM      6  C   UNL     1      47.338   4.166  16.983  0.00  0.00    +0.000 A 
ENDROOT
BRANCH   1   7
ATOM      7  C   UNL     1      48.310   4.929  19.189  0.00  0.00    +0.000 C 
BRANCH   7   8
ATOM      8  N   UNL     1      48.420   3.526  19.569  0.00  0.00    +0.000 NA
ATOM      9  H   UNL     1      47.670   3.002  19.126  0.00  0.00    +0.000 HD
ATOM     10  H   UNL     1      48.270   3.449  20.575  0.00  0.00    +0.000 HD
ENDBRANCH   7   8
ENDBRANCH   1   7
BRANCH   4  11
ATOM     11  C   UNL     1      47.657   5.451  13.407  0.00  0.00    +0.000 C 
BRANCH  11  12
ATOM     12  N   UNL     1      46.328   5.901  13.001  0.00  0.00    +0.000 N 
ATOM     13  C   UNL     1      45.971   7.223  12.847  0.00  0.00    +0.000 A 
ATOM     14  C   UNL     1      44.704   7.265  12.303  0.00  0.00    +0.000 A 
ATOM     15  C   UNL     1      44.283   5.930  12.108  0.00  0.00    +0.000 A 
ATOM     16  N   UNL     1      43.125   5.478  11.569  0.00  0.00    +0.000 NA
ATOM     17  C   UNL     1      43.021   4.134  11.496  0.00  0.00    +0.000 A 
ATOM     18  C   UNL     1      43.973   3.228  11.934  0.00  0.00    +0.000 A 
ATOM     19  C   UNL     1      45.157   3.700  12.493  0.00  0.00    +0.000 A 
ATOM     20  C   UNL     1      45.300   5.089  12.564  0.00  0.00    +0.000 A 
ENDBRANCH  11  12
ENDBRANCH   4  11
TORSDOF 4
ENDMDL
MODEL 9
REMARK VINA RESULT:    -5.030      3.209      5.521
REMARK INTER + INTRA:          -6.612
REMARK INTER:                  -6.156
REMARK INTRA:                  -0.456
REMARK UNBOUND:                -0.553
REMARK  Name = 
REMARK  4 active torsions:
REMARK  status: ('A' for Active; 'I' for Inactive)
REMARK    1  A    between atoms: N_1  and  C_2
REMARK    2  A    between atoms: C_2  and  C_3
REMARK    3  A    between atoms: C_6  and  C_7
REMARK    4  A    between atoms: C_7  and  N_8
REMARK                            x       y       z     vdW  Elec       q    Type
REMARK                         _______ _______ _______ _____ _____    ______ ____
ROOT
ATOM      1  C   UNL     1      44.773   3.936  11.249  0.00  0.00    +0.000 A 
ATOM      2  C   UNL     1      44.828   5.121  10.502  0.00  0.00    +0.000 A 
ATOM      3  C   UNL     1      45.372   6.286  11.050  0.00  0.00    +0.000 A 
ATOM      4  C   UNL     1      45.864   6.294  12.363  0.00  0.00    +0.000 A 
ATOM      5  C   UNL     1      45.825   5.104  13.101  0.00  0.00    +0.000 A 
ATOM      6  C   UNL     1      45.289   3.938  12.551  0.00  0.00    +0.000 A 
ENDROOT
BRANCH   1   7
ATOM      7  C   UNL     1      44.140   2.695  10.673  0.00  0.00    +0.000 C 
BRANCH   7   8
ATOM      8  N   UNL     1      43.089   2.172  11.538  0.00  0.00    +0.000 NA
ATOM      9  H   UNL     1      42.985   2.786  12.342  0.00  0.00    +0.000 HD
ATOM     10  H   UNL     1      43.389   1.268  11.903  0.00  0.00    +0.000 HD
ENDBRANCH   7   8
ENDBRANCH   1   7
BRANCH   4  11
ATOM     11  C   UNL     1      46.424   7.553  12.976  0.00  0.00    +0.000 C 
BRANCH  11  12
ATOM     12  N   UNL     1      47.876   7.647  12.842  0.00  0.00    +0.000 N 
ATOM     13  C   UNL     1      48.524   8.057  11.697  0.00  0.00    +0.000 A 
ATOM     14  C   UNL     1      49.867   8.179  11.984  0.00  0.00    +0.000 A 
ATOM     15  C   UNL     1      50.040   7.845  13.347  0.00  0.00    +0.000 A 
ATOM     16  N   UNL     1      51.179   7.854  14.082  0.00  0.00    +0.000 NA
ATOM     17  C   UNL     1      51.019   7.503  15.376  0.00  0.00    +0.000 A 
ATOM     18  C   UNL     1      49.822   7.135  15.969  0.00  0.00    +0.000 A 
ATOM     19  C   UNL     1      48.659   7.122  15.205  0.00  0.00    +0.000 A 
ATOM     20  C   UNL     1      48.791   7.499  13.866  0.00  0.00    +0.000 A 
ENDBRANCH  11  12
ENDBRANCH   4  11
TORSDOF 4
ENDMDL
