MODEL 1
REMARK VINA RESULT:    -7.494      0.000      0.000
REMARK INTER + INTRA:          -9.806
REMARK INTER:                  -9.247
REMARK INTRA:                  -0.559
REMARK UNBOUND:                -0.559
REMARK  Name = 
REMARK  6 active torsions:
REMARK  status: ('A' for Active; 'I' for Inactive)
REMARK    1  A    between atoms: C_1  and  C_2
REMARK    2  A    between atoms: C_5  and  N_6
REMARK    3  A    between atoms: N_6  and  C_7
REMARK    4  A    between atoms: C_7  and  C_8
REMARK    5  A    between atoms: C_12  and  N_13
REMARK    6  A    between atoms: C_17  and  C_18
REMARK                            x       y       z     vdW  Elec       q    Type
REMARK                         _______ _______ _______ _____ _____    ______ ____
ROOT
ATOM      1  C   UNL     1      44.978   3.921  11.848  0.00  0.00    +0.000 A 
ATOM      2  C   UNL     1      45.758   3.303  12.830  0.00  0.00    +0.000 A 
ATOM      3  C   UNL     1      46.723   4.039  13.514  0.00  0.00    +0.000 A 
ATOM      4  C   UNL     1      46.916   5.393  13.219  0.00  0.00    +0.000 A 
ATOM      5  C   UNL     1      46.152   6.057  12.251  0.00  0.00    +0.000 A 
ATOM      6  C   UNL     1      45.168   5.293  11.596  0.00  0.00    +0.000 A 
ENDROOT
BRANCH   5   7
ATOM      7  N   UNL     1      46.365   7.382  11.941  0.00  0.00    +0.000 N 
ATOM      8  C   UNL     1      45.280   8.310  11.596  0.00  0.00    +0.000 C 
ATOM      9  C   UNL     1      45.276   9.509  12.566  0.00  0.00    +0.000 C 
ATOM     10  N   UNL     1      46.578  10.202  12.665  0.00  0.00    +0.000 NA
ATOM     11  C   UNL     1      47.679   9.245  12.936  0.00  0.00    +0.000 C 
ATOM     12  C   UNL     1      47.689   8.813  14.409  0.00  0.00    +0.000 C 
ATOM     13  C   UNL     1      47.691   8.011  11.985  0.00  0.00    +0.000 C 
ATOM     14  H   UNL     1      46.531  10.887  13.416  0.00  0.00    +0.000 HD
ENDBRANCH   5   7
BRANCH   1  15
ATOM     15  C   UNL     1      43.944   3.139  11.066  0.00  0.00    +0.000 C 
BRANCH  15  16
ATOM     16  N   UNL     1      43.852   3.673   9.716  0.00  0.00    +0.000 N 
ATOM     17  H   UNL     1      42.966   3.435   9.280  0.00  0.00    +0.000 HD
BRANCH  16  22
ATOM     18  C   UNL     1      47.990   2.005   6.288  0.00  0.00    +0.000 C 
ATOM     19  C   UNL     1      46.906   2.469   7.208  0.00  0.00    +0.000 A 
ATOM     20  C   UNL     1      46.467   3.788   7.222  0.00  0.00    +0.000 A 
ATOM     21  N   UNL     1      45.473   4.238   8.037  0.00  0.00    +0.000 NA
ATOM     22  C   UNL     1      44.913   3.329   8.861  0.00  0.00    +0.000 A 
ATOM     23  C   UNL     1      45.356   2.003   8.829  0.00  0.00    +0.000 A 
ATOM     24  N   UNL     1      46.352   1.547   8.025  0.00  0.00    +0.000 NA
ENDBRANCH  16  22
ENDBRANCH  15  16
ENDBRANCH   1  15
TORSDOF 4
ENDMDL
MODEL 2
REMARK VINA RESULT:    -7.426      1.227      1.392
REMARK INTER + INTRA:          -9.722
REMARK INTER:                  -9.189
REMARK INTRA:                  -0.533
REMARK UNBOUND:                -0.559
REMARK  Name = 
REMARK  6 active torsions:
REMARK  status: ('A' for Active; 'I' for Inactive)
REMARK    1  A    between atoms: C_1  and  C_2
REMARK    2  A    between atoms: C_5  and  N_6
REMARK    3  A    between atoms: N_6  and  C_7
REMARK    4  A    between atoms: C_7  and  C_8
REMARK    5  A    between atoms: C_12  and  N_13
REMARK    6  A    between atoms: C_17  and  C_18
REMARK                            x       y       z     vdW  Elec       q    Type
REMARK                         _______ _______ _______ _____ _____    ______ ____
ROOT
ATOM      1  C   UNL     1      44.841   4.907  11.815  0.00  0.00    +0.000 A 
ATOM      2  C   UNL     1      45.275   4.078  12.854  0.00  0.00    +0.000 A 
ATOM      3  C   UNL     1      46.391   4.436  13.608  0.00  0.00    +0.000 A 
ATOM      4  C   UNL     1      47.080   5.619  13.326  0.00  0.00    +0.000 A 
ATOM      5  C   UNL     1      46.677   6.486  12.301  0.00  0.00    +0.000 A 
ATOM      6  C   UNL     1      45.532   6.110  11.575  0.00  0.00    +0.000 A 
ENDROOT
BRANCH   5   7
ATOM      7  N   UNL     1      47.376   7.636  12.006  0.00  0.00    +0.000 N 
ATOM      8  C   UNL     1      46.829   8.983  12.217  0.00  0.00    +0.000 C 
ATOM      9  C   UNL     1      47.746   9.788  13.160  0.00  0.00    +0.000 C 
ATOM     10  N   UNL     1      49.159   9.832  12.728  0.00  0.00    +0.000 NA
ATOM     11  C   UNL     1      49.678   8.471  12.443  0.00  0.00    +0.000 C 
ATOM     12  C   UNL     1      49.999   7.717  13.740  0.00  0.00    +0.000 C 
ATOM     13  C   UNL     1      48.758   7.627  11.510  0.00  0.00    +0.000 C 
ATOM     14  H   UNL     1      49.716  10.261  13.464  0.00  0.00    +0.000 HD
ENDBRANCH   5   7
BRANCH   1  15
ATOM     15  C   UNL     1      43.652   4.528  10.958  0.00  0.00    +0.000 C 
BRANCH  15  16
ATOM     16  N   UNL     1      43.934   4.848   9.568  0.00  0.00    +0.000 N 
ATOM     17  H   UNL     1      43.081   4.925   9.022  0.00  0.00    +0.000 HD
BRANCH  16  22
ATOM     18  C   UNL     1      47.343   1.156   7.038  0.00  0.00    +0.000 C 
ATOM     19  C   UNL     1      46.459   2.153   7.716  0.00  0.00    +0.000 A 
ATOM     20  C   UNL     1      46.507   3.508   7.411  0.00  0.00    +0.000 A 
ATOM     21  N   UNL     1      45.706   4.438   8.000  0.00  0.00    +0.000 NA
ATOM     22  C   UNL     1      44.837   3.983   8.926  0.00  0.00    +0.000 A 
ATOM     23  C   UNL     1      44.790   2.616   9.216  0.00  0.00    +0.000 A 
ATOM     24  N   UNL     1      45.591   1.683   8.638  0.00  0.00    +0.000 NA
ENDBRANCH  16  22
ENDBRANCH  15  16
ENDBRANCH   1  15
TORSDOF 4
ENDMDL
MODEL 3
REMARK VINA RESULT:    -7.086      1.373      2.418
REMARK INTER + INTRA:          -9.303
REMARK INTER:                  -8.649
REMARK INTRA:                  -0.654
REMARK UNBOUND:                -0.559
REMARK  Name = 
REMARK  6 active torsions:
REMARK  status: ('A' for Active; 'I' for Inactive)
REMARK    1  A    between atoms: C_1  and  C_2
REMARK    2  A    between atoms: C_5  and  N_6
REMARK    3  A    between atoms: N_6  and  C_7
REMARK    4  A    between atoms: C_7  and  C_8
REMARK    5  A    between atoms: C_12  and  N_13
REMARK    6  A    between atoms: C_17  and  C_18
REMARK                            x       y       z     vdW  Elec       q    Type
REMARK                         _______ _______ _______ _____ _____    ______ ____
ROOT
ATOM      1  C   UNL     1      44.852   4.598  11.494  0.00  0.00    +0.000 A 
ATOM      2  C   UNL     1      43.758   5.391  11.133  0.00  0.00    +0.000 A 
ATOM      3  C   UNL     1      43.792   6.765  11.361  0.00  0.00    +0.000 A 
ATOM      4  C   UNL     1      44.914   7.353  11.954  0.00  0.00    +0.000 A 
ATOM      5  C   UNL     1      46.037   6.600  12.323  0.00  0.00    +0.000 A 
ATOM      6  C   UNL     1      45.983   5.220  12.056  0.00  0.00    +0.000 A 
ENDROOT
BRANCH   5   7
ATOM      7  N   UNL     1      47.128   7.178  12.934  0.00  0.00    +0.000 N 
ATOM      8  C   UNL     1      48.484   6.619  12.850  0.00  0.00    +0.000 C 
ATOM      9  C   UNL     1      49.452   7.658  12.248  0.00  0.00    +0.000 C 
ATOM     10  N   UNL     1      49.439   8.961  12.946  0.00  0.00    +0.000 NA
ATOM     11  C   UNL     1      48.057   9.480  13.095  0.00  0.00    +0.000 C 
ATOM     12  C   UNL     1      47.542  10.073  11.776  0.00  0.00    +0.000 C 
ATOM     13  C   UNL     1      47.053   8.441  13.679  0.00  0.00    +0.000 C 
ATOM     14  H   UNL     1      49.996   9.626  12.412  0.00  0.00    +0.000 HD
ENDBRANCH   5   7
BRANCH   1  15
ATOM     15  C   UNL     1      44.831   3.099  11.288  0.00  0.00    +0.000 C 
BRANCH  15  16
ATOM     16  N   UNL     1      44.192   2.792  10.017  0.00  0.00    +0.000 N 
ATOM     17  H   UNL     1      43.575   1.989  10.094  0.00  0.00    +0.000 HD
BRANCH  16  22
ATOM     18  C   UNL     1      47.748   2.413   5.674  0.00  0.00    +0.000 C 
ATOM     19  C   UNL     1      46.792   2.489   6.821  0.00  0.00    +0.000 A 
ATOM     20  C   UNL     1      46.618   1.433   7.708  0.00  0.00    +0.000 A 
ATOM     21  N   UNL     1      45.766   1.477   8.769  0.00  0.00    +0.000 NA
ATOM     22  C   UNL     1      45.069   2.620   8.933  0.00  0.00    +0.000 A 
ATOM     23  C   UNL     1      45.260   3.680   8.041  0.00  0.00    +0.000 A 
ATOM     24  N   UNL     1      46.103   3.641   6.975  0.00  0.00    +0.000 NA
ENDBRANCH  16  22
ENDBRANCH  15  16
ENDBRANCH   1  15
TORSDOF 4
ENDMDL
MODEL 4
REMARK VINA RESULT:    -7.078      3.772      7.123
REMARK INTER + INTRA:          -9.292
REMARK INTER:                  -8.636
REMARK INTRA:                  -0.656
REMARK UNBOUND:                -0.559
REMARK  Name = 
REMARK  6 active torsions:
REMARK  status: ('A' for Active; 'I' for Inactive)
REMARK    1  A    between atoms: C_1  and  C_2
REMARK    2  A    between atoms: C_5  and  N_6
REMARK    3  A    between atoms: N_6  and  C_7
REMARK    4  A    between atoms: C_7  and  C_8
REMARK    5  A    between atoms: C_12  and  N_13
REMARK    6  A    between atoms: C_17  and  C_18
REMARK                            x       y       z     vdW  Elec       q    Type
REMARK                         _______ _______ _______ _____ _____    ______ ____
ROOT
ATOM      1  C   UNL     1      47.802   6.438  14.181  0.00  0.00    +0.000 A 
ATOM      2  C   UNL     1      48.279   7.480  13.380  0.00  0.00    +0.000 A 
ATOM      3  C   UNL     1      47.852   7.591  12.058  0.00  0.00    +0.000 A 
ATOM      4  C   UNL     1      46.951   6.661  11.529  0.00  0.00    +0.000 A 
ATOM      5  C   UNL     1      46.439   5.606  12.296  0.00  0.00    +0.000 A 
ATOM      6  C   UNL     1      46.868   5.537  13.634  0.00  0.00    +0.000 A 
ENDROOT
BRANCH   5   7
ATOM      7  N   UNL     1      45.575   4.674  11.763  0.00  0.00    +0.000 N 
ATOM      8  C   UNL     1      45.245   3.411  12.435  0.00  0.00    +0.000 C 
ATOM      9  C   UNL     1      43.722   3.310  12.660  0.00  0.00    +0.000 C 
ATOM     10  N   UNL     1      42.923   3.503  11.432  0.00  0.00    +0.000 NA
ATOM     11  C   UNL     1      43.318   4.743  10.720  0.00  0.00    +0.000 C 
ATOM     12  C   UNL     1      42.739   5.987  11.407  0.00  0.00    +0.000 C 
ATOM     13  C   UNL     1      44.855   4.881  10.500  0.00  0.00    +0.000 C 
ATOM     14  H   UNL     1      41.937   3.556  11.685  0.00  0.00    +0.000 HD
ENDBRANCH   5   7
BRANCH   1  15
ATOM     15  C   UNL     1      48.272   6.273  15.610  0.00  0.00    +0.000 C 
BRANCH  15  16
ATOM     16  N   UNL     1      47.746   5.031  16.154  0.00  0.00    +0.000 N 
ATOM     17  H   UNL     1      47.101   5.203  16.919  0.00  0.00    +0.000 HD
BRANCH  16  22
ATOM     18  C   UNL     1      51.552   1.102  17.469  0.00  0.00    +0.000 C 
ATOM     19  C   UNL     1      50.539   2.154  17.146  0.00  0.00    +0.000 A 
ATOM     20  C   UNL     1      50.690   3.473  17.558  0.00  0.00    +0.000 A 
ATOM     21  N   UNL     1      49.794   4.456  17.268  0.00  0.00    +0.000 NA
ATOM     22  C   UNL     1      48.714   4.091  16.546  0.00  0.00    +0.000 A 
ATOM     23  C   UNL     1      48.579   2.764  16.128  0.00  0.00    +0.000 A 
ATOM     24  N   UNL     1      49.466   1.776  16.419  0.00  0.00    +0.000 NA
ENDBRANCH  16  22
ENDBRANCH  15  16
ENDBRANCH   1  15
TORSDOF 4
ENDMDL
MODEL 5
REMARK VINA RESULT:    -6.953      3.207      4.506
REMARK INTER + INTRA:          -9.139
REMARK INTER:                  -8.598
REMARK INTRA:                  -0.541
REMARK UNBOUND:                -0.559
REMARK  Name = 
REMARK  6 active torsions:
REMARK  status: ('A' for Active; 'I' for Inactive)
REMARK    1  A    between atoms: C_1  and  C_2
REMARK    2  A    between atoms: C_5  and  N_6
REMARK    3  A    between atoms: N_6  and  C_7
REMARK    4  A    between atoms: C_7  and  C_8
REMARK    5  A    between atoms: C_12  and  N_13
REMARK    6  A    between atoms: C_17  and  C_18
REMARK                            x       y       z     vdW  Elec       q    Type
REMARK                         _______ _______ _______ _____ _____    ______ ____
ROOT
ATOM      1  C   UNL     1      46.043   4.473  13.006  0.00  0.00    +0.000 A 
ATOM      2  C   UNL     1      46.521   5.692  12.517  0.00  0.00    +0.000 A 
ATOM      3  C   UNL     1      47.407   6.448  13.281  0.00  0.00    +0.000 A 
ATOM      4  C   UNL     1      47.817   5.993  14.538  0.00  0.00    +0.000 A 
ATOM      5  C   UNL     1      47.372   4.774  15.067  0.00  0.00    +0.000 A 
ATOM      6  C   UNL     1      46.499   4.022  14.260  0.00  0.00    +0.000 A 
ENDROOT
BRANCH   5   7
ATOM      7  N   UNL     1      47.754   4.343  16.319  0.00  0.00    +0.000 N 
ATOM      8  C   UNL     1      47.945   2.926  16.655  0.00  0.00    +0.000 C 
ATOM      9  C   UNL     1      49.381   2.689  17.166  0.00  0.00    +0.000 C 
ATOM     10  N   UNL     1      49.772   3.575  18.282  0.00  0.00    +0.000 NA
ATOM     11  C   UNL     1      49.502   4.999  17.961  0.00  0.00    +0.000 C 
ATOM     12  C   UNL     1      50.567   5.565  17.013  0.00  0.00    +0.000 C 
ATOM     13  C   UNL     1      48.064   5.262  17.421  0.00  0.00    +0.000 C 
ATOM     14  H   UNL     1      50.765   3.452  18.469  0.00  0.00    +0.000 HD
ENDBRANCH   5   7
BRANCH   1  15
ATOM     15  C   UNL     1      45.054   3.647  12.213  0.00  0.00    +0.000 C 
BRANCH  15  16
ATOM     16  N   UNL     1      44.656   4.379  11.020  0.00  0.00    +0.000 N 
ATOM     17  H   UNL     1      43.647   4.488  10.968  0.00  0.00    +0.000 HD
BRANCH  16  22
ATOM     18  C   UNL     1      46.795   2.557   6.146  0.00  0.00    +0.000 C 
ATOM     19  C   UNL     1      46.204   3.025   7.437  0.00  0.00    +0.000 A 
ATOM     20  C   UNL     1      45.726   2.137   8.394  0.00  0.00    +0.000 A 
ATOM     21  N   UNL     1      45.196   2.532   9.584  0.00  0.00    +0.000 NA
ATOM     22  C   UNL     1      45.145   3.861   9.809  0.00  0.00    +0.000 A 
ATOM     23  C   UNL     1      45.639   4.744   8.844  0.00  0.00    +0.000 A 
ATOM     24  N   UNL     1      46.162   4.359   7.650  0.00  0.00    +0.000 NA
ENDBRANCH  16  22
ENDBRANCH  15  16
ENDBRANCH   1  15
TORSDOF 4
ENDMDL
MODEL 6
REMARK VINA RESULT:    -6.641      1.700      2.930
REMARK INTER + INTRA:          -8.754
REMARK INTER:                  -8.142
REMARK INTRA:                  -0.612
REMARK UNBOUND:                -0.559
REMARK  Name = 
REMARK  6 active torsions:
REMARK  status: ('A' for Active; 'I' for Inactive)
REMARK    1  A    between atoms: C_1  and  C_2
REMARK    2  A    between atoms: C_5  and  N_6
REMARK    3  A    between atoms: N_6  and  C_7
REMARK    4  A    between atoms: C_7  and  C_8
REMARK    5  A    between atoms: C_12  and  N_13
REMARK    6  A    between atoms: C_17  and  C_18
REMARK                            x       y       z     vdW  Elec       q    Type
REMARK                         _______ _______ _______ _____ _____    ______ ____
ROOT
ATOM      1  C   UNL     1      45.295   6.592  11.683  0.00  0.00    +0.000 A 
ATOM      2  C   UNL     1      44.453   7.671  11.401  0.00  0.00    +0.000 A 
ATOM      3  C   UNL     1      44.892   8.973  11.630  0.00  0.00    +0.000 A 
ATOM      4  C   UNL     1      46.172   9.203  12.143  0.00  0.00    +0.000 A 
ATOM      5  C   UNL     1      47.055   8.154  12.432  0.00  0.00    +0.000 A 
ATOM      6  C   UNL     1      46.592   6.853  12.166  0.00  0.00    +0.000 A 
ENDROOT
BRANCH   5   7
ATOM      7  N   UNL     1      48.304   8.384  12.967  0.00  0.00    +0.000 N 
ATOM      8  C   UNL     1      48.734   9.697  13.466  0.00  0.00    +0.000 C 
ATOM      9  C   UNL     1      49.151   9.593  14.947  0.00  0.00    +0.000 C 
ATOM     10  N   UNL     1      50.162   8.549  15.211  0.00  0.00    +0.000 NA
ATOM     11  C   UNL     1      49.754   7.244  14.635  0.00  0.00    +0.000 C 
ATOM     12  C   UNL     1      48.687   6.563  15.503  0.00  0.00    +0.000 C 
ATOM     13  C   UNL     1      49.305   7.325  13.145  0.00  0.00    +0.000 C 
ATOM     14  H   UNL     1      50.283   8.452  16.218  0.00  0.00    +0.000 HD
ENDBRANCH   5   7
BRANCH   1  15
ATOM     15  C   UNL     1      44.833   5.165  11.476  0.00  0.00    +0.000 C 
BRANCH  15  16
ATOM     16  N   UNL     1      44.313   5.014  10.126  0.00  0.00    +0.000 N 
ATOM     17  H   UNL     1      43.345   4.705  10.131  0.00  0.00    +0.000 HD
BRANCH  16  22
ATOM     18  C   UNL     1      47.150   1.492   6.780  0.00  0.00    +0.000 C 
ATOM     19  C   UNL     1      46.419   2.442   7.674  0.00  0.00    +0.000 A 
ATOM     20  C   UNL     1      46.500   3.820   7.508  0.00  0.00    +0.000 A 
ATOM     21  N   UNL     1      45.837   4.710   8.296  0.00  0.00    +0.000 NA
ATOM     22  C   UNL     1      45.074   4.191   9.280  0.00  0.00    +0.000 A 
ATOM     23  C   UNL     1      44.992   2.803   9.429  0.00  0.00    +0.000 A 
ATOM     24  N   UNL     1      45.657   1.908   8.653  0.00  0.00    +0.000 NA
ENDBRANCH  16  22
ENDBRANCH  15  16
ENDBRANCH   1  15
TORSDOF 4
ENDMDL
MODEL 7
REMARK VINA RESULT:    -6.295      2.915      7.233
REMARK INTER + INTRA:          -8.326
REMARK INTER:                  -7.702
REMARK INTRA:                  -0.624
REMARK UNBOUND:                -0.559
REMARK  Name = 
REMARK  6 active torsions:
REMARK  status: ('A' for Active; 'I' for Inactive)
REMARK    1  A    between atoms: C_1  and  C_2
REMARK    2  A    between atoms: C_5  and  N_6
REMARK    3  A    between atoms: N_6  and  C_7
REMARK    4  A    between atoms: C_7  and  C_8
REMARK    5  A    between atoms: C_12  and  N_13
REMARK    6  A    between atoms: C_17  and  C_18
REMARK                            x       y       z     vdW  Elec       q    Type
REMARK                         _______ _______ _______ _____ _____    ______ ____
ROOT
ATOM      1  C   UNL     1      47.379   7.338  12.680  0.00  0.00    +0.000 A 
ATOM      2  C   UNL     1      46.876   8.641  12.733  0.00  0.00    +0.000 A 
ATOM      3  C   UNL     1      45.639   8.932  12.162  0.00  0.00    +0.000 A 
ATOM      4  C   UNL     1      44.901   7.925  11.532  0.00  0.00    +0.000 A 
ATOM      5  C   UNL     1      45.360   6.603  11.461  0.00  0.00    +0.000 A 
ATOM      6  C   UNL     1      46.600   6.336  12.070  0.00  0.00    +0.000 A 
ENDROOT
BRANCH   5   7
ATOM      7  N   UNL     1      44.644   5.620  10.813  0.00  0.00    +0.000 N 
ATOM      8  C   UNL     1      45.239   4.721   9.816  0.00  0.00    +0.000 C 
ATOM      9  C   UNL     1      45.061   3.251  10.251  0.00  0.00    +0.000 C 
ATOM     10  N   UNL     1      43.663   2.884  10.556  0.00  0.00    +0.000 NA
ATOM     11  C   UNL     1      43.046   3.844  11.504  0.00  0.00    +0.000 C 
ATOM     12  C   UNL     1      43.525   3.591  12.940  0.00  0.00    +0.000 C 
ATOM     13  C   UNL     1      43.232   5.337  11.100  0.00  0.00    +0.000 C 
ATOM     14  H   UNL     1      43.648   1.949  10.961  0.00  0.00    +0.000 HD
ENDBRANCH   5   7
BRANCH   1  15
ATOM     15  C   UNL     1      48.734   6.999  13.263  0.00  0.00    +0.000 C 
BRANCH  15  16
ATOM     16  N   UNL     1      48.763   7.367  14.670  0.00  0.00    +0.000 N 
ATOM     17  H   UNL     1      49.573   7.938  14.890  0.00  0.00    +0.000 HD
BRANCH  16  22
ATOM     18  C   UNL     1      48.463   3.266  18.510  0.00  0.00    +0.000 C 
ATOM     19  C   UNL     1      48.548   4.337  17.470  0.00  0.00    +0.000 A 
ATOM     20  C   UNL     1      47.869   4.246  16.260  0.00  0.00    +0.000 A 
ATOM     21  N   UNL     1      47.916   5.211  15.300  0.00  0.00    +0.000 NA
ATOM     22  C   UNL     1      48.675   6.293  15.571  0.00  0.00    +0.000 A 
ATOM     23  C   UNL     1      49.344   6.377  16.796  0.00  0.00    +0.000 A 
ATOM     24  N   UNL     1      49.309   5.416  17.756  0.00  0.00    +0.000 NA
ENDBRANCH  16  22
ENDBRANCH  15  16
ENDBRANCH   1  15
TORSDOF 4
ENDMDL
MODEL 8
REMARK VINA RESULT:    -6.276      4.020      7.748
REMARK INTER + INTRA:          -8.303
REMARK INTER:                  -7.737
REMARK INTRA:                  -0.566
REMARK UNBOUND:                -0.559
REMARK  Name = 
REMARK  6 active torsions:
REMARK  status: ('A' for Active; 'I' for Inactive)
REMARK    1  A    between atoms: C_1  and  C_2
REMARK    2  A    between atoms: C_5  and  N_6
REMARK    3  A    between atoms: N_6  and  C_7
REMARK    4  A    between atoms: C_7  and  C_8
REMARK    5  A    between atoms: C_12  and  N_13
REMARK    6  A    between atoms: C_17  and  C_18
REMARK                            x       y       z     vdW  Elec       q    Type
REMARK                         _______ _______ _______ _____ _____    ______ ____
ROOT
ATOM      1  C   UNL     1      47.302   5.124  14.236  0.00  0.00    +0.000 A 
ATOM      2  C   UNL     1      48.161   6.221  14.343  0.00  0.00    +0.000 A 
ATOM      3  C   UNL     1      48.113   7.236  13.390  0.00  0.00    +0.000 A 
ATOM      4  C   UNL     1      47.210   7.159  12.325  0.00  0.00    +0.000 A 
ATOM      5  C   UNL     1      46.323   6.084  12.181  0.00  0.00    +0.000 A 
ATOM      6  C   UNL     1      46.379   5.088  13.173  0.00  0.00    +0.000 A 
ENDROOT
BRANCH   5   7
ATOM      7  N   UNL     1      45.456   5.996  11.114  0.00  0.00    +0.000 N 
ATOM      8  C   UNL     1      45.895   5.676   9.749  0.00  0.00    +0.000 C 
ATOM      9  C   UNL     1      45.165   4.417   9.237  0.00  0.00    +0.000 C 
ATOM     10  N   UNL     1      43.693   4.499   9.335  0.00  0.00    +0.000 NA
ATOM     11  C   UNL     1      43.264   4.899  10.697  0.00  0.00    +0.000 C 
ATOM     12  C   UNL     1      43.358   3.722  11.678  0.00  0.00    +0.000 C 
ATOM     13  C   UNL     1      44.003   6.156  11.248  0.00  0.00    +0.000 C 
ATOM     14  H   UNL     1      43.296   3.589   9.107  0.00  0.00    +0.000 HD
ENDBRANCH   5   7
BRANCH   1  15
ATOM     15  C   UNL     1      47.354   3.989  15.237  0.00  0.00    +0.000 C 
BRANCH  15  16
ATOM     16  N   UNL     1      46.636   4.373  16.443  0.00  0.00    +0.000 N 
ATOM     17  H   UNL     1      46.057   5.193  16.287  0.00  0.00    +0.000 HD
BRANCH  16  22
ATOM     18  C   UNL     1      50.091   5.070  20.828  0.00  0.00    +0.000 C 
ATOM     19  C   UNL     1      49.152   4.879  19.680  0.00  0.00    +0.000 A 
ATOM     20  C   UNL     1      47.925   5.529  19.616  0.00  0.00    +0.000 A 
ATOM     21  N   UNL     1      47.055   5.387  18.578  0.00  0.00    +0.000 NA
ATOM     22  C   UNL     1      47.437   4.562  17.582  0.00  0.00    +0.000 A 
ATOM     23  C   UNL     1      48.678   3.923  17.652  0.00  0.00    +0.000 A 
ATOM     24  N   UNL     1      49.549   4.053  18.688  0.00  0.00    +0.000 NA
ENDBRANCH  16  22
ENDBRANCH  15  16
ENDBRANCH   1  15
TORSDOF 4
ENDMDL
MODEL 9
REMARK VINA RESULT:    -6.136      2.818      7.588
REMARK INTER + INTRA:          -8.130
REMARK INTER:                  -7.406
REMARK INTRA:                  -0.724
REMARK UNBOUND:                -0.559
REMARK  Name = 
REMARK  6 active torsions:
REMARK  status: ('A' for Active; 'I' for Inactive)
REMARK    1  A    between atoms: C_1  and  C_2
REMARK    2  A    between atoms: C_5  and  N_6
REMARK    3  A    between atoms: N_6  and  C_7
REMARK    4  A    between atoms: C_7  and  C_8
REMARK    5  A    between atoms: C_12  and  N_13
REMARK    6  A    between atoms: C_17  and  C_18
REMARK                            x       y       z     vdW  Elec       q    Type
REMARK                         _______ _______ _______ _____ _____    ______ ____
ROOT
ATOM      1  C   UNL     1      47.922   7.354  12.649  0.00  0.00    +0.000 A 
ATOM      2  C   UNL     1      47.398   8.616  12.356  0.00  0.00    +0.000 A 
ATOM      3  C   UNL     1      46.028   8.770  12.154  0.00  0.00    +0.000 A 
ATOM      4  C   UNL     1      45.177   7.664  12.240  0.00  0.00    +0.000 A 
ATOM      5  C   UNL     1      45.655   6.381  12.540  0.00  0.00    +0.000 A 
ATOM      6  C   UNL     1      47.039   6.264  12.764  0.00  0.00    +0.000 A 
ENDROOT
BRANCH   5   7
ATOM      7  N   UNL     1      44.817   5.289  12.593  0.00  0.00    +0.000 N 
ATOM      8  C   UNL     1      43.381   5.393  12.886  0.00  0.00    +0.000 C 
ATOM      9  C   UNL     1      42.557   4.789  11.730  0.00  0.00    +0.000 C 
ATOM     10  N   UNL     1      42.945   3.407  11.378  0.00  0.00    +0.000 NA
ATOM     11  C   UNL     1      44.409   3.297  11.160  0.00  0.00    +0.000 C 
ATOM     12  C   UNL     1      44.811   3.861   9.790  0.00  0.00    +0.000 C 
ATOM     13  C   UNL     1      45.266   3.921  12.303  0.00  0.00    +0.000 C 
ATOM     14  H   UNL     1      42.454   3.133  10.529  0.00  0.00    +0.000 HD
ENDBRANCH   5   7
BRANCH   1  15
ATOM     15  C   UNL     1      49.410   7.151  12.841  0.00  0.00    +0.000 C 
BRANCH  15  16
ATOM     16  N   UNL     1      49.869   7.955  13.963  0.00  0.00    +0.000 N 
ATOM     17  H   UNL     1      50.875   8.092  13.938  0.00  0.00    +0.000 HD
BRANCH  16  22
ATOM     18  C   UNL     1      48.111   6.334  19.056  0.00  0.00    +0.000 C 
ATOM     19  C   UNL     1      48.602   6.751  17.706  0.00  0.00    +0.000 A 
ATOM     20  C   UNL     1      49.110   5.836  16.791  0.00  0.00    +0.000 A 
ATOM     21  N   UNL     1      49.551   6.183  15.551  0.00  0.00    +0.000 NA
ATOM     22  C   UNL     1      49.480   7.491  15.231  0.00  0.00    +0.000 A 
ATOM     23  C   UNL     1      48.956   8.400  16.155  0.00  0.00    +0.000 A 
ATOM     24  N   UNL     1      48.521   8.064  17.398  0.00  0.00    +0.000 NA
ENDBRANCH  16  22
ENDBRANCH  15  16
ENDBRANCH   1  15
TORSDOF 4
ENDMDL
