MODEL 1
REMARK VINA RESULT:    -7.891      0.000      0.000
REMARK INTER + INTRA:         -10.522
REMARK INTER:                  -9.967
REMARK INTRA:                  -0.555
REMARK UNBOUND:                -0.555
REMARK  Name = 
REMARK  5 active torsions:
REMARK  status: ('A' for Active; 'I' for Inactive)
REMARK    1  A    between atoms: N_1  and  C_2
REMARK    2  A    between atoms: C_2  and  C_3
REMARK    3  A    between atoms: C_7  and  C_8
REMARK    4  A    between atoms: C_8  and  N_9
REMARK    5  A    between atoms: C_14  and  C_15
REMARK                            x       y       z     vdW  Elec       q    Type
REMARK                         _______ _______ _______ _____ _____    ______ ____
ROOT
ATOM      1  N   UNL     1      44.013   4.462  10.472  0.00  0.00    +0.000 N 
ATOM      2  C   UNL     1      43.456   3.402  11.148  0.00  0.00    +0.000 A 
ATOM      3  C   UNL     1      43.981   2.242  10.635  0.00  0.00    +0.000 A 
ATOM      4  C   UNL     1      44.878   2.601   9.593  0.00  0.00    +0.000 A 
ATOM      5  C   UNL     1      45.693   1.846   8.726  0.00  0.00    +0.000 A 
ATOM      6  C   UNL     1      46.467   2.495   7.754  0.00  0.00    +0.000 A 
ATOM      7  C   UNL     1      46.436   3.893   7.669  0.00  0.00    +0.000 A 
ATOM      8  C   UNL     1      45.647   4.667   8.535  0.00  0.00    +0.000 A 
ATOM      9  C   UNL     1      44.872   3.997   9.493  0.00  0.00    +0.000 A 
ENDROOT
BRANCH   6  10
ATOM     10  C   UNL     1      47.327   1.752   6.785  0.00  0.00    +0.000 C 
ATOM     11  N   UNL     1      48.353   2.415   6.171  0.00  0.00    +0.000 N 
ATOM     12  O   UNL     1      47.136   0.565   6.538  0.00  0.00    +0.000 OA
ATOM     13  H   UNL     1      48.603   3.378   6.322  0.00  0.00    +0.000 HD
ATOM     14  H   UNL     1      48.928   1.874   5.537  0.00  0.00    +0.000 HD
ENDBRANCH   6  10
BRANCH   1  15
ATOM     15  C   UNL     1      43.768   5.855  10.825  0.00  0.00    +0.000 C 
BRANCH  15  20
ATOM     16  C   UNL     1      47.004   6.671  12.869  0.00  0.00    +0.000 C 
ATOM     17  C   UNL     1      46.685   8.138  13.200  0.00  0.00    +0.000 C 
ATOM     18  C   UNL     1      45.967   8.838  12.053  0.00  0.00    +0.000 C 
ATOM     19  C   UNL     1      44.702   8.089  11.651  0.00  0.00    +0.000 C 
ATOM     20  C   UNL     1      45.023   6.642  11.243  0.00  0.00    +0.000 C 
ATOM     21  C   UNL     1      45.736   5.923  12.408  0.00  0.00    +0.000 C 
BRANCH  16  22
ATOM     22  C   UNL     1      47.671   6.010  14.090  0.00  0.00    +0.000 C 
BRANCH  22  23
ATOM     23  N   UNL     1      46.777   5.086  14.777  0.00  0.00    +0.000 NA
ATOM     24  H   UNL     1      46.288   5.581  15.521  0.00  0.00    +0.000 HD
ATOM     25  H   UNL     1      47.325   4.357  15.235  0.00  0.00    +0.000 HD
ENDBRANCH  22  23
ENDBRANCH  16  22
ENDBRANCH  15  20
ENDBRANCH   1  15
TORSDOF 5
ENDMDL
MODEL 2
REMARK VINA RESULT:    -7.778      1.487      2.083
REMARK INTER + INTRA:         -10.380
REMARK INTER:                  -9.999
REMARK INTRA:                  -0.381
REMARK UNBOUND:                -0.555
REMARK  Name = 
REMARK  5 active torsions:
REMARK  status: ('A' for Active; 'I' for Inactive)
REMARK    1  A    between atoms: N_1  and  C_2
REMARK    2  A    between atoms: C_2  and  C_3
REMARK    3  A    between atoms: C_7  and  C_8
REMARK    4  A    between atoms: C_8  and  N_9
REMARK    5  A    between atoms: C_14  and  C_15
REMARK                            x       y       z     vdW  Elec       q    Type
REMARK                         _______ _______ _______ _____ _____    ______ ____
ROOT
ATOM      1  N   UNL     1      43.913   4.395  10.487  0.00  0.00    +0.000 N 
ATOM      2  C   UNL     1      43.375   3.325  11.163  0.00  0.00    +0.000 A 
ATOM      3  C   UNL     1      43.932   2.176  10.658  0.00  0.00    +0.000 A 
ATOM      4  C   UNL     1      44.828   2.552   9.623  0.00  0.00    +0.000 A 
ATOM      5  C   UNL     1      45.668   1.813   8.764  0.00  0.00    +0.000 A 
ATOM      6  C   UNL     1      46.435   2.476   7.797  0.00  0.00    +0.000 A 
ATOM      7  C   UNL     1      46.371   3.873   7.706  0.00  0.00    +0.000 A 
ATOM      8  C   UNL     1      45.557   4.631   8.562  0.00  0.00    +0.000 A 
ATOM      9  C   UNL     1      44.791   3.947   9.517  0.00  0.00    +0.000 A 
ENDROOT
BRANCH   6  10
ATOM     10  C   UNL     1      47.319   1.750   6.837  0.00  0.00    +0.000 C 
ATOM     11  N   UNL     1      48.357   2.425   6.256  0.00  0.00    +0.000 N 
ATOM     12  O   UNL     1      47.139   0.566   6.569  0.00  0.00    +0.000 OA
ATOM     13  H   UNL     1      48.599   3.387   6.427  0.00  0.00    +0.000 HD
ATOM     14  H   UNL     1      48.947   1.895   5.628  0.00  0.00    +0.000 HD
ENDBRANCH   6  10
BRANCH   1  15
ATOM     15  C   UNL     1      43.632   5.784  10.833  0.00  0.00    +0.000 C 
BRANCH  15  20
ATOM     16  C   UNL     1      45.788   8.483  12.672  0.00  0.00    +0.000 C 
ATOM     17  C   UNL     1      47.053   7.638  12.886  0.00  0.00    +0.000 C 
ATOM     18  C   UNL     1      46.724   6.181  13.184  0.00  0.00    +0.000 C 
ATOM     19  C   UNL     1      45.849   5.576  12.092  0.00  0.00    +0.000 C 
ATOM     20  C   UNL     1      44.544   6.370  11.926  0.00  0.00    +0.000 C 
ATOM     21  C   UNL     1      44.873   7.844  11.607  0.00  0.00    +0.000 C 
BRANCH  16  22
ATOM     22  C   UNL     1      46.196   9.925  12.316  0.00  0.00    +0.000 C 
BRANCH  22  23
ATOM     23  N   UNL     1      45.045  10.812  12.193  0.00  0.00    +0.000 NA
ATOM     24  H   UNL     1      45.344  11.694  11.781  0.00  0.00    +0.000 HD
ATOM     25  H   UNL     1      44.689  11.039  13.123  0.00  0.00    +0.000 HD
ENDBRANCH  22  23
ENDBRANCH  16  22
ENDBRANCH  15  20
ENDBRANCH   1  15
TORSDOF 5
ENDMDL
MODEL 3
REMARK VINA RESULT:    -7.324      2.719      6.487
REMARK INTER + INTRA:          -9.805
REMARK INTER:                  -9.488
REMARK INTRA:                  -0.318
REMARK UNBOUND:                -0.555
REMARK  Name = 
REMARK  5 active torsions:
REMARK  status: ('A' for Active; 'I' for Inactive)
REMARK    1  A    between atoms: N_1  and  C_2
REMARK    2  A    between atoms: C_2  and  C_3
REMARK    3  A    between atoms: C_7  and  C_8
REMARK    4  A    between atoms: C_8  and  N_9
REMARK    5  A    between atoms: C_14  and  C_15
REMARK                            x       y       z     vdW  Elec       q    Type
REMARK                         _______ _______ _______ _____ _____    ______ ____
ROOT
ATOM      1  N   UNL     1      44.115   4.158  11.057  0.00  0.00    +0.000 N 
ATOM      2  C   UNL     1      43.471   5.366  10.923  0.00  0.00    +0.000 A 
ATOM      3  C   UNL     1      44.028   6.249  11.816  0.00  0.00    +0.000 A 
ATOM      4  C   UNL     1      45.036   5.554  12.536  0.00  0.00    +0.000 A 
ATOM      5  C   UNL     1      45.924   5.942  13.559  0.00  0.00    +0.000 A 
ATOM      6  C   UNL     1      46.808   5.002  14.109  0.00  0.00    +0.000 A 
ATOM      7  C   UNL     1      46.809   3.690  13.621  0.00  0.00    +0.000 A 
ATOM      8  C   UNL     1      45.947   3.285  12.589  0.00  0.00    +0.000 A 
ATOM      9  C   UNL     1      45.064   4.239  12.059  0.00  0.00    +0.000 A 
ENDROOT
BRANCH   6  10
ATOM     10  C   UNL     1      47.751   5.341  15.216  0.00  0.00    +0.000 C 
ATOM     11  N   UNL     1      47.478   4.888  16.477  0.00  0.00    +0.000 N 
ATOM     12  O   UNL     1      48.764   6.004  15.015  0.00  0.00    +0.000 OA
ATOM     13  H   UNL     1      46.688   4.321  16.738  0.00  0.00    +0.000 HD
ATOM     14  H   UNL     1      48.150   5.118  17.198  0.00  0.00    +0.000 HD
ENDBRANCH   6  10
BRANCH   1  15
ATOM     15  C   UNL     1      43.857   3.013  10.191  0.00  0.00    +0.000 C 
BRANCH  15  20
ATOM     16  C   UNL     1      46.378   1.766   7.470  0.00  0.00    +0.000 C 
ATOM     17  C   UNL     1      47.129   3.089   7.251  0.00  0.00    +0.000 C 
ATOM     18  C   UNL     1      46.203   4.294   7.345  0.00  0.00    +0.000 C 
ATOM     19  C   UNL     1      45.451   4.314   8.671  0.00  0.00    +0.000 C 
ATOM     20  C   UNL     1      44.634   3.026   8.862  0.00  0.00    +0.000 C 
ATOM     21  C   UNL     1      45.572   1.803   8.785  0.00  0.00    +0.000 C 
BRANCH  16  22
ATOM     22  C   UNL     1      47.383   0.600   7.423  0.00  0.00    +0.000 C 
BRANCH  22  23
ATOM     23  N   UNL     1      46.762  -0.680   7.743  0.00  0.00    +0.000 NA
ATOM     24  H   UNL     1      47.469  -1.412   7.718  0.00  0.00    +0.000 HD
ATOM     25  H   UNL     1      46.080  -0.919   7.022  0.00  0.00    +0.000 HD
ENDBRANCH  22  23
ENDBRANCH  16  22
ENDBRANCH  15  20
ENDBRANCH   1  15
TORSDOF 5
ENDMDL
MODEL 4
REMARK VINA RESULT:    -7.128      2.709      6.753
REMARK INTER + INTRA:          -9.558
REMARK INTER:                  -9.077
REMARK INTRA:                  -0.481
REMARK UNBOUND:                -0.555
REMARK  Name = 
REMARK  5 active torsions:
REMARK  status: ('A' for Active; 'I' for Inactive)
REMARK    1  A    between atoms: N_1  and  C_2
REMARK    2  A    between atoms: C_2  and  C_3
REMARK    3  A    between atoms: C_7  and  C_8
REMARK    4  A    between atoms: C_8  and  N_9
REMARK    5  A    between atoms: C_14  and  C_15
REMARK                            x       y       z     vdW  Elec       q    Type
REMARK                         _______ _______ _______ _____ _____    ______ ____
ROOT
ATOM      1  N   UNL     1      44.062   4.548  10.540  0.00  0.00    +0.000 N 
ATOM      2  C   UNL     1      43.055   4.293  11.441  0.00  0.00    +0.000 A 
ATOM      3  C   UNL     1      43.321   4.994  12.591  0.00  0.00    +0.000 A 
ATOM      4  C   UNL     1      44.545   5.689  12.397  0.00  0.00    +0.000 A 
ATOM      5  C   UNL     1      45.299   6.552  13.217  0.00  0.00    +0.000 A 
ATOM      6  C   UNL     1      46.513   7.074  12.751  0.00  0.00    +0.000 A 
ATOM      7  C   UNL     1      46.955   6.745  11.463  0.00  0.00    +0.000 A 
ATOM      8  C   UNL     1      46.212   5.903  10.621  0.00  0.00    +0.000 A 
ATOM      9  C   UNL     1      45.005   5.383  11.111  0.00  0.00    +0.000 A 
ENDROOT
BRANCH   6  10
ATOM     10  C   UNL     1      47.374   7.968  13.582  0.00  0.00    +0.000 C 
ATOM     11  N   UNL     1      46.789   9.003  14.258  0.00  0.00    +0.000 N 
ATOM     12  O   UNL     1      48.584   7.788  13.675  0.00  0.00    +0.000 OA
ATOM     13  H   UNL     1      45.806   9.220  14.263  0.00  0.00    +0.000 HD
ATOM     14  H   UNL     1      47.400   9.575  14.828  0.00  0.00    +0.000 HD
ENDBRANCH   6  10
BRANCH   1  15
ATOM     15  C   UNL     1      44.053   4.055   9.167  0.00  0.00    +0.000 C 
BRANCH  15  20
ATOM     16  C   UNL     1      47.046   2.734   7.020  0.00  0.00    +0.000 C 
ATOM     17  C   UNL     1      46.686   1.241   7.044  0.00  0.00    +0.000 C 
ATOM     18  C   UNL     1      46.091   0.819   8.382  0.00  0.00    +0.000 C 
ATOM     19  C   UNL     1      44.881   1.672   8.744  0.00  0.00    +0.000 C 
ATOM     20  C   UNL     1      45.252   3.162   8.799  0.00  0.00    +0.000 C 
ATOM     21  C   UNL     1      45.840   3.598   7.440  0.00  0.00    +0.000 C 
BRANCH  16  22
ATOM     22  C   UNL     1      47.582   3.103   5.623  0.00  0.00    +0.000 C 
BRANCH  22  23
ATOM     23  N   UNL     1      48.367   2.027   5.029  0.00  0.00    +0.000 NA
ATOM     24  H   UNL     1      47.897   1.139   5.192  0.00  0.00    +0.000 HD
ATOM     25  H   UNL     1      49.269   1.962   5.502  0.00  0.00    +0.000 HD
ENDBRANCH  22  23
ENDBRANCH  16  22
ENDBRANCH  15  20
ENDBRANCH   1  15
TORSDOF 5
ENDMDL
MODEL 5
REMARK VINA RESULT:    -6.674      2.869      6.616
REMARK INTER + INTRA:          -8.985
REMARK INTER:                  -8.689
REMARK INTRA:                  -0.296
REMARK UNBOUND:                -0.555
REMARK  Name = 
REMARK  5 active torsions:
REMARK  status: ('A' for Active; 'I' for Inactive)
REMARK    1  A    between atoms: N_1  and  C_2
REMARK    2  A    between atoms: C_2  and  C_3
REMARK    3  A    between atoms: C_7  and  C_8
REMARK    4  A    between atoms: C_8  and  N_9
REMARK    5  A    between atoms: C_14  and  C_15
REMARK                            x       y       z     vdW  Elec       q    Type
REMARK                         _______ _______ _______ _____ _____    ______ ____
ROOT
ATOM      1  N   UNL     1      45.003   4.205  11.607  0.00  0.00    +0.000 N 
ATOM      2  C   UNL     1      45.549   3.250  12.432  0.00  0.00    +0.000 A 
ATOM      3  C   UNL     1      46.348   3.883  13.351  0.00  0.00    +0.000 A 
ATOM      4  C   UNL     1      46.307   5.275  13.070  0.00  0.00    +0.000 A 
ATOM      5  C   UNL     1      46.917   6.394  13.672  0.00  0.00    +0.000 A 
ATOM      6  C   UNL     1      46.707   7.673  13.140  0.00  0.00    +0.000 A 
ATOM      7  C   UNL     1      45.875   7.827  12.024  0.00  0.00    +0.000 A 
ATOM      8  C   UNL     1      45.241   6.730  11.419  0.00  0.00    +0.000 A 
ATOM      9  C   UNL     1      45.473   5.457  11.962  0.00  0.00    +0.000 A 
ENDROOT
BRANCH   6  10
ATOM     10  C   UNL     1      47.350   8.895  13.711  0.00  0.00    +0.000 C 
ATOM     11  N   UNL     1      47.453   9.011  15.070  0.00  0.00    +0.000 N 
ATOM     12  O   UNL     1      47.790   9.784  12.989  0.00  0.00    +0.000 OA
ATOM     13  H   UNL     1      47.144   8.329  15.741  0.00  0.00    +0.000 HD
ATOM     14  H   UNL     1      47.914   9.842  15.420  0.00  0.00    +0.000 HD
ENDBRANCH   6  10
BRANCH   1  15
ATOM     15  C   UNL     1      44.016   3.906  10.577  0.00  0.00    +0.000 C 
BRANCH  15  20
ATOM     16  C   UNL     1      45.856   1.878   7.781  0.00  0.00    +0.000 C 
ATOM     17  C   UNL     1      46.839   2.971   7.335  0.00  0.00    +0.000 C 
ATOM     18  C   UNL     1      46.211   4.358   7.380  0.00  0.00    +0.000 C 
ATOM     19  C   UNL     1      45.651   4.668   8.763  0.00  0.00    +0.000 C 
ATOM     20  C   UNL     1      44.607   3.621   9.184  0.00  0.00    +0.000 C 
ATOM     21  C   UNL     1      45.245   2.216   9.156  0.00  0.00    +0.000 C 
BRANCH  16  22
ATOM     22  C   UNL     1      46.574   0.515   7.770  0.00  0.00    +0.000 C 
BRANCH  22  23
ATOM     23  N   UNL     1      47.933   0.610   7.251  0.00  0.00    +0.000 NA
ATOM     24  H   UNL     1      48.432   1.344   7.749  0.00  0.00    +0.000 HD
ATOM     25  H   UNL     1      47.906   0.898   6.272  0.00  0.00    +0.000 HD
ENDBRANCH  22  23
ENDBRANCH  16  22
ENDBRANCH  15  20
ENDBRANCH   1  15
TORSDOF 5
ENDMDL
MODEL 6
REMARK VINA RESULT:    -6.297      3.106      5.775
REMARK INTER + INTRA:          -8.508
REMARK INTER:                  -7.892
REMARK INTRA:                  -0.616
REMARK UNBOUND:                -0.555
REMARK  Name = 
REMARK  5 active torsions:
REMARK  status: ('A' for Active; 'I' for Inactive)
REMARK    1  A    between atoms: N_1  and  C_2
REMARK    2  A    between atoms: C_2  and  C_3
REMARK    3  A    between atoms: C_7  and  C_8
REMARK    4  A    between atoms: C_8  and  N_9
REMARK    5  A    between atoms: C_14  and  C_15
REMARK                            x       y       z     vdW  Elec       q    Type
REMARK                         _______ _______ _______ _____ _____    ______ ____
ROOT
ATOM      1  N   UNL     1      47.846   7.013  13.636  0.00  0.00    +0.000 N 
ATOM      2  C   UNL     1      48.562   7.690  12.677  0.00  0.00    +0.000 A 
ATOM      3  C   UNL     1      47.992   7.431  11.455  0.00  0.00    +0.000 A 
ATOM      4  C   UNL     1      46.900   6.548  11.668  0.00  0.00    +0.000 A 
ATOM      5  C   UNL     1      45.964   5.953  10.798  0.00  0.00    +0.000 A 
ATOM      6  C   UNL     1      44.994   5.079  11.310  0.00  0.00    +0.000 A 
ATOM      7  C   UNL     1      44.956   4.822  12.686  0.00  0.00    +0.000 A 
ATOM      8  C   UNL     1      45.865   5.419  13.574  0.00  0.00    +0.000 A 
ATOM      9  C   UNL     1      46.834   6.282  13.040  0.00  0.00    +0.000 A 
ENDROOT
BRANCH   6  10
ATOM     10  C   UNL     1      43.995   4.392  10.439  0.00  0.00    +0.000 C 
ATOM     11  N   UNL     1      44.100   4.527   9.081  0.00  0.00    +0.000 N 
ATOM     12  O   UNL     1      43.094   3.706  10.913  0.00  0.00    +0.000 OA
ATOM     13  H   UNL     1      44.813   5.047   8.598  0.00  0.00    +0.000 HD
ATOM     14  H   UNL     1      43.418   4.029   8.523  0.00  0.00    +0.000 HD
ENDBRANCH   6  10
BRANCH   1  15
ATOM     15  C   UNL     1      48.101   7.141  15.066  0.00  0.00    +0.000 C 
BRANCH  15  20
ATOM     16  C   UNL     1      48.883   3.903  17.120  0.00  0.00    +0.000 C 
ATOM     17  C   UNL     1      50.065   4.448  17.938  0.00  0.00    +0.000 C 
ATOM     18  C   UNL     1      50.927   5.406  17.127  0.00  0.00    +0.000 C 
ATOM     19  C   UNL     1      50.097   6.548  16.552  0.00  0.00    +0.000 C 
ATOM     20  C   UNL     1      48.959   6.013  15.668  0.00  0.00    +0.000 C 
ATOM     21  C   UNL     1      48.072   5.054  16.491  0.00  0.00    +0.000 C 
BRANCH  16  22
ATOM     22  C   UNL     1      48.023   2.993  18.018  0.00  0.00    +0.000 C 
BRANCH  22  23
ATOM     23  N   UNL     1      46.619   2.994  17.624  0.00  0.00    +0.000 NA
ATOM     24  H   UNL     1      46.553   3.135  16.618  0.00  0.00    +0.000 HD
ATOM     25  H   UNL     1      46.144   3.789  18.054  0.00  0.00    +0.000 HD
ENDBRANCH  22  23
ENDBRANCH  16  22
ENDBRANCH  15  20
ENDBRANCH   1  15
TORSDOF 5
ENDMDL
MODEL 7
REMARK VINA RESULT:    -6.281      2.945      7.050
REMARK INTER + INTRA:          -8.488
REMARK INTER:                  -8.066
REMARK INTRA:                  -0.422
REMARK UNBOUND:                -0.555
REMARK  Name = 
REMARK  5 active torsions:
REMARK  status: ('A' for Active; 'I' for Inactive)
REMARK    1  A    between atoms: N_1  and  C_2
REMARK    2  A    between atoms: C_2  and  C_3
REMARK    3  A    between atoms: C_7  and  C_8
REMARK    4  A    between atoms: C_8  and  N_9
REMARK    5  A    between atoms: C_14  and  C_15
REMARK                            x       y       z     vdW  Elec       q    Type
REMARK                         _______ _______ _______ _____ _____    ______ ____
ROOT
ATOM      1  N   UNL     1      46.266   6.648  11.985  0.00  0.00    +0.000 N 
ATOM      2  C   UNL     1      47.113   7.717  11.808  0.00  0.00    +0.000 A 
ATOM      3  C   UNL     1      48.024   7.716  12.836  0.00  0.00    +0.000 A 
ATOM      4  C   UNL     1      47.714   6.620  13.684  0.00  0.00    +0.000 A 
ATOM      5  C   UNL     1      48.296   6.131  14.871  0.00  0.00    +0.000 A 
ATOM      6  C   UNL     1      47.737   5.018  15.515  0.00  0.00    +0.000 A 
ATOM      7  C   UNL     1      46.614   4.393  14.960  0.00  0.00    +0.000 A 
ATOM      8  C   UNL     1      46.028   4.850  13.768  0.00  0.00    +0.000 A 
ATOM      9  C   UNL     1      46.598   5.971  13.145  0.00  0.00    +0.000 A 
ENDROOT
BRANCH   6  10
ATOM     10  C   UNL     1      48.287   4.470  16.791  0.00  0.00    +0.000 C 
ATOM     11  N   UNL     1      47.558   4.617  17.939  0.00  0.00    +0.000 N 
ATOM     12  O   UNL     1      49.366   3.888  16.827  0.00  0.00    +0.000 OA
ATOM     13  H   UNL     1      46.655   5.057  18.008  0.00  0.00    +0.000 HD
ATOM     14  H   UNL     1      47.951   4.214  18.780  0.00  0.00    +0.000 HD
ENDBRANCH   6  10
BRANCH   1  15
ATOM     15  C   UNL     1      45.237   6.273  11.023  0.00  0.00    +0.000 C 
BRANCH  15  20
ATOM     16  C   UNL     1      45.673   3.324   8.487  0.00  0.00    +0.000 C 
ATOM     17  C   UNL     1      44.417   2.525   8.869  0.00  0.00    +0.000 C 
ATOM     18  C   UNL     1      44.134   2.586  10.364  0.00  0.00    +0.000 C 
ATOM     19  C   UNL     1      44.025   4.027  10.850  0.00  0.00    +0.000 C 
ATOM     20  C   UNL     1      45.309   4.813  10.541  0.00  0.00    +0.000 C 
ATOM     21  C   UNL     1      45.590   4.768   9.024  0.00  0.00    +0.000 C 
BRANCH  16  22
ATOM     22  C   UNL     1      45.862   3.270   6.959  0.00  0.00    +0.000 C 
BRANCH  22  23
ATOM     23  N   UNL     1      46.998   4.068   6.513  0.00  0.00    +0.000 NA
ATOM     24  H   UNL     1      47.209   4.774   7.215  0.00  0.00    +0.000 HD
ATOM     25  H   UNL     1      46.745   4.578   5.665  0.00  0.00    +0.000 HD
ENDBRANCH  22  23
ENDBRANCH  16  22
ENDBRANCH  15  20
ENDBRANCH   1  15
TORSDOF 5
ENDMDL
MODEL 8
REMARK VINA RESULT:    -5.739      3.881      5.940
REMARK INTER + INTRA:          -7.803
REMARK INTER:                  -7.495
REMARK INTRA:                  -0.309
REMARK UNBOUND:                -0.555
REMARK  Name = 
REMARK  5 active torsions:
REMARK  status: ('A' for Active; 'I' for Inactive)
REMARK    1  A    between atoms: N_1  and  C_2
REMARK    2  A    between atoms: C_2  and  C_3
REMARK    3  A    between atoms: C_7  and  C_8
REMARK    4  A    between atoms: C_8  and  N_9
REMARK    5  A    between atoms: C_14  and  C_15
REMARK                            x       y       z     vdW  Elec       q    Type
REMARK                         _______ _______ _______ _____ _____    ______ ____
ROOT
ATOM      1  N   UNL     1      47.772   7.464  13.636  0.00  0.00    +0.000 N 
ATOM      2  C   UNL     1      47.147   8.664  13.387  0.00  0.00    +0.000 A 
ATOM      3  C   UNL     1      45.870   8.400  12.956  0.00  0.00    +0.000 A 
ATOM      4  C   UNL     1      45.712   6.989  12.921  0.00  0.00    +0.000 A 
ATOM      5  C   UNL     1      44.633   6.153  12.567  0.00  0.00    +0.000 A 
ATOM      6  C   UNL     1      44.788   4.760  12.604  0.00  0.00    +0.000 A 
ATOM      7  C   UNL     1      46.012   4.214  13.012  0.00  0.00    +0.000 A 
ATOM      8  C   UNL     1      47.094   5.026  13.388  0.00  0.00    +0.000 A 
ATOM      9  C   UNL     1      46.920   6.418  13.334  0.00  0.00    +0.000 A 
ENDROOT
BRANCH   6  10
ATOM     10  C   UNL     1      43.696   3.821  12.211  0.00  0.00    +0.000 C 
ATOM     11  N   UNL     1      43.763   2.520  12.630  0.00  0.00    +0.000 N 
ATOM     12  O   UNL     1      42.744   4.192  11.533  0.00  0.00    +0.000 OA
ATOM     13  H   UNL     1      44.489   2.127  13.206  0.00  0.00    +0.000 HD
ATOM     14  H   UNL     1      42.994   1.918  12.364  0.00  0.00    +0.000 HD
ENDBRANCH   6  10
BRANCH   1  15
ATOM     15  C   UNL     1      49.107   7.362  14.213  0.00  0.00    +0.000 C 
BRANCH  15  20
ATOM     16  C   UNL     1      48.651   6.512  18.005  0.00  0.00    +0.000 C 
ATOM     17  C   UNL     1      47.943   7.807  18.432  0.00  0.00    +0.000 C 
ATOM     18  C   UNL     1      48.482   9.024  17.690  0.00  0.00    +0.000 C 
ATOM     19  C   UNL     1      48.396   8.834  16.180  0.00  0.00    +0.000 C 
ATOM     20  C   UNL     1      49.168   7.582  15.735  0.00  0.00    +0.000 C 
ATOM     21  C   UNL     1      48.614   6.345  16.473  0.00  0.00    +0.000 C 
BRANCH  16  22
ATOM     22  C   UNL     1      48.016   5.320  18.747  0.00  0.00    +0.000 C 
BRANCH  22  23
ATOM     23  N   UNL     1      46.656   5.048  18.298  0.00  0.00    +0.000 NA
ATOM     24  H   UNL     1      46.520   4.042  18.230  0.00  0.00    +0.000 HD
ATOM     25  H   UNL     1      46.529   5.416  17.354  0.00  0.00    +0.000 HD
ENDBRANCH  22  23
ENDBRANCH  16  22
ENDBRANCH  15  20
ENDBRANCH   1  15
TORSDOF 5
ENDMDL
MODEL 9
REMARK VINA RESULT:    -5.697      4.734      8.245
REMARK INTER + INTRA:          -7.750
REMARK INTER:                  -7.153
REMARK INTRA:                  -0.598
REMARK UNBOUND:                -0.555
REMARK  Name = 
REMARK  5 active torsions:
REMARK  status: ('A' for Active; 'I' for Inactive)
REMARK    1  A    between atoms: N_1  and  C_2
REMARK    2  A    between atoms: C_2  and  C_3
REMARK    3  A    between atoms: C_7  and  C_8
REMARK    4  A    between atoms: C_8  and  N_9
REMARK    5  A    between atoms: C_14  and  C_15
REMARK                            x       y       z     vdW  Elec       q    Type
REMARK                         _______ _______ _______ _____ _____    ______ ____
ROOT
ATOM      1  N   UNL     1      48.307   6.523  14.499  0.00  0.00    +0.000 N 
ATOM      2  C   UNL     1      48.940   7.736  14.641  0.00  0.00    +0.000 A 
ATOM      3  C   UNL     1      49.361   7.849  15.944  0.00  0.00    +0.000 A 
ATOM      4  C   UNL     1      48.954   6.674  16.630  0.00  0.00    +0.000 A 
ATOM      5  C   UNL     1      49.107   6.239  17.962  0.00  0.00    +0.000 A 
ATOM      6  C   UNL     1      48.558   5.013  18.364  0.00  0.00    +0.000 A 
ATOM      7  C   UNL     1      47.878   4.224  17.428  0.00  0.00    +0.000 A 
ATOM      8  C   UNL     1      47.731   4.626  16.091  0.00  0.00    +0.000 A 
ATOM      9  C   UNL     1      48.279   5.861  15.713  0.00  0.00    +0.000 A 
ENDROOT
BRANCH   6  10
ATOM     10  C   UNL     1      48.657   4.511  19.767  0.00  0.00    +0.000 C 
ATOM     11  N   UNL     1      48.374   3.197  20.018  0.00  0.00    +0.000 N 
ATOM     12  O   UNL     1      48.993   5.247  20.689  0.00  0.00    +0.000 OA
ATOM     13  H   UNL     1      48.112   2.512  19.328  0.00  0.00    +0.000 HD
ATOM     14  H   UNL     1      48.473   2.887  20.976  0.00  0.00    +0.000 HD
ENDBRANCH   6  10
BRANCH   1  15
ATOM     15  C   UNL     1      47.824   6.017  13.219  0.00  0.00    +0.000 C 
BRANCH  15  20
ATOM     16  C   UNL     1      44.098   5.012  12.568  0.00  0.00    +0.000 C 
ATOM     17  C   UNL     1      43.830   5.944  11.375  0.00  0.00    +0.000 C 
ATOM     18  C   UNL     1      44.542   7.282  11.524  0.00  0.00    +0.000 C 
ATOM     19  C   UNL     1      46.040   7.092  11.735  0.00  0.00    +0.000 C 
ATOM     20  C   UNL     1      46.319   6.226  12.973  0.00  0.00    +0.000 C 
ATOM     21  C   UNL     1      45.613   4.862  12.818  0.00  0.00    +0.000 C 
BRANCH  16  22
ATOM     22  C   UNL     1      43.401   3.661  12.322  0.00  0.00    +0.000 C 
BRANCH  22  23
ATOM     23  N   UNL     1      44.310   2.532  12.480  0.00  0.00    +0.000 NA
ATOM     24  H   UNL     1      44.553   2.166  11.562  0.00  0.00    +0.000 HD
ATOM     25  H   UNL     1      43.831   1.774  12.970  0.00  0.00    +0.000 HD
ENDBRANCH  22  23
ENDBRANCH  16  22
ENDBRANCH  15  20
ENDBRANCH   1  15
TORSDOF 5
ENDMDL
