MODEL 1
REMARK VINA RESULT:    -8.812      0.000      0.000
REMARK INTER + INTRA:         -11.283
REMARK INTER:                 -10.615
REMARK INTRA:                  -0.668
REMARK UNBOUND:                -0.668
REMARK  Name = 
REMARK  4 active torsions:
REMARK  status: ('A' for Active; 'I' for Inactive)
REMARK    1  A    between atoms: C_2  and  C_4
REMARK    2  A    between atoms: N_8  and  C_9
REMARK    3  A    between atoms: C_9  and  C_10
REMARK    4  A    between atoms: C_14  and  O_15
REMARK                            x       y       z     vdW  Elec       q    Type
REMARK                         _______ _______ _______ _____ _____    ______ ____
ROOT
ATOM      1  C   UNL     1      46.583   2.738   7.455  0.00  0.00    +0.000 A 
ATOM      2  C   UNL     1      46.287   4.076   7.689  0.00  0.00    +0.000 A 
ATOM      3  C   UNL     1      45.417   4.416   8.724  0.00  0.00    +0.000 A 
ATOM      4  C   UNL     1      44.862   3.415   9.510  0.00  0.00    +0.000 A 
ATOM      5  N   UNL     1      43.899   3.669  10.490  0.00  0.00    +0.000 N 
ATOM      6  N   UNL     1      45.140   2.110   9.294  0.00  0.00    +0.000 NA
ATOM      7  C   UNL     1      45.983   1.795   8.275  0.00  0.00    +0.000 A 
ATOM      8  H   UNL     1      43.727   2.771  10.943  0.00  0.00    +0.000 HD
ENDROOT
BRANCH   1  10
ATOM      9  N   UNL     1      47.320   3.004   5.161  0.00  0.00    +0.000 N 
ATOM     10  C   UNL     1      47.443   2.306   6.333  0.00  0.00    +0.000 C 
ATOM     11  O   UNL     1      48.228   1.381   6.445  0.00  0.00    +0.000 OA
ATOM     12  H   UNL     1      47.929   2.735   4.399  0.00  0.00    +0.000 HD
ATOM     13  H   UNL     1      46.855   3.900   5.098  0.00  0.00    +0.000 HD
ENDBRANCH   1  10
BRANCH   5  14
ATOM     14  C   UNL     1      43.875   4.847  11.375  0.00  0.00    +0.000 C 
ATOM     15  C   UNL     1      42.541   5.041  12.086  0.00  0.00    +0.000 C 
ATOM     16  C   UNL     1      43.029   6.089  11.145  0.00  0.00    +0.000 C 
BRANCH  14  17
ATOM     17  C   UNL     1      45.176   5.047  12.145  0.00  0.00    +0.000 A 
ATOM     18  C   UNL     1      45.845   6.286  12.174  0.00  0.00    +0.000 A 
ATOM     19  C   UNL     1      46.996   6.476  12.948  0.00  0.00    +0.000 A 
ATOM     20  C   UNL     1      47.509   5.427  13.708  0.00  0.00    +0.000 A 
ATOM     21  C   UNL     1      46.874   4.193  13.673  0.00  0.00    +0.000 A 
ATOM     22  C   UNL     1      45.729   4.000  12.904  0.00  0.00    +0.000 A 
BRANCH  21  23
ATOM     23  O   UNL     1      47.335   3.131  14.395  0.00  0.00    +0.000 OA
ATOM     24  H   UNL     1      46.746   2.375  14.240  0.00  0.00    +0.000 HD
ENDBRANCH  21  23
ENDBRANCH  14  17
ENDBRANCH   5  14
TORSDOF 4
ENDMDL
MODEL 2
REMARK VINA RESULT:    -6.906      2.601      6.384
REMARK INTER + INTRA:          -8.987
REMARK INTER:                  -8.698
REMARK INTRA:                  -0.289
REMARK UNBOUND:                -0.668
REMARK  Name = 
REMARK  4 active torsions:
REMARK  status: ('A' for Active; 'I' for Inactive)
REMARK    1  A    between atoms: C_2  and  C_4
REMARK    2  A    between atoms: N_8  and  C_9
REMARK    3  A    between atoms: C_9  and  C_10
REMARK    4  A    between atoms: C_14  and  O_15
REMARK                            x       y       z     vdW  Elec       q    Type
REMARK                         _______ _______ _______ _____ _____    ______ ____
ROOT
ATOM      1  C   UNL     1      47.859   6.045  14.290  0.00  0.00    +0.000 A 
ATOM      2  C   UNL     1      46.966   4.987  14.424  0.00  0.00    +0.000 A 
ATOM      3  C   UNL     1      46.073   4.707  13.391  0.00  0.00    +0.000 A 
ATOM      4  C   UNL     1      46.090   5.483  12.240  0.00  0.00    +0.000 A 
ATOM      5  N   UNL     1      45.155   5.334  11.212  0.00  0.00    +0.000 N 
ATOM      6  N   UNL     1      46.953   6.514  12.095  0.00  0.00    +0.000 NA
ATOM      7  C   UNL     1      47.811   6.780  13.116  0.00  0.00    +0.000 A 
ATOM      8  H   UNL     1      45.449   5.981  10.480  0.00  0.00    +0.000 HD
ENDROOT
BRANCH   1  10
ATOM      9  N   UNL     1      48.267   6.470  16.641  0.00  0.00    +0.000 N 
ATOM     10  C   UNL     1      48.784   6.436  15.374  0.00  0.00    +0.000 C 
ATOM     11  O   UNL     1      49.951   6.709  15.154  0.00  0.00    +0.000 OA
ATOM     12  H   UNL     1      48.902   6.705  17.392  0.00  0.00    +0.000 HD
ATOM     13  H   UNL     1      47.385   6.042  16.889  0.00  0.00    +0.000 HD
ENDBRANCH   1  10
BRANCH   5  14
ATOM     14  C   UNL     1      44.598   4.052  10.747  0.00  0.00    +0.000 C 
ATOM     15  C   UNL     1      43.086   3.957  10.906  0.00  0.00    +0.000 C 
ATOM     16  C   UNL     1      43.961   3.005  11.646  0.00  0.00    +0.000 C 
BRANCH  14  17
ATOM     17  C   UNL     1      45.257   3.538   9.471  0.00  0.00    +0.000 A 
ATOM     18  C   UNL     1      45.693   4.407   8.452  0.00  0.00    +0.000 A 
ATOM     19  C   UNL     1      46.365   3.928   7.322  0.00  0.00    +0.000 A 
ATOM     20  C   UNL     1      46.613   2.563   7.181  0.00  0.00    +0.000 A 
ATOM     21  C   UNL     1      46.169   1.691   8.166  0.00  0.00    +0.000 A 
ATOM     22  C   UNL     1      45.500   2.165   9.291  0.00  0.00    +0.000 A 
BRANCH  21  23
ATOM     23  O   UNL     1      46.382   0.346   8.077  0.00  0.00    +0.000 OA
ATOM     24  H   UNL     1      45.567  -0.112   8.341  0.00  0.00    +0.000 HD
ENDBRANCH  21  23
ENDBRANCH  14  17
ENDBRANCH   5  14
TORSDOF 4
ENDMDL
MODEL 3
REMARK VINA RESULT:    -6.903      2.781      6.296
REMARK INTER + INTRA:          -8.983
REMARK INTER:                  -8.453
REMARK INTRA:                  -0.530
REMARK UNBOUND:                -0.668
REMARK  Name = 
REMARK  4 active torsions:
REMARK  status: ('A' for Active; 'I' for Inactive)
REMARK    1  A    between atoms: C_2  and  C_4
REMARK    2  A    between atoms: N_8  and  C_9
REMARK    3  A    between atoms: C_9  and  C_10
REMARK    4  A    between atoms: C_14  and  O_15
REMARK                            x       y       z     vdW  Elec       q    Type
REMARK                         _______ _______ _______ _____ _____    ______ ____
ROOT
ATOM      1  C   UNL     1      48.398   6.672  13.695  0.00  0.00    +0.000 A 
ATOM      2  C   UNL     1      47.456   5.723  14.079  0.00  0.00    +0.000 A 
ATOM      3  C   UNL     1      46.359   5.473  13.256  0.00  0.00    +0.000 A 
ATOM      4  C   UNL     1      46.223   6.171  12.063  0.00  0.00    +0.000 A 
ATOM      5  N   UNL     1      45.098   6.056  11.242  0.00  0.00    +0.000 N 
ATOM      6  N   UNL     1      47.131   7.095  11.677  0.00  0.00    +0.000 NA
ATOM      7  C   UNL     1      48.190   7.334  12.495  0.00  0.00    +0.000 A 
ATOM      8  H   UNL     1      45.302   6.621  10.419  0.00  0.00    +0.000 HD
ENDROOT
BRANCH   1  10
ATOM      9  N   UNL     1      50.331   8.069  14.125  0.00  0.00    +0.000 N 
ATOM     10  C   UNL     1      49.546   7.031  14.553  0.00  0.00    +0.000 C 
ATOM     11  O   UNL     1      49.781   6.440  15.592  0.00  0.00    +0.000 OA
ATOM     12  H   UNL     1      51.100   8.342  14.724  0.00  0.00    +0.000 HD
ATOM     13  H   UNL     1      50.046   8.716  13.403  0.00  0.00    +0.000 HD
ENDBRANCH   1  10
BRANCH   5  14
ATOM     14  C   UNL     1      44.348   4.812  10.994  0.00  0.00    +0.000 C 
ATOM     15  C   UNL     1      42.837   4.996  11.050  0.00  0.00    +0.000 C 
ATOM     16  C   UNL     1      43.501   4.088  12.027  0.00  0.00    +0.000 C 
BRANCH  14  17
ATOM     17  C   UNL     1      44.963   3.947   9.898  0.00  0.00    +0.000 A 
ATOM     18  C   UNL     1      44.850   2.544   9.900  0.00  0.00    +0.000 A 
ATOM     19  C   UNL     1      45.351   1.770   8.848  0.00  0.00    +0.000 A 
ATOM     20  C   UNL     1      45.985   2.382   7.768  0.00  0.00    +0.000 A 
ATOM     21  C   UNL     1      46.124   3.764   7.761  0.00  0.00    +0.000 A 
ATOM     22  C   UNL     1      45.627   4.537   8.807  0.00  0.00    +0.000 A 
BRANCH  21  23
ATOM     23  O   UNL     1      46.737   4.415   6.731  0.00  0.00    +0.000 OA
ATOM     24  H   UNL     1      47.622   4.689   7.025  0.00  0.00    +0.000 HD
ENDBRANCH  21  23
ENDBRANCH  14  17
ENDBRANCH   5  14
TORSDOF 4
ENDMDL
