MODEL 1
REMARK VINA RESULT:    -8.650      0.000      0.000
REMARK INTER + INTRA:         -11.974
REMARK INTER:                 -11.431
REMARK INTRA:                  -0.542
REMARK UNBOUND:                -0.542
REMARK  Name = 
REMARK  6 active torsions:
REMARK  status: ('A' for Active; 'I' for Inactive)
REMARK    1  A    between atoms: N_1  and  C_2
REMARK    2  A    between atoms: C_2  and  N_3
REMARK    3  A    between atoms: C_2  and  C_16
REMARK    4  A    between atoms: C_4  and  C_6
REMARK    5  A    between atoms: C_19  and  C_20
REMARK    6  A    between atoms: C_20  and  N_21
REMARK                            x       y       z     vdW  Elec       q    Type
REMARK                         _______ _______ _______ _____ _____    ______ ____
ROOT
ATOM      1  C   UNL     1      47.018   7.734  13.359  0.00  0.00    +0.000 C 
ENDROOT
BRANCH   1   2
ATOM      2  C   UNL     1      46.181   6.638  12.717  0.00  0.00    +0.000 A 
ATOM      3  C   UNL     1      45.023   6.948  11.992  0.00  0.00    +0.000 A 
ATOM      4  C   UNL     1      44.265   5.938  11.383  0.00  0.00    +0.000 A 
ATOM      5  C   UNL     1      44.642   4.592  11.492  0.00  0.00    +0.000 A 
ATOM      6  C   UNL     1      45.804   4.277  12.204  0.00  0.00    +0.000 A 
ATOM      7  C   UNL     1      46.557   5.284  12.814  0.00  0.00    +0.000 A 
BRANCH   5   8
ATOM      8  C   UNL     1      43.828   3.499  10.845  0.00  0.00    +0.000 C 
BRANCH   8   9
ATOM      9  N   UNL     1      44.609   2.763   9.875  0.00  0.00    +0.000 N 
ATOM     10  C   UNL     1      44.980   3.371   8.703  0.00  0.00    +0.000 C 
ATOM     11  O   UNL     1      44.603   4.496   8.397  0.00  0.00    +0.000 OA
ATOM     12  N   UNL     1      45.809   2.621   7.899  0.00  0.00    +0.000 N 
ATOM     13  C   UNL     1      46.188   1.230   8.043  0.00  0.00    +0.000 C 
ATOM     14  C   UNL     1      47.486   1.147   7.263  0.00  0.00    +0.000 C 
ATOM     15  C   UNL     1      47.249   2.092   6.089  0.00  0.00    +0.000 C 
ATOM     16  C   UNL     1      46.296   3.154   6.637  0.00  0.00    +0.000 C 
ATOM     17  H   UNL     1      45.289   2.135  10.267  0.00  0.00    +0.000 HD
ENDBRANCH   8   9
ENDBRANCH   5   8
ENDBRANCH   1   2
BRANCH   1  18
ATOM     18  N   UNL     1      47.552   7.270  14.608  0.00  0.00    +0.000 N 
ATOM     19  C   UNL     1      48.858   6.901  14.804  0.00  0.00    +0.000 C 
ATOM     20  O   UNL     1      49.724   7.050  13.947  0.00  0.00    +0.000 OA
ATOM     21  H   UNL     1      46.864   6.797  15.184  0.00  0.00    +0.000 HD
BRANCH  19  22
ATOM     22  C   UNL     1      49.185   6.441  16.160  0.00  0.00    +0.000 A 
ATOM     23  C   UNL     1      49.971   7.230  16.989  0.00  0.00    +0.000 A 
ATOM     24  S   UNL     1      50.162   6.589  18.559  0.00  0.00    +0.000 S 
ATOM     25  C   UNL     1      49.250   5.207  18.166  0.00  0.00    +0.000 A 
ATOM     26  N   UNL     1      49.033   4.223  19.080  0.00  0.00    +0.000 NA
ATOM     27  C   UNL     1      48.347   3.224  18.637  0.00  0.00    +0.000 A 
ATOM     28  N   UNL     1      47.856   3.117  17.360  0.00  0.00    +0.000 N 
ATOM     29  C   UNL     1      48.034   4.093  16.411  0.00  0.00    +0.000 A 
ATOM     30  O   UNL     1      47.563   3.988  15.282  0.00  0.00    +0.000 OA
ATOM     31  C   UNL     1      48.799   5.240  16.859  0.00  0.00    +0.000 A 
ATOM     32  H   UNL     1      47.323   2.308  17.077  0.00  0.00    +0.000 HD
ENDBRANCH  19  22
ENDBRANCH   1  18
BRANCH   1  33
ATOM     33  N   UNL     1      46.205   8.893  13.656  0.00  0.00    +0.000 NA
ATOM     34  H   UNL     1      45.733   9.143  12.784  0.00  0.00    +0.000 HD
ATOM     35  H   UNL     1      46.830   9.671  13.846  0.00  0.00    +0.000 HD
ENDBRANCH   1  33
TORSDOF 6
ENDMDL
MODEL 2
REMARK VINA RESULT:    -8.372      1.772      2.238
REMARK INTER + INTRA:         -11.606
REMARK INTER:                 -10.683
REMARK INTRA:                  -0.923
REMARK UNBOUND:                -0.542
REMARK  Name = 
REMARK  6 active torsions:
REMARK  status: ('A' for Active; 'I' for Inactive)
REMARK    1  A    between atoms: N_1  and  C_2
REMARK    2  A    between atoms: C_2  and  N_3
REMARK    3  A    between atoms: C_2  and  C_16
REMARK    4  A    between atoms: C_4  and  C_6
REMARK    5  A    between atoms: C_19  and  C_20
REMARK    6  A    between atoms: C_20  and  N_21
REMARK                            x       y       z     vdW  Elec       q    Type
REMARK                         _______ _______ _______ _____ _____    ______ ____
ROOT
ATOM      1  C   UNL     1      47.730   7.130  13.960  0.00  0.00    +0.000 C 
ENDROOT
BRANCH   1   2
ATOM      2  C   UNL     1      46.826   6.148  13.231  0.00  0.00    +0.000 A 
ATOM      3  C   UNL     1      45.986   6.576  12.194  0.00  0.00    +0.000 A 
ATOM      4  C   UNL     1      45.169   5.665  11.510  0.00  0.00    +0.000 A 
ATOM      5  C   UNL     1      45.165   4.305  11.852  0.00  0.00    +0.000 A 
ATOM      6  C   UNL     1      46.012   3.870  12.877  0.00  0.00    +0.000 A 
ATOM      7  C   UNL     1      46.823   4.779  13.561  0.00  0.00    +0.000 A 
BRANCH   5   8
ATOM      8  C   UNL     1      44.285   3.320  11.123  0.00  0.00    +0.000 C 
BRANCH   8   9
ATOM      9  N   UNL     1      45.001   2.662  10.053  0.00  0.00    +0.000 N 
ATOM     10  C   UNL     1      45.096   3.271   8.828  0.00  0.00    +0.000 C 
ATOM     11  O   UNL     1      44.522   4.322   8.569  0.00  0.00    +0.000 OA
ATOM     12  N   UNL     1      45.887   2.613   7.913  0.00  0.00    +0.000 N 
ATOM     13  C   UNL     1      46.476   1.293   8.017  0.00  0.00    +0.000 C 
ATOM     14  C   UNL     1      47.635   1.359   7.040  0.00  0.00    +0.000 C 
ATOM     15  C   UNL     1      47.088   2.218   5.906  0.00  0.00    +0.000 C 
ATOM     16  C   UNL     1      46.092   3.160   6.582  0.00  0.00    +0.000 C 
ATOM     17  H   UNL     1      45.816   2.148  10.341  0.00  0.00    +0.000 HD
ENDBRANCH   8   9
ENDBRANCH   5   8
ENDBRANCH   1   2
BRANCH   1  18
ATOM     18  N   UNL     1      47.920   6.702  15.316  0.00  0.00    +0.000 N 
ATOM     19  C   UNL     1      49.144   6.498  15.900  0.00  0.00    +0.000 C 
ATOM     20  O   UNL     1      50.200   6.780  15.343  0.00  0.00    +0.000 OA
ATOM     21  H   UNL     1      47.160   6.129  15.663  0.00  0.00    +0.000 HD
BRANCH  19  22
ATOM     22  C   UNL     1      49.107   6.044  17.297  0.00  0.00    +0.000 A 
ATOM     23  C   UNL     1      49.579   4.782  17.629  0.00  0.00    +0.000 A 
ATOM     24  S   UNL     1      49.555   4.465  19.306  0.00  0.00    +0.000 S 
ATOM     25  C   UNL     1      48.860   5.982  19.639  0.00  0.00    +0.000 A 
ATOM     26  N   UNL     1      48.561   6.354  20.913  0.00  0.00    +0.000 NA
ATOM     27  C   UNL     1      48.015   7.519  21.015  0.00  0.00    +0.000 A 
ATOM     28  N   UNL     1      47.738   8.349  19.957  0.00  0.00    +0.000 N 
ATOM     29  C   UNL     1      48.040   8.022  18.657  0.00  0.00    +0.000 A 
ATOM     30  O   UNL     1      47.808   8.791  17.730  0.00  0.00    +0.000 OA
ATOM     31  C   UNL     1      48.657   6.722  18.488  0.00  0.00    +0.000 A 
ATOM     32  H   UNL     1      47.311   9.251  20.105  0.00  0.00    +0.000 HD
ENDBRANCH  19  22
ENDBRANCH   1  18
BRANCH   1  33
ATOM     33  N   UNL     1      47.123   8.443  14.016  0.00  0.00    +0.000 NA
ATOM     34  H   UNL     1      47.880   9.098  14.227  0.00  0.00    +0.000 HD
ATOM     35  H   UNL     1      46.518   8.471  14.831  0.00  0.00    +0.000 HD
ENDBRANCH   1  33
TORSDOF 6
ENDMDL
MODEL 3
REMARK VINA RESULT:    -8.141      1.425      1.818
REMARK INTER + INTRA:         -11.301
REMARK INTER:                 -10.357
REMARK INTRA:                  -0.944
REMARK UNBOUND:                -0.542
REMARK  Name = 
REMARK  6 active torsions:
REMARK  status: ('A' for Active; 'I' for Inactive)
REMARK    1  A    between atoms: N_1  and  C_2
REMARK    2  A    between atoms: C_2  and  N_3
REMARK    3  A    between atoms: C_2  and  C_16
REMARK    4  A    between atoms: C_4  and  C_6
REMARK    5  A    between atoms: C_19  and  C_20
REMARK    6  A    between atoms: C_20  and  N_21
REMARK                            x       y       z     vdW  Elec       q    Type
REMARK                         _______ _______ _______ _____ _____    ______ ____
ROOT
ATOM      1  C   UNL     1      48.513   7.112  13.949  0.00  0.00    +0.000 C 
ENDROOT
BRANCH   1   2
ATOM      2  C   UNL     1      47.444   6.344  13.188  0.00  0.00    +0.000 A 
ATOM      3  C   UNL     1      46.940   5.133  13.680  0.00  0.00    +0.000 A 
ATOM      4  C   UNL     1      45.940   4.437  12.986  0.00  0.00    +0.000 A 
ATOM      5  C   UNL     1      45.426   4.931  11.778  0.00  0.00    +0.000 A 
ATOM      6  C   UNL     1      45.917   6.146  11.288  0.00  0.00    +0.000 A 
ATOM      7  C   UNL     1      46.917   6.837  11.978  0.00  0.00    +0.000 A 
BRANCH   5   8
ATOM      8  C   UNL     1      44.353   4.185  11.023  0.00  0.00    +0.000 C 
BRANCH   8   9
ATOM      9  N   UNL     1      44.924   3.275  10.055  0.00  0.00    +0.000 N 
ATOM     10  C   UNL     1      45.266   3.739   8.811  0.00  0.00    +0.000 C 
ATOM     11  O   UNL     1      45.029   4.885   8.446  0.00  0.00    +0.000 OA
ATOM     12  N   UNL     1      45.898   2.819   8.003  0.00  0.00    +0.000 N 
ATOM     13  C   UNL     1      46.084   1.400   8.229  0.00  0.00    +0.000 C 
ATOM     14  C   UNL     1      47.277   1.069   7.352  0.00  0.00    +0.000 C 
ATOM     15  C   UNL     1      47.069   1.956   6.129  0.00  0.00    +0.000 C 
ATOM     16  C   UNL     1      46.335   3.185   6.666  0.00  0.00    +0.000 C 
ATOM     17  H   UNL     1      45.541   2.580  10.438  0.00  0.00    +0.000 HD
ENDBRANCH   8   9
ENDBRANCH   5   8
ENDBRANCH   1   2
BRANCH   1  18
ATOM     18  N   UNL     1      48.319   6.947  15.361  0.00  0.00    +0.000 N 
ATOM     19  C   UNL     1      49.047   7.595  16.325  0.00  0.00    +0.000 C 
ATOM     20  O   UNL     1      49.861   8.476  16.062  0.00  0.00    +0.000 OA
ATOM     21  H   UNL     1      47.968   6.029  15.610  0.00  0.00    +0.000 HD
BRANCH  19  22
ATOM     22  C   UNL     1      48.691   7.266  17.712  0.00  0.00    +0.000 A 
ATOM     23  C   UNL     1      48.162   8.243  18.543  0.00  0.00    +0.000 A 
ATOM     24  S   UNL     1      47.711   7.658  20.081  0.00  0.00    +0.000 S 
ATOM     25  C   UNL     1      48.260   6.091  19.708  0.00  0.00    +0.000 A 
ATOM     26  N   UNL     1      48.178   5.081  20.616  0.00  0.00    +0.000 NA
ATOM     27  C   UNL     1      48.655   3.954  20.207  0.00  0.00    +0.000 A 
ATOM     28  N   UNL     1      49.210   3.743  18.969  0.00  0.00    +0.000 N 
ATOM     29  C   UNL     1      49.296   4.727  18.015  0.00  0.00    +0.000 A 
ATOM     30  O   UNL     1      49.772   4.508  16.905  0.00  0.00    +0.000 OA
ATOM     31  C   UNL     1      48.772   6.015  18.425  0.00  0.00    +0.000 A 
ATOM     32  H   UNL     1      49.563   2.834  18.710  0.00  0.00    +0.000 HD
ENDBRANCH  19  22
ENDBRANCH   1  18
BRANCH   1  33
ATOM     33  N   UNL     1      48.419   8.530  13.676  0.00  0.00    +0.000 NA
ATOM     34  H   UNL     1      47.602   8.652  13.073  0.00  0.00    +0.000 HD
ATOM     35  H   UNL     1      49.212   8.789  13.097  0.00  0.00    +0.000 HD
ENDBRANCH   1  33
TORSDOF 6
ENDMDL
MODEL 4
REMARK VINA RESULT:    -7.921      4.588      9.176
REMARK INTER + INTRA:         -11.010
REMARK INTER:                 -10.183
REMARK INTRA:                  -0.827
REMARK UNBOUND:                -0.542
REMARK  Name = 
REMARK  6 active torsions:
REMARK  status: ('A' for Active; 'I' for Inactive)
REMARK    1  A    between atoms: N_1  and  C_2
REMARK    2  A    between atoms: C_2  and  N_3
REMARK    3  A    between atoms: C_2  and  C_16
REMARK    4  A    between atoms: C_4  and  C_6
REMARK    5  A    between atoms: C_19  and  C_20
REMARK    6  A    between atoms: C_20  and  N_21
REMARK                            x       y       z     vdW  Elec       q    Type
REMARK                         _______ _______ _______ _____ _____    ______ ____
ROOT
ATOM      1  C   UNL     1      47.456   3.582  16.933  0.00  0.00    +0.000 C 
ENDROOT
BRANCH   1   2
ATOM      2  C   UNL     1      48.949   3.532  17.218  0.00  0.00    +0.000 A 
ATOM      3  C   UNL     1      49.642   4.678  17.632  0.00  0.00    +0.000 A 
ATOM      4  C   UNL     1      51.014   4.624  17.914  0.00  0.00    +0.000 A 
ATOM      5  C   UNL     1      51.730   3.425  17.780  0.00  0.00    +0.000 A 
ATOM      6  C   UNL     1      51.041   2.276  17.378  0.00  0.00    +0.000 A 
ATOM      7  C   UNL     1      49.674   2.331  17.093  0.00  0.00    +0.000 A 
BRANCH   5   8
ATOM      8  C   UNL     1      53.207   3.361  18.076  0.00  0.00    +0.000 C 
BRANCH   8   9
ATOM      9  N   UNL     1      53.810   2.175  17.509  0.00  0.00    +0.000 N 
ATOM     10  C   UNL     1      54.255   1.179  18.340  0.00  0.00    +0.000 C 
ATOM     11  O   UNL     1      54.245   1.286  19.560  0.00  0.00    +0.000 OA
ATOM     12  N   UNL     1      54.712   0.050  17.697  0.00  0.00    +0.000 N 
ATOM     13  C   UNL     1      54.946  -0.148  16.281  0.00  0.00    +0.000 C 
ATOM     14  C   UNL     1      54.876  -1.656  16.131  0.00  0.00    +0.000 C 
ATOM     15  C   UNL     1      55.514  -2.165  17.418  0.00  0.00    +0.000 C 
ATOM     16  C   UNL     1      55.194  -1.091  18.458  0.00  0.00    +0.000 C 
ATOM     17  H   UNL     1      53.399   1.862  16.646  0.00  0.00    +0.000 HD
ENDBRANCH   8   9
ENDBRANCH   5   8
ENDBRANCH   1   2
BRANCH   1  18
ATOM     18  N   UNL     1      47.189   4.544  15.902  0.00  0.00    +0.000 N 
ATOM     19  C   UNL     1      47.158   4.256  14.562  0.00  0.00    +0.000 C 
ATOM     20  O   UNL     1      47.239   3.111  14.128  0.00  0.00    +0.000 OA
ATOM     21  H   UNL     1      47.480   5.484  16.148  0.00  0.00    +0.000 HD
BRANCH  19  22
ATOM     22  C   UNL     1      46.880   5.397  13.679  0.00  0.00    +0.000 A 
ATOM     23  C   UNL     1      47.881   6.317  13.400  0.00  0.00    +0.000 A 
ATOM     24  S   UNL     1      47.413   7.514  12.277  0.00  0.00    +0.000 S 
ATOM     25  C   UNL     1      45.839   6.876  12.170  0.00  0.00    +0.000 A 
ATOM     26  N   UNL     1      44.900   7.450  11.370  0.00  0.00    +0.000 NA
ATOM     27  C   UNL     1      43.744   6.877  11.406  0.00  0.00    +0.000 A 
ATOM     28  N   UNL     1      43.439   5.779  12.171  0.00  0.00    +0.000 N 
ATOM     29  C   UNL     1      44.360   5.156  12.978  0.00  0.00    +0.000 A 
ATOM     30  O   UNL     1      44.072   4.159  13.633  0.00  0.00    +0.000 OA
ATOM     31  C   UNL     1      45.677   5.761  12.972  0.00  0.00    +0.000 A 
ATOM     32  H   UNL     1      42.515   5.376  12.152  0.00  0.00    +0.000 HD
ENDBRANCH  19  22
ENDBRANCH   1  18
BRANCH   1  33
ATOM     33  N   UNL     1      46.724   4.010  18.105  0.00  0.00    +0.000 NA
ATOM     34  H   UNL     1      47.215   3.614  18.910  0.00  0.00    +0.000 HD
ATOM     35  H   UNL     1      45.821   3.544  18.095  0.00  0.00    +0.000 HD
ENDBRANCH   1  33
TORSDOF 6
ENDMDL
MODEL 5
REMARK VINA RESULT:    -7.849      2.381      4.211
REMARK INTER + INTRA:         -10.914
REMARK INTER:                  -9.610
REMARK INTRA:                  -1.305
REMARK UNBOUND:                -0.542
REMARK  Name = 
REMARK  6 active torsions:
REMARK  status: ('A' for Active; 'I' for Inactive)
REMARK    1  A    between atoms: N_1  and  C_2
REMARK    2  A    between atoms: C_2  and  N_3
REMARK    3  A    between atoms: C_2  and  C_16
REMARK    4  A    between atoms: C_4  and  C_6
REMARK    5  A    between atoms: C_19  and  C_20
REMARK    6  A    between atoms: C_20  and  N_21
REMARK                            x       y       z     vdW  Elec       q    Type
REMARK                         _______ _______ _______ _____ _____    ______ ____
ROOT
ATOM      1  C   UNL     1      47.365   5.418  15.096  0.00  0.00    +0.000 C 
ENDROOT
BRANCH   1   2
ATOM      2  C   UNL     1      46.476   4.903  13.974  0.00  0.00    +0.000 A 
ATOM      3  C   UNL     1      45.592   5.760  13.304  0.00  0.00    +0.000 A 
ATOM      4  C   UNL     1      44.789   5.287  12.257  0.00  0.00    +0.000 A 
ATOM      5  C   UNL     1      44.843   3.942  11.861  0.00  0.00    +0.000 A 
ATOM      6  C   UNL     1      45.732   3.085  12.517  0.00  0.00    +0.000 A 
ATOM      7  C   UNL     1      46.529   3.556  13.564  0.00  0.00    +0.000 A 
BRANCH   5   8
ATOM      8  C   UNL     1      43.977   3.425  10.738  0.00  0.00    +0.000 C 
BRANCH   8   9
ATOM      9  N   UNL     1      44.767   2.763   9.724  0.00  0.00    +0.000 N 
ATOM     10  C   UNL     1      45.200   3.473   8.633  0.00  0.00    +0.000 C 
ATOM     11  O   UNL     1      44.872   4.637   8.432  0.00  0.00    +0.000 OA
ATOM     12  N   UNL     1      46.032   2.779   7.783  0.00  0.00    +0.000 N 
ATOM     13  C   UNL     1      46.359   1.368   7.796  0.00  0.00    +0.000 C 
ATOM     14  C   UNL     1      47.681   1.317   7.053  0.00  0.00    +0.000 C 
ATOM     15  C   UNL     1      47.517   2.383   5.976  0.00  0.00    +0.000 C 
ATOM     16  C   UNL     1      46.581   3.419   6.599  0.00  0.00    +0.000 C 
ATOM     17  H   UNL     1      45.412   2.075  10.071  0.00  0.00    +0.000 HD
ENDBRANCH   8   9
ENDBRANCH   5   8
ENDBRANCH   1   2
BRANCH   1  18
ATOM     18  N   UNL     1      48.402   6.247  14.553  0.00  0.00    +0.000 N 
ATOM     19  C   UNL     1      49.132   7.152  15.280  0.00  0.00    +0.000 C 
ATOM     20  O   UNL     1      49.043   7.248  16.500  0.00  0.00    +0.000 OA
ATOM     21  H   UNL     1      48.260   6.474  13.574  0.00  0.00    +0.000 HD
BRANCH  19  22
ATOM     22  C   UNL     1      50.135   7.909  14.518  0.00  0.00    +0.000 A 
ATOM     23  C   UNL     1      51.457   7.925  14.939  0.00  0.00    +0.000 A 
ATOM     24  S   UNL     1      52.499   8.766  13.880  0.00  0.00    +0.000 S 
ATOM     25  C   UNL     1      51.208   9.185  12.854  0.00  0.00    +0.000 A 
ATOM     26  N   UNL     1      51.412   9.932  11.736  0.00  0.00    +0.000 NA
ATOM     27  C   UNL     1      50.340  10.196  11.066  0.00  0.00    +0.000 A 
ATOM     28  N   UNL     1      49.079   9.779  11.412  0.00  0.00    +0.000 N 
ATOM     29  C   UNL     1      48.829   9.008  12.521  0.00  0.00    +0.000 A 
ATOM     30  O   UNL     1      47.697   8.625  12.797  0.00  0.00    +0.000 OA
ATOM     31  C   UNL     1      50.002   8.683  13.309  0.00  0.00    +0.000 A 
ATOM     32  H   UNL     1      48.281  10.018  10.843  0.00  0.00    +0.000 HD
ENDBRANCH  19  22
ENDBRANCH   1  18
BRANCH   1  33
ATOM     33  N   UNL     1      48.019   4.322  15.777  0.00  0.00    +0.000 NA
ATOM     34  H   UNL     1      47.512   4.189  16.656  0.00  0.00    +0.000 HD
ATOM     35  H   UNL     1      48.944   4.636  16.054  0.00  0.00    +0.000 HD
ENDBRANCH   1  33
TORSDOF 6
ENDMDL
MODEL 6
REMARK VINA RESULT:    -7.768      2.923      4.300
REMARK INTER + INTRA:         -10.808
REMARK INTER:                  -9.675
REMARK INTRA:                  -1.133
REMARK UNBOUND:                -0.542
REMARK  Name = 
REMARK  6 active torsions:
REMARK  status: ('A' for Active; 'I' for Inactive)
REMARK    1  A    between atoms: N_1  and  C_2
REMARK    2  A    between atoms: C_2  and  N_3
REMARK    3  A    between atoms: C_2  and  C_16
REMARK    4  A    between atoms: C_4  and  C_6
REMARK    5  A    between atoms: C_19  and  C_20
REMARK    6  A    between atoms: C_20  and  N_21
REMARK                            x       y       z     vdW  Elec       q    Type
REMARK                         _______ _______ _______ _____ _____    ______ ____
ROOT
ATOM      1  C   UNL     1      47.520   5.983  14.840  0.00  0.00    +0.000 C 
ENDROOT
BRANCH   1   2
ATOM      2  C   UNL     1      46.646   5.227  13.851  0.00  0.00    +0.000 A 
ATOM      3  C   UNL     1      46.823   3.853  13.637  0.00  0.00    +0.000 A 
ATOM      4  C   UNL     1      46.002   3.155  12.741  0.00  0.00    +0.000 A 
ATOM      5  C   UNL     1      44.990   3.815  12.028  0.00  0.00    +0.000 A 
ATOM      6  C   UNL     1      44.801   5.183  12.246  0.00  0.00    +0.000 A 
ATOM      7  C   UNL     1      45.622   5.880  13.137  0.00  0.00    +0.000 A 
BRANCH   5   8
ATOM      8  C   UNL     1      44.107   3.070  11.058  0.00  0.00    +0.000 C 
BRANCH   8   9
ATOM      9  N   UNL     1      44.874   2.505   9.970  0.00  0.00    +0.000 N 
ATOM     10  C   UNL     1      45.080   3.243   8.833  0.00  0.00    +0.000 C 
ATOM     11  O   UNL     1      44.564   4.340   8.656  0.00  0.00    +0.000 OA
ATOM     12  N   UNL     1      45.911   2.656   7.904  0.00  0.00    +0.000 N 
ATOM     13  C   UNL     1      46.443   1.308   7.896  0.00  0.00    +0.000 C 
ATOM     14  C   UNL     1      47.672   1.433   7.015  0.00  0.00    +0.000 C 
ATOM     15  C   UNL     1      47.240   2.436   5.951  0.00  0.00    +0.000 C 
ATOM     16  C   UNL     1      46.231   3.339   6.661  0.00  0.00    +0.000 C 
ATOM     17  H   UNL     1      45.647   1.928  10.253  0.00  0.00    +0.000 HD
ENDBRANCH   8   9
ENDBRANCH   5   8
ENDBRANCH   1   2
BRANCH   1  18
ATOM     18  N   UNL     1      48.606   6.613  14.146  0.00  0.00    +0.000 N 
ATOM     19  C   UNL     1      48.611   7.921  13.736  0.00  0.00    +0.000 C 
ATOM     20  O   UNL     1      47.721   8.712  14.034  0.00  0.00    +0.000 OA
ATOM     21  H   UNL     1      49.146   5.967  13.580  0.00  0.00    +0.000 HD
BRANCH  19  22
ATOM     22  C   UNL     1      49.822   8.355  13.028  0.00  0.00    +0.000 A 
ATOM     23  C   UNL     1      49.736   8.808  11.719  0.00  0.00    +0.000 A 
ATOM     24  S   UNL     1      51.221   9.368  11.092  0.00  0.00    +0.000 S 
ATOM     25  C   UNL     1      52.041   8.971  12.529  0.00  0.00    +0.000 A 
ATOM     26  N   UNL     1      53.378   9.186  12.660  0.00  0.00    +0.000 NA
ATOM     27  C   UNL     1      53.872   8.814  13.793  0.00  0.00    +0.000 A 
ATOM     28  N   UNL     1      53.149   8.243  14.811  0.00  0.00    +0.000 N 
ATOM     29  C   UNL     1      51.796   8.024  14.730  0.00  0.00    +0.000 A 
ATOM     30  O   UNL     1      51.165   7.537  15.663  0.00  0.00    +0.000 OA
ATOM     31  C   UNL     1      51.192   8.427  13.476  0.00  0.00    +0.000 A 
ATOM     32  H   UNL     1      53.596   7.976  15.675  0.00  0.00    +0.000 HD
ENDBRANCH  19  22
ENDBRANCH   1  18
BRANCH   1  33
ATOM     33  N   UNL     1      48.107   5.078  15.804  0.00  0.00    +0.000 NA
ATOM     34  H   UNL     1      48.655   5.658  16.444  0.00  0.00    +0.000 HD
ATOM     35  H   UNL     1      48.792   4.507  15.317  0.00  0.00    +0.000 HD
ENDBRANCH   1  33
TORSDOF 6
ENDMDL
MODEL 7
REMARK VINA RESULT:    -7.678      4.520      9.146
REMARK INTER + INTRA:         -10.688
REMARK INTER:                  -9.594
REMARK INTRA:                  -1.094
REMARK UNBOUND:                -0.542
REMARK  Name = 
REMARK  6 active torsions:
REMARK  status: ('A' for Active; 'I' for Inactive)
REMARK    1  A    between atoms: N_1  and  C_2
REMARK    2  A    between atoms: C_2  and  N_3
REMARK    3  A    between atoms: C_2  and  C_16
REMARK    4  A    between atoms: C_4  and  C_6
REMARK    5  A    between atoms: C_19  and  C_20
REMARK    6  A    between atoms: C_20  and  N_21
REMARK                            x       y       z     vdW  Elec       q    Type
REMARK                         _______ _______ _______ _____ _____    ______ ____
ROOT
ATOM      1  C   UNL     1      47.291   3.935  17.038  0.00  0.00    +0.000 C 
ENDROOT
BRANCH   1   2
ATOM      2  C   UNL     1      48.757   3.616  17.288  0.00  0.00    +0.000 A 
ATOM      3  C   UNL     1      49.617   4.572  17.846  0.00  0.00    +0.000 A 
ATOM      4  C   UNL     1      50.963   4.269  18.094  0.00  0.00    +0.000 A 
ATOM      5  C   UNL     1      51.485   3.004  17.783  0.00  0.00    +0.000 A 
ATOM      6  C   UNL     1      50.628   2.042  17.237  0.00  0.00    +0.000 A 
ATOM      7  C   UNL     1      49.288   2.347  16.986  0.00  0.00    +0.000 A 
BRANCH   5   8
ATOM      8  C   UNL     1      52.933   2.672  18.042  0.00  0.00    +0.000 C 
BRANCH   8   9
ATOM      9  N   UNL     1      53.115   1.261  18.298  0.00  0.00    +0.000 N 
ATOM     10  C   UNL     1      54.053   0.560  17.585  0.00  0.00    +0.000 C 
ATOM     11  O   UNL     1      54.694   1.060  16.668  0.00  0.00    +0.000 OA
ATOM     12  N   UNL     1      54.221  -0.750  17.979  0.00  0.00    +0.000 N 
ATOM     13  C   UNL     1      53.422  -1.518  18.913  0.00  0.00    +0.000 C 
ATOM     14  C   UNL     1      54.375  -2.613  19.355  0.00  0.00    +0.000 C 
ATOM     15  C   UNL     1      55.163  -2.924  18.088  0.00  0.00    +0.000 C 
ATOM     16  C   UNL     1      55.198  -1.601  17.322  0.00  0.00    +0.000 C 
ATOM     17  H   UNL     1      53.015   0.988  19.260  0.00  0.00    +0.000 HD
ENDBRANCH   8   9
ENDBRANCH   5   8
ENDBRANCH   1   2
BRANCH   1  18
ATOM     18  N   UNL     1      47.165   4.767  15.876  0.00  0.00    +0.000 N 
ATOM     19  C   UNL     1      47.215   4.308  14.585  0.00  0.00    +0.000 C 
ATOM     20  O   UNL     1      47.254   3.114  14.307  0.00  0.00    +0.000 OA
ATOM     21  H   UNL     1      47.497   5.713  16.025  0.00  0.00    +0.000 HD
BRANCH  19  22
ATOM     22  C   UNL     1      47.080   5.338  13.545  0.00  0.00    +0.000 A 
ATOM     23  C   UNL     1      46.091   5.221  12.579  0.00  0.00    +0.000 A 
ATOM     24  S   UNL     1      46.013   6.555  11.518  0.00  0.00    +0.000 S 
ATOM     25  C   UNL     1      47.337   7.307  12.279  0.00  0.00    +0.000 A 
ATOM     26  N   UNL     1      47.810   8.507  11.845  0.00  0.00    +0.000 NA
ATOM     27  C   UNL     1      48.832   8.947  12.499  0.00  0.00    +0.000 A 
ATOM     28  N   UNL     1      49.428   8.295  13.549  0.00  0.00    +0.000 N 
ATOM     29  C   UNL     1      48.974   7.092  14.032  0.00  0.00    +0.000 A 
ATOM     30  O   UNL     1      49.506   6.540  14.990  0.00  0.00    +0.000 OA
ATOM     31  C   UNL     1      47.824   6.555  13.332  0.00  0.00    +0.000 A 
ATOM     32  H   UNL     1      50.226   8.695  14.020  0.00  0.00    +0.000 HD
ENDBRANCH  19  22
ENDBRANCH   1  18
BRANCH   1  33
ATOM     33  N   UNL     1      46.731   4.677  18.147  0.00  0.00    +0.000 NA
ATOM     34  H   UNL     1      45.826   5.031  17.825  0.00  0.00    +0.000 HD
ATOM     35  H   UNL     1      47.301   5.505  18.287  0.00  0.00    +0.000 HD
ENDBRANCH   1  33
TORSDOF 6
ENDMDL
MODEL 8
REMARK VINA RESULT:    -7.599      3.801      8.812
REMARK INTER + INTRA:         -10.584
REMARK INTER:                  -9.676
REMARK INTRA:                  -0.908
REMARK UNBOUND:                -0.542
REMARK  Name = 
REMARK  6 active torsions:
REMARK  status: ('A' for Active; 'I' for Inactive)
REMARK    1  A    between atoms: N_1  and  C_2
REMARK    2  A    between atoms: C_2  and  N_3
REMARK    3  A    between atoms: C_2  and  C_16
REMARK    4  A    between atoms: C_4  and  C_6
REMARK    5  A    between atoms: C_19  and  C_20
REMARK    6  A    between atoms: C_20  and  N_21
REMARK                            x       y       z     vdW  Elec       q    Type
REMARK                         _______ _______ _______ _____ _____    ______ ____
ROOT
ATOM      1  C   UNL     1      47.483   3.406  16.501  0.00  0.00    +0.000 C 
ENDROOT
BRANCH   1   2
ATOM      2  C   UNL     1      48.802   3.984  16.991  0.00  0.00    +0.000 A 
ATOM      3  C   UNL     1      49.833   3.146  17.438  0.00  0.00    +0.000 A 
ATOM      4  C   UNL     1      51.055   3.680  17.869  0.00  0.00    +0.000 A 
ATOM      5  C   UNL     1      51.273   5.066  17.872  0.00  0.00    +0.000 A 
ATOM      6  C   UNL     1      50.253   5.906  17.415  0.00  0.00    +0.000 A 
ATOM      7  C   UNL     1      49.033   5.373  16.990  0.00  0.00    +0.000 A 
BRANCH   5   8
ATOM      8  C   UNL     1      52.584   5.648  18.340  0.00  0.00    +0.000 C 
BRANCH   8   9
ATOM      9  N   UNL     1      53.212   6.437  17.303  0.00  0.00    +0.000 N 
ATOM     10  C   UNL     1      54.155   5.861  16.491  0.00  0.00    +0.000 C 
ATOM     11  O   UNL     1      54.560   4.717  16.661  0.00  0.00    +0.000 OA
ATOM     12  N   UNL     1      54.611   6.666  15.471  0.00  0.00    +0.000 N 
ATOM     13  C   UNL     1      54.361   8.077  15.257  0.00  0.00    +0.000 C 
ATOM     14  C   UNL     1      54.611   8.245  13.770  0.00  0.00    +0.000 C 
ATOM     15  C   UNL     1      55.774   7.296  13.501  0.00  0.00    +0.000 C 
ATOM     16  C   UNL     1      55.597   6.173  14.523  0.00  0.00    +0.000 C 
ATOM     17  H   UNL     1      52.608   7.103  16.853  0.00  0.00    +0.000 HD
ENDBRANCH   8   9
ENDBRANCH   5   8
ENDBRANCH   1   2
BRANCH   1  18
ATOM     18  N   UNL     1      46.857   4.323  15.592  0.00  0.00    +0.000 N 
ATOM     19  C   UNL     1      46.793   4.147  14.234  0.00  0.00    +0.000 C 
ATOM     20  O   UNL     1      47.167   3.117  13.681  0.00  0.00    +0.000 OA
ATOM     21  H   UNL     1      46.881   5.284  15.916  0.00  0.00    +0.000 HD
BRANCH  19  22
ATOM     22  C   UNL     1      46.119   5.219  13.491  0.00  0.00    +0.000 A 
ATOM     23  C   UNL     1      46.743   6.447  13.324  0.00  0.00    +0.000 A 
ATOM     24  S   UNL     1      45.861   7.534  12.349  0.00  0.00    +0.000 S 
ATOM     25  C   UNL     1      44.588   6.421  12.163  0.00  0.00    +0.000 A 
ATOM     26  N   UNL     1      43.482   6.732  11.434  0.00  0.00    +0.000 NA
ATOM     27  C   UNL     1      42.586   5.803  11.400  0.00  0.00    +0.000 A 
ATOM     28  N   UNL     1      42.694   4.588  12.030  0.00  0.00    +0.000 N 
ATOM     29  C   UNL     1      43.799   4.225  12.760  0.00  0.00    +0.000 A 
ATOM     30  O   UNL     1      43.885   3.123  13.293  0.00  0.00    +0.000 OA
ATOM     31  C   UNL     1      44.837   5.235  12.829  0.00  0.00    +0.000 A 
ATOM     32  H   UNL     1      41.957   3.903  11.961  0.00  0.00    +0.000 HD
ENDBRANCH  19  22
ENDBRANCH   1  18
BRANCH   1  33
ATOM     33  N   UNL     1      46.564   3.217  17.604  0.00  0.00    +0.000 NA
ATOM     34  H   UNL     1      47.113   2.814  18.367  0.00  0.00    +0.000 HD
ATOM     35  H   UNL     1      45.908   2.488  17.341  0.00  0.00    +0.000 HD
ENDBRANCH   1  33
TORSDOF 6
ENDMDL
MODEL 9
REMARK VINA RESULT:    -7.511      3.764      5.001
REMARK INTER + INTRA:         -10.469
REMARK INTER:                  -9.497
REMARK INTRA:                  -0.972
REMARK UNBOUND:                -0.542
REMARK  Name = 
REMARK  6 active torsions:
REMARK  status: ('A' for Active; 'I' for Inactive)
REMARK    1  A    between atoms: N_1  and  C_2
REMARK    2  A    between atoms: C_2  and  N_3
REMARK    3  A    between atoms: C_2  and  C_16
REMARK    4  A    between atoms: C_4  and  C_6
REMARK    5  A    between atoms: C_19  and  C_20
REMARK    6  A    between atoms: C_20  and  N_21
REMARK                            x       y       z     vdW  Elec       q    Type
REMARK                         _______ _______ _______ _____ _____    ______ ____
ROOT
ATOM      1  C   UNL     1      46.402   8.607  12.761  0.00  0.00    +0.000 C 
ENDROOT
BRANCH   1   2
ATOM      2  C   UNL     1      45.821   7.271  12.324  0.00  0.00    +0.000 A 
ATOM      3  C   UNL     1      44.548   7.196  11.741  0.00  0.00    +0.000 A 
ATOM      4  C   UNL     1      44.024   5.965  11.320  0.00  0.00    +0.000 A 
ATOM      5  C   UNL     1      44.755   4.779  11.480  0.00  0.00    +0.000 A 
ATOM      6  C   UNL     1      46.030   4.850  12.050  0.00  0.00    +0.000 A 
ATOM      7  C   UNL     1      46.551   6.076  12.473  0.00  0.00    +0.000 A 
BRANCH   5   8
ATOM      8  C   UNL     1      44.194   3.451  11.035  0.00  0.00    +0.000 C 
BRANCH   8   9
ATOM      9  N   UNL     1      45.006   2.856   9.997  0.00  0.00    +0.000 N 
ATOM     10  C   UNL     1      45.021   3.415   8.745  0.00  0.00    +0.000 C 
ATOM     11  O   UNL     1      44.302   4.358   8.436  0.00  0.00    +0.000 OA
ATOM     12  N   UNL     1      45.907   2.837   7.863  0.00  0.00    +0.000 N 
ATOM     13  C   UNL     1      46.681   1.624   8.029  0.00  0.00    +0.000 C 
ATOM     14  C   UNL     1      47.826   1.813   7.051  0.00  0.00    +0.000 C 
ATOM     15  C   UNL     1      47.168   2.529   5.877  0.00  0.00    +0.000 C 
ATOM     16  C   UNL     1      46.040   3.346   6.507  0.00  0.00    +0.000 C 
ATOM     17  H   UNL     1      45.885   2.481  10.309  0.00  0.00    +0.000 HD
ENDBRANCH   8   9
ENDBRANCH   5   8
ENDBRANCH   1   2
BRANCH   1  18
ATOM     18  N   UNL     1      47.615   8.869  12.041  0.00  0.00    +0.000 N 
ATOM     19  C   UNL     1      48.369  10.006  12.179  0.00  0.00    +0.000 C 
ATOM     20  O   UNL     1      48.132  10.859  13.029  0.00  0.00    +0.000 OA
ATOM     21  H   UNL     1      47.641   8.426  11.129  0.00  0.00    +0.000 HD
BRANCH  19  22
ATOM     22  C   UNL     1      49.567  10.074  11.331  0.00  0.00    +0.000 A 
ATOM     23  C   UNL     1      49.878  11.251  10.665  0.00  0.00    +0.000 A 
ATOM     24  S   UNL     1      51.355  11.181   9.813  0.00  0.00    +0.000 S 
ATOM     25  C   UNL     1      51.600   9.557  10.260  0.00  0.00    +0.000 A 
ATOM     26  N   UNL     1      52.699   8.871   9.844  0.00  0.00    +0.000 NA
ATOM     27  C   UNL     1      52.742   7.642  10.237  0.00  0.00    +0.000 A 
ATOM     28  N   UNL     1      51.784   7.034  11.010  0.00  0.00    +0.000 N 
ATOM     29  C   UNL     1      50.669   7.693  11.467  0.00  0.00    +0.000 A 
ATOM     30  O   UNL     1      49.839   7.137  12.179  0.00  0.00    +0.000 OA
ATOM     31  C   UNL     1      50.574   9.080  11.054  0.00  0.00    +0.000 A 
ATOM     32  H   UNL     1      51.878   6.069  11.285  0.00  0.00    +0.000 HD
ENDBRANCH  19  22
ENDBRANCH   1  18
BRANCH   1  33
ATOM     33  N   UNL     1      46.746   8.582  14.166  0.00  0.00    +0.000 NA
ATOM     34  H   UNL     1      47.362   9.383  14.323  0.00  0.00    +0.000 HD
ATOM     35  H   UNL     1      47.330   7.767  14.329  0.00  0.00    +0.000 HD
ENDBRANCH   1  33
TORSDOF 6
ENDMDL
