MODEL 1
REMARK VINA RESULT:    -8.326      0.000      0.000
REMARK INTER + INTRA:         -11.534
REMARK INTER:                 -10.759
REMARK INTRA:                  -0.775
REMARK UNBOUND:                -0.775
REMARK  Name = 
REMARK  7 active torsions:
REMARK  status: ('A' for Active; 'I' for Inactive)
REMARK    1  A    between atoms: C_1  and  C_2
REMARK    2  A    between atoms: C_2  and  N_3
REMARK    3  A    between atoms: C_2  and  C_17
REMARK    4  A    between atoms: C_4  and  C_6
REMARK    5  A    between atoms: N_12  and  C_13
REMARK    6  A    between atoms: C_20  and  O_21
REMARK    7  A    between atoms: O_21  and  C_22
REMARK                            x       y       z     vdW  Elec       q    Type
REMARK                         _______ _______ _______ _____ _____    ______ ____
ROOT
ATOM      1  C   UNL     1      45.657   8.108  12.958  0.00  0.00    +0.000 C 
ATOM      2  C   UNL     1      46.540   6.879  12.750  0.00  0.00    +0.000 C 
ENDROOT
BRANCH   2   3
ATOM      3  C   UNL     1      45.949   5.932  11.721  0.00  0.00    +0.000 A 
ATOM      4  C   UNL     1      46.099   6.221  10.361  0.00  0.00    +0.000 A 
ATOM      5  C   UNL     1      45.631   5.336   9.390  0.00  0.00    +0.000 A 
ATOM      6  C   UNL     1      45.055   4.121   9.763  0.00  0.00    +0.000 A 
ATOM      7  C   UNL     1      44.852   3.841  11.113  0.00  0.00    +0.000 A 
ATOM      8  C   UNL     1      45.297   4.739  12.088  0.00  0.00    +0.000 A 
BRANCH   6   9
ATOM      9  O   UNL     1      44.612   3.183   8.856  0.00  0.00    +0.000 OA
BRANCH   9  10
ATOM     10  C   UNL     1      45.563   2.558   8.054  0.00  0.00    +0.000 A 
ATOM     11  C   UNL     1      45.975   3.252   6.927  0.00  0.00    +0.000 A 
ATOM     12  C   UNL     1      46.955   2.676   6.121  0.00  0.00    +0.000 A 
ATOM     13  C   UNL     1      47.478   1.433   6.464  0.00  0.00    +0.000 A 
ATOM     14  C   UNL     1      46.983   0.802   7.593  0.00  0.00    +0.000 A 
ATOM     15  N   UNL     1      46.026   1.329   8.382  0.00  0.00    +0.000 NA
ENDBRANCH   9  10
ENDBRANCH   6   9
ENDBRANCH   2   3
BRANCH   2  16
ATOM     16  N   UNL     1      46.743   6.163  13.992  0.00  0.00    +0.000 N 
ATOM     17  C   UNL     1      47.969   5.927  14.549  0.00  0.00    +0.000 C 
ATOM     18  O   UNL     1      49.023   6.194  13.976  0.00  0.00    +0.000 OA
ATOM     19  H   UNL     1      45.919   6.033  14.565  0.00  0.00    +0.000 HD
BRANCH  17  20
ATOM     20  C   UNL     1      47.952   5.285  15.870  0.00  0.00    +0.000 A 
ATOM     21  C   UNL     1      47.503   3.977  16.004  0.00  0.00    +0.000 A 
ATOM     22  S   UNL     1      47.571   3.397  17.607  0.00  0.00    +0.000 S 
ATOM     23  C   UNL     1      48.239   4.858  18.168  0.00  0.00    +0.000 A 
ATOM     24  N   UNL     1      48.581   5.015  19.474  0.00  0.00    +0.000 NA
ATOM     25  C   UNL     1      49.101   6.164  19.757  0.00  0.00    +0.000 A 
ATOM     26  N   UNL     1      49.304   7.194  18.864  0.00  0.00    +0.000 N 
ATOM     27  C   UNL     1      49.876   8.451  19.296  0.00  0.00    +0.000 C 
ATOM     28  C   UNL     1      48.929   7.081  17.531  0.00  0.00    +0.000 A 
ATOM     29  O   UNL     1      49.033   8.014  16.736  0.00  0.00    +0.000 OA
ATOM     30  C   UNL     1      48.375   5.790  17.158  0.00  0.00    +0.000 A 
ENDBRANCH  17  20
ENDBRANCH   2  16
TORSDOF 5
ENDMDL
MODEL 2
REMARK VINA RESULT:    -8.123      3.082      3.872
REMARK INTER + INTRA:         -11.272
REMARK INTER:                 -10.102
REMARK INTRA:                  -1.170
REMARK UNBOUND:                -0.775
REMARK  Name = 
REMARK  7 active torsions:
REMARK  status: ('A' for Active; 'I' for Inactive)
REMARK    1  A    between atoms: C_1  and  C_2
REMARK    2  A    between atoms: C_2  and  N_3
REMARK    3  A    between atoms: C_2  and  C_17
REMARK    4  A    between atoms: C_4  and  C_6
REMARK    5  A    between atoms: N_12  and  C_13
REMARK    6  A    between atoms: C_20  and  O_21
REMARK    7  A    between atoms: O_21  and  C_22
REMARK                            x       y       z     vdW  Elec       q    Type
REMARK                         _______ _______ _______ _____ _____    ______ ____
ROOT
ATOM      1  C   UNL     1      46.724   4.664  14.710  0.00  0.00    +0.000 C 
ATOM      2  C   UNL     1      46.356   5.689  13.637  0.00  0.00    +0.000 C 
ENDROOT
BRANCH   2   3
ATOM      3  C   UNL     1      45.789   5.023  12.397  0.00  0.00    +0.000 A 
ATOM      4  C   UNL     1      45.751   5.737  11.195  0.00  0.00    +0.000 A 
ATOM      5  C   UNL     1      45.302   5.130  10.022  0.00  0.00    +0.000 A 
ATOM      6  C   UNL     1      44.937   3.783  10.019  0.00  0.00    +0.000 A 
ATOM      7  C   UNL     1      44.920   3.073  11.219  0.00  0.00    +0.000 A 
ATOM      8  C   UNL     1      45.345   3.686  12.401  0.00  0.00    +0.000 A 
BRANCH   6   9
ATOM      9  O   UNL     1      44.528   3.113   8.888  0.00  0.00    +0.000 OA
BRANCH   9  10
ATOM     10  C   UNL     1      45.508   2.534   8.087  0.00  0.00    +0.000 A 
ATOM     11  C   UNL     1      45.964   3.293   7.022  0.00  0.00    +0.000 A 
ATOM     12  C   UNL     1      46.974   2.764   6.220  0.00  0.00    +0.000 A 
ATOM     13  C   UNL     1      47.482   1.500   6.508  0.00  0.00    +0.000 A 
ATOM     14  C   UNL     1      46.944   0.804   7.576  0.00  0.00    +0.000 A 
ATOM     15  N   UNL     1      45.958   1.286   8.359  0.00  0.00    +0.000 NA
ENDBRANCH   9  10
ENDBRANCH   6   9
ENDBRANCH   2   3
BRANCH   2  16
ATOM     16  N   UNL     1      47.503   6.490  13.263  0.00  0.00    +0.000 N 
ATOM     17  C   UNL     1      47.542   7.855  13.337  0.00  0.00    +0.000 C 
ATOM     18  O   UNL     1      46.556   8.534  13.611  0.00  0.00    +0.000 OA
ATOM     19  H   UNL     1      48.375   5.987  13.155  0.00  0.00    +0.000 HD
BRANCH  17  20
ATOM     20  C   UNL     1      48.839   8.470  13.022  0.00  0.00    +0.000 A 
ATOM     21  C   UNL     1      48.939   9.395  11.991  0.00  0.00    +0.000 A 
ATOM     22  S   UNL     1      50.517  10.012  11.784  0.00  0.00    +0.000 S 
ATOM     23  C   UNL     1      51.109   9.093  13.089  0.00  0.00    +0.000 A 
ATOM     24  N   UNL     1      52.407   9.188  13.478  0.00  0.00    +0.000 NA
ATOM     25  C   UNL     1      52.715   8.456  14.498  0.00  0.00    +0.000 A 
ATOM     26  N   UNL     1      51.854   7.615  15.170  0.00  0.00    +0.000 N 
ATOM     27  C   UNL     1      52.313   6.821  16.290  0.00  0.00    +0.000 C 
ATOM     28  C   UNL     1      50.531   7.464  14.773  0.00  0.00    +0.000 A 
ATOM     29  O   UNL     1      49.768   6.665  15.312  0.00  0.00    +0.000 OA
ATOM     30  C   UNL     1      50.129   8.300  13.653  0.00  0.00    +0.000 A 
ENDBRANCH  17  20
ENDBRANCH   2  16
TORSDOF 5
ENDMDL
MODEL 3
REMARK VINA RESULT:    -7.902      1.617      1.955
REMARK INTER + INTRA:         -10.986
REMARK INTER:                  -9.967
REMARK INTRA:                  -1.019
REMARK UNBOUND:                -0.775
REMARK  Name = 
REMARK  7 active torsions:
REMARK  status: ('A' for Active; 'I' for Inactive)
REMARK    1  A    between atoms: C_1  and  C_2
REMARK    2  A    between atoms: C_2  and  N_3
REMARK    3  A    between atoms: C_2  and  C_17
REMARK    4  A    between atoms: C_4  and  C_6
REMARK    5  A    between atoms: N_12  and  C_13
REMARK    6  A    between atoms: C_20  and  O_21
REMARK    7  A    between atoms: O_21  and  C_22
REMARK                            x       y       z     vdW  Elec       q    Type
REMARK                         _______ _______ _______ _____ _____    ______ ____
ROOT
ATOM      1  C   UNL     1      47.585   8.714  13.902  0.00  0.00    +0.000 C 
ATOM      2  C   UNL     1      47.904   7.220  13.891  0.00  0.00    +0.000 C 
ENDROOT
BRANCH   2   3
ATOM      3  C   UNL     1      46.929   6.445  13.023  0.00  0.00    +0.000 A 
ATOM      4  C   UNL     1      46.497   7.003  11.817  0.00  0.00    +0.000 A 
ATOM      5  C   UNL     1      45.658   6.287  10.963  0.00  0.00    +0.000 A 
ATOM      6  C   UNL     1      45.283   4.979  11.275  0.00  0.00    +0.000 A 
ATOM      7  C   UNL     1      45.664   4.428  12.497  0.00  0.00    +0.000 A 
ATOM      8  C   UNL     1      46.483   5.154  13.367  0.00  0.00    +0.000 A 
BRANCH   6   9
ATOM      9  O   UNL     1      44.494   4.202  10.456  0.00  0.00    +0.000 OA
BRANCH   9  10
ATOM     10  C   UNL     1      45.117   3.515   9.418  0.00  0.00    +0.000 A 
ATOM     11  C   UNL     1      45.618   4.285   8.380  0.00  0.00    +0.000 A 
ATOM     12  C   UNL     1      46.283   3.636   7.341  0.00  0.00    +0.000 A 
ATOM     13  C   UNL     1      46.417   2.251   7.375  0.00  0.00    +0.000 A 
ATOM     14  C   UNL     1      45.858   1.564   8.439  0.00  0.00    +0.000 A 
ATOM     15  N   UNL     1      45.197   2.164   9.449  0.00  0.00    +0.000 NA
ENDBRANCH   9  10
ENDBRANCH   6   9
ENDBRANCH   2   3
BRANCH   2  16
ATOM     16  N   UNL     1      47.887   6.671  15.231  0.00  0.00    +0.000 N 
ATOM     17  C   UNL     1      49.008   6.425  15.973  0.00  0.00    +0.000 C 
ATOM     18  O   UNL     1      50.144   6.532  15.518  0.00  0.00    +0.000 OA
ATOM     19  H   UNL     1      46.990   6.683  15.700  0.00  0.00    +0.000 HD
BRANCH  17  20
ATOM     20  C   UNL     1      48.770   5.977  17.352  0.00  0.00    +0.000 A 
ATOM     21  C   UNL     1      49.059   4.669  17.719  0.00  0.00    +0.000 A 
ATOM     22  S   UNL     1      48.732   4.337  19.361  0.00  0.00    +0.000 S 
ATOM     23  C   UNL     1      48.233   5.939  19.644  0.00  0.00    +0.000 A 
ATOM     24  N   UNL     1      47.854   6.343  20.885  0.00  0.00    +0.000 NA
ATOM     25  C   UNL     1      47.523   7.590  20.964  0.00  0.00    +0.000 A 
ATOM     26  N   UNL     1      47.517   8.486  19.916  0.00  0.00    +0.000 N 
ATOM     27  C   UNL     1      47.107   9.859  20.113  0.00  0.00    +0.000 C 
ATOM     28  C   UNL     1      47.861   8.095  18.627  0.00  0.00    +0.000 A 
ATOM     29  O   UNL     1      47.790   8.859  17.666  0.00  0.00    +0.000 OA
ATOM     30  C   UNL     1      48.277   6.708  18.499  0.00  0.00    +0.000 A 
ENDBRANCH  17  20
ENDBRANCH   2  16
TORSDOF 5
ENDMDL
MODEL 4
REMARK VINA RESULT:    -7.498      1.815      2.776
REMARK INTER + INTRA:         -10.464
REMARK INTER:                  -9.209
REMARK INTRA:                  -1.256
REMARK UNBOUND:                -0.775
REMARK  Name = 
REMARK  7 active torsions:
REMARK  status: ('A' for Active; 'I' for Inactive)
REMARK    1  A    between atoms: C_1  and  C_2
REMARK    2  A    between atoms: C_2  and  N_3
REMARK    3  A    between atoms: C_2  and  C_17
REMARK    4  A    between atoms: C_4  and  C_6
REMARK    5  A    between atoms: N_12  and  C_13
REMARK    6  A    between atoms: C_20  and  O_21
REMARK    7  A    between atoms: O_21  and  C_22
REMARK                            x       y       z     vdW  Elec       q    Type
REMARK                         _______ _______ _______ _____ _____    ______ ____
ROOT
ATOM      1  C   UNL     1      47.070   9.681  13.199  0.00  0.00    +0.000 C 
ATOM      2  C   UNL     1      47.630   8.262  13.294  0.00  0.00    +0.000 C 
ENDROOT
BRANCH   2   3
ATOM      3  C   UNL     1      46.676   7.242  12.698  0.00  0.00    +0.000 A 
ATOM      4  C   UNL     1      45.580   7.687  11.952  0.00  0.00    +0.000 A 
ATOM      5  C   UNL     1      44.727   6.775  11.331  0.00  0.00    +0.000 A 
ATOM      6  C   UNL     1      44.987   5.406  11.399  0.00  0.00    +0.000 A 
ATOM      7  C   UNL     1      46.045   4.944  12.180  0.00  0.00    +0.000 A 
ATOM      8  C   UNL     1      46.887   5.855  12.825  0.00  0.00    +0.000 A 
BRANCH   6   9
ATOM      9  O   UNL     1      44.210   4.456  10.773  0.00  0.00    +0.000 OA
BRANCH   9  10
ATOM     10  C   UNL     1      44.789   3.721   9.742  0.00  0.00    +0.000 A 
ATOM     11  C   UNL     1      45.372   4.448   8.716  0.00  0.00    +0.000 A 
ATOM     12  C   UNL     1      45.997   3.748   7.686  0.00  0.00    +0.000 A 
ATOM     13  C   UNL     1      46.012   2.356   7.716  0.00  0.00    +0.000 A 
ATOM     14  C   UNL     1      45.378   1.717   8.768  0.00  0.00    +0.000 A 
ATOM     15  N   UNL     1      44.754   2.368   9.769  0.00  0.00    +0.000 NA
ENDBRANCH   9  10
ENDBRANCH   6   9
ENDBRANCH   2   3
BRANCH   2  16
ATOM     16  N   UNL     1      47.912   7.901  14.668  0.00  0.00    +0.000 N 
ATOM     17  C   UNL     1      49.171   7.814  15.194  0.00  0.00    +0.000 C 
ATOM     18  O   UNL     1      50.186   7.912  14.511  0.00  0.00    +0.000 OA
ATOM     19  H   UNL     1      47.124   7.933  15.303  0.00  0.00    +0.000 HD
BRANCH  17  20
ATOM     20  C   UNL     1      49.236   7.547  16.638  0.00  0.00    +0.000 A 
ATOM     21  C   UNL     1      49.668   8.537  17.511  0.00  0.00    +0.000 A 
ATOM     22  S   UNL     1      49.662   8.049  19.146  0.00  0.00    +0.000 S 
ATOM     23  C   UNL     1      49.045   6.514  18.746  0.00  0.00    +0.000 A 
ATOM     24  N   UNL     1      48.765   5.600  19.711  0.00  0.00    +0.000 NA
ATOM     25  C   UNL     1      48.279   4.487  19.269  0.00  0.00    +0.000 A 
ATOM     26  N   UNL     1      48.053   4.181  17.944  0.00  0.00    +0.000 N 
ATOM     27  C   UNL     1      47.524   2.890  17.559  0.00  0.00    +0.000 C 
ATOM     28  C   UNL     1      48.366   5.077  16.930  0.00  0.00    +0.000 A 
ATOM     29  O   UNL     1      48.243   4.795  15.740  0.00  0.00    +0.000 OA
ATOM     30  C   UNL     1      48.880   6.359  17.384  0.00  0.00    +0.000 A 
ENDBRANCH  17  20
ENDBRANCH   2  16
TORSDOF 5
ENDMDL
MODEL 5
REMARK VINA RESULT:    -7.429      3.156      4.882
REMARK INTER + INTRA:         -10.376
REMARK INTER:                  -9.661
REMARK INTRA:                  -0.714
REMARK UNBOUND:                -0.775
REMARK  Name = 
REMARK  7 active torsions:
REMARK  status: ('A' for Active; 'I' for Inactive)
REMARK    1  A    between atoms: C_1  and  C_2
REMARK    2  A    between atoms: C_2  and  N_3
REMARK    3  A    between atoms: C_2  and  C_17
REMARK    4  A    between atoms: C_4  and  C_6
REMARK    5  A    between atoms: N_12  and  C_13
REMARK    6  A    between atoms: C_20  and  O_21
REMARK    7  A    between atoms: O_21  and  C_22
REMARK                            x       y       z     vdW  Elec       q    Type
REMARK                         _______ _______ _______ _____ _____    ______ ____
ROOT
ATOM      1  C   UNL     1      47.179   4.623  14.701  0.00  0.00    +0.000 C 
ATOM      2  C   UNL     1      46.500   5.655  13.801  0.00  0.00    +0.000 C 
ENDROOT
BRANCH   2   3
ATOM      3  C   UNL     1      45.878   5.008  12.577  0.00  0.00    +0.000 A 
ATOM      4  C   UNL     1      45.796   5.737  11.387  0.00  0.00    +0.000 A 
ATOM      5  C   UNL     1      45.296   5.148  10.226  0.00  0.00    +0.000 A 
ATOM      6  C   UNL     1      44.923   3.803  10.221  0.00  0.00    +0.000 A 
ATOM      7  C   UNL     1      44.950   3.077  11.411  0.00  0.00    +0.000 A 
ATOM      8  C   UNL     1      45.426   3.674  12.583  0.00  0.00    +0.000 A 
BRANCH   6   9
ATOM      9  O   UNL     1      44.463   3.149   9.100  0.00  0.00    +0.000 OA
BRANCH   9  10
ATOM     10  C   UNL     1      45.407   2.589   8.243  0.00  0.00    +0.000 A 
ATOM     11  C   UNL     1      45.814   3.371   7.174  0.00  0.00    +0.000 A 
ATOM     12  C   UNL     1      46.787   2.861   6.318  0.00  0.00    +0.000 A 
ATOM     13  C   UNL     1      47.309   1.593   6.556  0.00  0.00    +0.000 A 
ATOM     14  C   UNL     1      46.820   0.873   7.633  0.00  0.00    +0.000 A 
ATOM     15  N   UNL     1      45.870   1.336   8.469  0.00  0.00    +0.000 NA
ENDBRANCH   9  10
ENDBRANCH   6   9
ENDBRANCH   2   3
BRANCH   2  16
ATOM     16  N   UNL     1      47.436   6.675  13.376  0.00  0.00    +0.000 N 
ATOM     17  C   UNL     1      48.310   7.310  14.213  0.00  0.00    +0.000 C 
ATOM     18  O   UNL     1      48.293   7.160  15.431  0.00  0.00    +0.000 OA
ATOM     19  H   UNL     1      47.583   6.748  12.377  0.00  0.00    +0.000 HD
BRANCH  17  20
ATOM     20  C   UNL     1      49.254   8.230  13.562  0.00  0.00    +0.000 A 
ATOM     21  C   UNL     1      50.622   8.068  13.744  0.00  0.00    +0.000 A 
ATOM     22  S   UNL     1      51.559   9.217  12.900  0.00  0.00    +0.000 S 
ATOM     23  C   UNL     1      50.172   9.944  12.233  0.00  0.00    +0.000 A 
ATOM     24  N   UNL     1      50.275  10.985  11.367  0.00  0.00    +0.000 NA
ATOM     25  C   UNL     1      49.146  11.424  10.918  0.00  0.00    +0.000 A 
ATOM     26  N   UNL     1      47.903  10.933  11.260  0.00  0.00    +0.000 N 
ATOM     27  C   UNL     1      46.697  11.516  10.711  0.00  0.00    +0.000 C 
ATOM     28  C   UNL     1      47.760   9.895  12.173  0.00  0.00    +0.000 A 
ATOM     29  O   UNL     1      46.659   9.494  12.546  0.00  0.00    +0.000 OA
ATOM     30  C   UNL     1      49.008   9.345  12.674  0.00  0.00    +0.000 A 
ENDBRANCH  17  20
ENDBRANCH   2  16
TORSDOF 5
ENDMDL
MODEL 6
REMARK VINA RESULT:    -7.085      2.942      4.330
REMARK INTER + INTRA:          -9.931
REMARK INTER:                  -9.404
REMARK INTRA:                  -0.527
REMARK UNBOUND:                -0.775
REMARK  Name = 
REMARK  7 active torsions:
REMARK  status: ('A' for Active; 'I' for Inactive)
REMARK    1  A    between atoms: C_1  and  C_2
REMARK    2  A    between atoms: C_2  and  N_3
REMARK    3  A    between atoms: C_2  and  C_17
REMARK    4  A    between atoms: C_4  and  C_6
REMARK    5  A    between atoms: N_12  and  C_13
REMARK    6  A    between atoms: C_20  and  O_21
REMARK    7  A    between atoms: O_21  and  C_22
REMARK                            x       y       z     vdW  Elec       q    Type
REMARK                         _______ _______ _______ _____ _____    ______ ____
ROOT
ATOM      1  C   UNL     1      47.225   3.938  14.640  0.00  0.00    +0.000 C 
ATOM      2  C   UNL     1      46.326   5.049  14.099  0.00  0.00    +0.000 C 
ENDROOT
BRANCH   2   3
ATOM      3  C   UNL     1      45.810   4.727  12.708  0.00  0.00    +0.000 A 
ATOM      4  C   UNL     1      46.013   5.646  11.675  0.00  0.00    +0.000 A 
ATOM      5  C   UNL     1      45.615   5.348  10.371  0.00  0.00    +0.000 A 
ATOM      6  C   UNL     1      45.060   4.104  10.069  0.00  0.00    +0.000 A 
ATOM      7  C   UNL     1      44.804   3.198  11.097  0.00  0.00    +0.000 A 
ATOM      8  C   UNL     1      45.178   3.504  12.409  0.00  0.00    +0.000 A 
BRANCH   6   9
ATOM      9  O   UNL     1      44.687   3.731   8.797  0.00  0.00    +0.000 OA
BRANCH   9  10
ATOM     10  C   UNL     1      45.586   2.971   8.055  0.00  0.00    +0.000 A 
ATOM     11  C   UNL     1      46.161   3.591   6.957  0.00  0.00    +0.000 A 
ATOM     12  C   UNL     1      47.097   2.876   6.212  0.00  0.00    +0.000 A 
ATOM     13  C   UNL     1      47.416   1.574   6.585  0.00  0.00    +0.000 A 
ATOM     14  C   UNL     1      46.768   1.027   7.680  0.00  0.00    +0.000 A 
ATOM     15  N   UNL     1      45.849   1.691   8.410  0.00  0.00    +0.000 NA
ENDBRANCH   9  10
ENDBRANCH   6   9
ENDBRANCH   2   3
BRANCH   2  16
ATOM     16  N   UNL     1      47.024   6.318  14.064  0.00  0.00    +0.000 N 
ATOM     17  C   UNL     1      47.962   6.702  14.981  0.00  0.00    +0.000 C 
ATOM     18  O   UNL     1      48.207   6.052  15.994  0.00  0.00    +0.000 OA
ATOM     19  H   UNL     1      46.958   6.832  13.195  0.00  0.00    +0.000 HD
BRANCH  17  20
ATOM     20  C   UNL     1      48.636   7.977  14.701  0.00  0.00    +0.000 A 
ATOM     21  C   UNL     1      48.497   9.046  15.577  0.00  0.00    +0.000 A 
ATOM     22  S   UNL     1      49.364  10.435  15.096  0.00  0.00    +0.000 S 
ATOM     23  C   UNL     1      49.985   9.642  13.724  0.00  0.00    +0.000 A 
ATOM     24  N   UNL     1      50.849  10.271  12.885  0.00  0.00    +0.000 NA
ATOM     25  C   UNL     1      51.261   9.545  11.898  0.00  0.00    +0.000 A 
ATOM     26  N   UNL     1      50.885   8.242  11.650  0.00  0.00    +0.000 N 
ATOM     27  C   UNL     1      51.394   7.527  10.499  0.00  0.00    +0.000 C 
ATOM     28  C   UNL     1      49.973   7.583  12.466  0.00  0.00    +0.000 A 
ATOM     29  O   UNL     1      49.568   6.449  12.219  0.00  0.00    +0.000 OA
ATOM     30  C   UNL     1      49.511   8.350  13.611  0.00  0.00    +0.000 A 
ENDBRANCH  17  20
ENDBRANCH   2  16
TORSDOF 5
ENDMDL
MODEL 7
REMARK VINA RESULT:    -6.999      3.550     10.187
REMARK INTER + INTRA:          -9.820
REMARK INTER:                  -8.554
REMARK INTRA:                  -1.266
REMARK UNBOUND:                -0.775
REMARK  Name = 
REMARK  7 active torsions:
REMARK  status: ('A' for Active; 'I' for Inactive)
REMARK    1  A    between atoms: C_1  and  C_2
REMARK    2  A    between atoms: C_2  and  N_3
REMARK    3  A    between atoms: C_2  and  C_17
REMARK    4  A    between atoms: C_4  and  C_6
REMARK    5  A    between atoms: N_12  and  C_13
REMARK    6  A    between atoms: C_20  and  O_21
REMARK    7  A    between atoms: O_21  and  C_22
REMARK                            x       y       z     vdW  Elec       q    Type
REMARK                         _______ _______ _______ _____ _____    ______ ____
ROOT
ATOM      1  C   UNL     1      47.600   3.295  16.401  0.00  0.00    +0.000 C 
ATOM      2  C   UNL     1      48.067   4.706  16.045  0.00  0.00    +0.000 C 
ENDROOT
BRANCH   2   3
ATOM      3  C   UNL     1      48.243   5.567  17.282  0.00  0.00    +0.000 A 
ATOM      4  C   UNL     1      47.588   5.207  18.464  0.00  0.00    +0.000 A 
ATOM      5  C   UNL     1      47.786   5.936  19.636  0.00  0.00    +0.000 A 
ATOM      6  C   UNL     1      48.686   7.002  19.661  0.00  0.00    +0.000 A 
ATOM      7  C   UNL     1      49.307   7.405  18.480  0.00  0.00    +0.000 A 
ATOM      8  C   UNL     1      49.090   6.692  17.297  0.00  0.00    +0.000 A 
BRANCH   6   9
ATOM      9  O   UNL     1      48.960   7.734  20.795  0.00  0.00    +0.000 OA
BRANCH   9  10
ATOM     10  C   UNL     1      48.438   9.022  20.878  0.00  0.00    +0.000 A 
ATOM     11  C   UNL     1      47.060   9.124  20.993  0.00  0.00    +0.000 A 
ATOM     12  C   UNL     1      46.503  10.394  21.119  0.00  0.00    +0.000 A 
ATOM     13  C   UNL     1      47.336  11.509  21.118  0.00  0.00    +0.000 A 
ATOM     14  C   UNL     1      48.698  11.310  20.969  0.00  0.00    +0.000 A 
ATOM     15  N   UNL     1      49.263  10.094  20.831  0.00  0.00    +0.000 NA
ENDBRANCH   9  10
ENDBRANCH   6   9
ENDBRANCH   2   3
BRANCH   2  16
ATOM     16  N   UNL     1      47.137   5.354  15.144  0.00  0.00    +0.000 N 
ATOM     17  C   UNL     1      47.487   5.892  13.937  0.00  0.00    +0.000 C 
ATOM     18  O   UNL     1      48.653   5.984  13.563  0.00  0.00    +0.000 OA
ATOM     19  H   UNL     1      46.155   5.196  15.336  0.00  0.00    +0.000 HD
BRANCH  17  20
ATOM     20  C   UNL     1      46.374   6.399  13.123  0.00  0.00    +0.000 A 
ATOM     21  C   UNL     1      46.321   7.743  12.775  0.00  0.00    +0.000 A 
ATOM     22  S   UNL     1      44.968   8.143  11.816  0.00  0.00    +0.000 S 
ATOM     23  C   UNL     1      44.430   6.528  11.801  0.00  0.00    +0.000 A 
ATOM     24  N   UNL     1      43.319   6.169  11.107  0.00  0.00    +0.000 NA
ATOM     25  C   UNL     1      43.039   4.908  11.160  0.00  0.00    +0.000 A 
ATOM     26  N   UNL     1      43.754   3.957  11.855  0.00  0.00    +0.000 N 
ATOM     27  C   UNL     1      43.337   2.571  11.863  0.00  0.00    +0.000 C 
ATOM     28  C   UNL     1      44.872   4.297  12.607  0.00  0.00    +0.000 A 
ATOM     29  O   UNL     1      45.479   3.478  13.293  0.00  0.00    +0.000 OA
ATOM     30  C   UNL     1      45.247   5.701  12.545  0.00  0.00    +0.000 A 
ENDBRANCH  17  20
ENDBRANCH   2  16
TORSDOF 5
ENDMDL
MODEL 8
REMARK VINA RESULT:    -6.946      2.733      3.467
REMARK INTER + INTRA:          -9.751
REMARK INTER:                  -9.729
REMARK INTRA:                  -0.022
REMARK UNBOUND:                -0.775
REMARK  Name = 
REMARK  7 active torsions:
REMARK  status: ('A' for Active; 'I' for Inactive)
REMARK    1  A    between atoms: C_1  and  C_2
REMARK    2  A    between atoms: C_2  and  N_3
REMARK    3  A    between atoms: C_2  and  C_17
REMARK    4  A    between atoms: C_4  and  C_6
REMARK    5  A    between atoms: N_12  and  C_13
REMARK    6  A    between atoms: C_20  and  O_21
REMARK    7  A    between atoms: O_21  and  C_22
REMARK                            x       y       z     vdW  Elec       q    Type
REMARK                         _______ _______ _______ _____ _____    ______ ____
ROOT
ATOM      1  C   UNL     1      47.148   3.906  14.693  0.00  0.00    +0.000 C 
ATOM      2  C   UNL     1      46.373   5.066  14.070  0.00  0.00    +0.000 C 
ENDROOT
BRANCH   2   3
ATOM      3  C   UNL     1      45.808   4.696  12.710  0.00  0.00    +0.000 A 
ATOM      4  C   UNL     1      46.006   5.562  11.630  0.00  0.00    +0.000 A 
ATOM      5  C   UNL     1      45.562   5.218  10.353  0.00  0.00    +0.000 A 
ATOM      6  C   UNL     1      44.963   3.979  10.124  0.00  0.00    +0.000 A 
ATOM      7  C   UNL     1      44.712   3.127  11.199  0.00  0.00    +0.000 A 
ATOM      8  C   UNL     1      45.133   3.481  12.484  0.00  0.00    +0.000 A 
BRANCH   6   9
ATOM      9  O   UNL     1      44.543   3.559   8.882  0.00  0.00    +0.000 OA
BRANCH   9  10
ATOM     10  C   UNL     1      45.445   2.846   8.098  0.00  0.00    +0.000 A 
ATOM     11  C   UNL     1      45.946   3.498   6.983  0.00  0.00    +0.000 A 
ATOM     12  C   UNL     1      46.882   2.831   6.195  0.00  0.00    +0.000 A 
ATOM     13  C   UNL     1      47.277   1.543   6.546  0.00  0.00    +0.000 A 
ATOM     14  C   UNL     1      46.700   0.962   7.663  0.00  0.00    +0.000 A 
ATOM     15  N   UNL     1      45.782   1.578   8.434  0.00  0.00    +0.000 NA
ENDBRANCH   9  10
ENDBRANCH   6   9
ENDBRANCH   2   3
BRANCH   2  16
ATOM     16  N   UNL     1      47.208   6.242  13.933  0.00  0.00    +0.000 N 
ATOM     17  C   UNL     1      48.307   6.494  14.705  0.00  0.00    +0.000 C 
ATOM     18  O   UNL     1      48.614   5.803  15.673  0.00  0.00    +0.000 OA
ATOM     19  H   UNL     1      47.082   6.774  13.081  0.00  0.00    +0.000 HD
BRANCH  17  20
ATOM     20  C   UNL     1      49.085   7.683  14.330  0.00  0.00    +0.000 A 
ATOM     21  C   UNL     1      49.804   7.699  13.141  0.00  0.00    +0.000 A 
ATOM     22  S   UNL     1      50.630   9.167  12.867  0.00  0.00    +0.000 S 
ATOM     23  C   UNL     1      50.022   9.844  14.306  0.00  0.00    +0.000 A 
ATOM     24  N   UNL     1      50.318  11.122  14.657  0.00  0.00    +0.000 NA
ATOM     25  C   UNL     1      49.771  11.516  15.760  0.00  0.00    +0.000 A 
ATOM     26  N   UNL     1      48.957  10.751  16.568  0.00  0.00    +0.000 N 
ATOM     27  C   UNL     1      48.413  11.288  17.797  0.00  0.00    +0.000 C 
ATOM     28  C   UNL     1      48.667   9.427  16.259  0.00  0.00    +0.000 A 
ATOM     29  O   UNL     1      48.006   8.707  17.004  0.00  0.00    +0.000 OA
ATOM     30  C   UNL     1      49.231   8.954  15.006  0.00  0.00    +0.000 A 
ENDBRANCH  17  20
ENDBRANCH   2  16
TORSDOF 5
ENDMDL
MODEL 9
REMARK VINA RESULT:    -6.876      3.027      4.330
REMARK INTER + INTRA:          -9.661
REMARK INTER:                  -8.541
REMARK INTRA:                  -1.120
REMARK UNBOUND:                -0.775
REMARK  Name = 
REMARK  7 active torsions:
REMARK  status: ('A' for Active; 'I' for Inactive)
REMARK    1  A    between atoms: C_1  and  C_2
REMARK    2  A    between atoms: C_2  and  N_3
REMARK    3  A    between atoms: C_2  and  C_17
REMARK    4  A    between atoms: C_4  and  C_6
REMARK    5  A    between atoms: N_12  and  C_13
REMARK    6  A    between atoms: C_20  and  O_21
REMARK    7  A    between atoms: O_21  and  C_22
REMARK                            x       y       z     vdW  Elec       q    Type
REMARK                         _______ _______ _______ _____ _____    ______ ____
ROOT
ATOM      1  C   UNL     1      47.485   3.715  16.125  0.00  0.00    +0.000 C 
ATOM      2  C   UNL     1      47.274   5.028  15.372  0.00  0.00    +0.000 C 
ENDROOT
BRANCH   2   3
ATOM      3  C   UNL     1      46.622   4.800  14.020  0.00  0.00    +0.000 A 
ATOM      4  C   UNL     1      46.370   3.492  13.596  0.00  0.00    +0.000 A 
ATOM      5  C   UNL     1      45.707   3.251  12.392  0.00  0.00    +0.000 A 
ATOM      6  C   UNL     1      45.236   4.314  11.621  0.00  0.00    +0.000 A 
ATOM      7  C   UNL     1      45.525   5.623  12.004  0.00  0.00    +0.000 A 
ATOM      8  C   UNL     1      46.211   5.866  13.197  0.00  0.00    +0.000 A 
BRANCH   6   9
ATOM      9  O   UNL     1      44.537   4.145  10.446  0.00  0.00    +0.000 OA
BRANCH   9  10
ATOM     10  C   UNL     1      45.192   3.527   9.384  0.00  0.00    +0.000 A 
ATOM     11  C   UNL     1      45.757   4.364   8.435  0.00  0.00    +0.000 A 
ATOM     12  C   UNL     1      46.455   3.783   7.378  0.00  0.00    +0.000 A 
ATOM     13  C   UNL     1      46.558   2.397   7.307  0.00  0.00    +0.000 A 
ATOM     14  C   UNL     1      45.937   1.642   8.287  0.00  0.00    +0.000 A 
ATOM     15  N   UNL     1      45.243   2.176   9.311  0.00  0.00    +0.000 NA
ENDBRANCH   9  10
ENDBRANCH   6   9
ENDBRANCH   2   3
BRANCH   2  16
ATOM     16  N   UNL     1      48.526   5.731  15.183  0.00  0.00    +0.000 N 
ATOM     17  C   UNL     1      49.127   6.497  16.142  0.00  0.00    +0.000 C 
ATOM     18  O   UNL     1      48.592   6.761  17.215  0.00  0.00    +0.000 OA
ATOM     19  H   UNL     1      49.069   5.451  14.376  0.00  0.00    +0.000 HD
BRANCH  17  20
ATOM     20  C   UNL     1      50.450   7.030  15.789  0.00  0.00    +0.000 A 
ATOM     21  C   UNL     1      51.548   6.763  16.597  0.00  0.00    +0.000 A 
ATOM     22  S   UNL     1      52.999   7.450  16.020  0.00  0.00    +0.000 S 
ATOM     23  C   UNL     1      52.217   8.093  14.651  0.00  0.00    +0.000 A 
ATOM     24  N   UNL     1      52.913   8.777  13.706  0.00  0.00    +0.000 NA
ATOM     25  C   UNL     1      52.200   9.187  12.708  0.00  0.00    +0.000 A 
ATOM     26  N   UNL     1      50.843   8.994  12.560  0.00  0.00    +0.000 N 
ATOM     27  C   UNL     1      50.140   9.517  11.409  0.00  0.00    +0.000 C 
ATOM     28  C   UNL     1      50.095   8.333  13.527  0.00  0.00    +0.000 A 
ATOM     29  O   UNL     1      48.874   8.217  13.449  0.00  0.00    +0.000 OA
ATOM     30  C   UNL     1      50.863   7.821  14.650  0.00  0.00    +0.000 A 
ENDBRANCH  17  20
ENDBRANCH   2  16
TORSDOF 5
ENDMDL
