MODEL 1
REMARK VINA RESULT:    -8.101      0.000      0.000
REMARK INTER + INTRA:         -12.744
REMARK INTER:                 -11.890
REMARK INTRA:                  -0.854
REMARK UNBOUND:                -0.854
REMARK  Name = 
REMARK  9 active torsions:
REMARK  status: ('A' for Active; 'I' for Inactive)
REMARK    1  A    between atoms: C_1  and  C_2
REMARK    2  A    between atoms: C_2  and  N_3
REMARK    3  A    between atoms: C_2  and  C_19
REMARK    4  A    between atoms: N_3  and  C_4
REMARK    5  A    between atoms: C_4  and  C_5
REMARK    6  A    between atoms: C_8  and  C_9
REMARK    7  A    between atoms: C_9  and  N_10
REMARK    8  A    between atoms: N_10  and  C_11
REMARK    9  A    between atoms: C_11  and  C_12
REMARK                            x       y       z     vdW  Elec       q    Type
REMARK                         _______ _______ _______ _____ _____    ______ ____
ROOT
ATOM      1  C   UNL     1      47.815   5.537  14.809  0.00  0.00    +0.000 C 
ENDROOT
BRANCH   1   2
ATOM      2  C   UNL     1      46.915   5.055  13.695  0.00  0.00    +0.000 A 
ATOM      3  C   UNL     1      46.633   3.694  13.529  0.00  0.00    +0.000 A 
ATOM      4  C   UNL     1      45.750   3.269  12.533  0.00  0.00    +0.000 A 
ATOM      5  C   UNL     1      45.115   4.197  11.694  0.00  0.00    +0.000 A 
ATOM      6  C   UNL     1      45.404   5.557  11.852  0.00  0.00    +0.000 A 
ATOM      7  C   UNL     1      46.296   5.980  12.840  0.00  0.00    +0.000 A 
BRANCH   5   8
ATOM      8  C   UNL     1      44.127   3.731  10.650  0.00  0.00    +0.000 C 
BRANCH   8   9
ATOM      9  N   UNL     1      44.407   2.347  10.269  0.00  0.00    +0.000 NA
ATOM     10  H   UNL     1      43.640   1.762  10.601  0.00  0.00    +0.000 HD
BRANCH   9  11
ATOM     11  C   UNL     1      44.572   2.197   8.826  0.00  0.00    +0.000 C 
BRANCH  11  12
ATOM     12  C   UNL     1      46.029   2.444   8.429  0.00  0.00    +0.000 C 
ATOM     13  C   UNL     1      46.692   1.290   7.688  0.00  0.00    +0.000 C 
ATOM     14  C   UNL     1      47.808   1.992   6.944  0.00  0.00    +0.000 C 
ATOM     15  N   UNL     1      47.188   3.230   6.459  0.00  0.00    +0.000 NA
ATOM     16  C   UNL     1      46.197   3.627   7.474  0.00  0.00    +0.000 C 
ATOM     17  H   UNL     1      46.692   3.021   5.591  0.00  0.00    +0.000 HD
ENDBRANCH  11  12
ENDBRANCH   9  11
ENDBRANCH   8   9
ENDBRANCH   5   8
ENDBRANCH   1   2
BRANCH   1  18
ATOM     18  N   UNL     1      47.335   5.131  16.131  0.00  0.00    +0.000 NA
ATOM     19  H   UNL     1      47.549   5.880  16.789  0.00  0.00    +0.000 HD
BRANCH  18  21
ATOM     20  C   UNL     1      47.084   3.060  17.505  0.00  0.00    +0.000 C 
ATOM     21  C   UNL     1      47.997   3.905  16.606  0.00  0.00    +0.000 C 
BRANCH  21  22
ATOM     22  C   UNL     1      49.249   4.290  17.375  0.00  0.00    +0.000 A 
ATOM     23  C   UNL     1      49.431   5.457  18.102  0.00  0.00    +0.000 A 
ATOM     24  S   UNL     1      50.936   5.522  18.910  0.00  0.00    +0.000 S 
ATOM     25  C   UNL     1      51.380   3.980  18.339  0.00  0.00    +0.000 A 
ATOM     26  N   UNL     1      52.557   3.402  18.697  0.00  0.00    +0.000 NA
ATOM     27  C   UNL     1      52.741   2.223  18.203  0.00  0.00    +0.000 A 
ATOM     28  N   UNL     1      51.862   1.573  17.371  0.00  0.00    +0.000 N 
ATOM     29  C   UNL     1      50.664   2.120  16.973  0.00  0.00    +0.000 A 
ATOM     30  O   UNL     1      49.899   1.516  16.229  0.00  0.00    +0.000 OA
ATOM     31  C   UNL     1      50.407   3.441  17.520  0.00  0.00    +0.000 A 
ATOM     32  H   UNL     1      52.072   0.653  17.014  0.00  0.00    +0.000 HD
ENDBRANCH  21  22
ENDBRANCH  18  21
ENDBRANCH   1  18
TORSDOF 8
ENDMDL
MODEL 2
REMARK VINA RESULT:    -7.532      1.682      2.135
REMARK INTER + INTRA:         -11.909
REMARK INTER:                 -10.655
REMARK INTRA:                  -1.254
REMARK UNBOUND:                -0.854
REMARK  Name = 
REMARK  9 active torsions:
REMARK  status: ('A' for Active; 'I' for Inactive)
REMARK    1  A    between atoms: C_1  and  C_2
REMARK    2  A    between atoms: C_2  and  N_3
REMARK    3  A    between atoms: C_2  and  C_19
REMARK    4  A    between atoms: N_3  and  C_4
REMARK    5  A    between atoms: C_4  and  C_5
REMARK    6  A    between atoms: C_8  and  C_9
REMARK    7  A    between atoms: C_9  and  N_10
REMARK    8  A    between atoms: N_10  and  C_11
REMARK    9  A    between atoms: C_11  and  C_12
REMARK                            x       y       z     vdW  Elec       q    Type
REMARK                         _______ _______ _______ _____ _____    ______ ____
ROOT
ATOM      1  C   UNL     1      47.915   6.386  13.721  0.00  0.00    +0.000 C 
ENDROOT
BRANCH   1   2
ATOM      2  C   UNL     1      46.881   5.564  12.986  0.00  0.00    +0.000 A 
ATOM      3  C   UNL     1      46.570   4.261  13.392  0.00  0.00    +0.000 A 
ATOM      4  C   UNL     1      45.569   3.536  12.741  0.00  0.00    +0.000 A 
ATOM      5  C   UNL     1      44.844   4.104  11.683  0.00  0.00    +0.000 A 
ATOM      6  C   UNL     1      45.162   5.403  11.270  0.00  0.00    +0.000 A 
ATOM      7  C   UNL     1      46.172   6.123  11.913  0.00  0.00    +0.000 A 
BRANCH   5   8
ATOM      8  C   UNL     1      43.733   3.328  11.016  0.00  0.00    +0.000 C 
BRANCH   8   9
ATOM      9  N   UNL     1      43.913   3.331   9.565  0.00  0.00    +0.000 NA
ATOM     10  H   UNL     1      44.373   4.201   9.300  0.00  0.00    +0.000 HD
BRANCH   9  11
ATOM     11  C   UNL     1      44.693   2.185   9.106  0.00  0.00    +0.000 C 
BRANCH  11  12
ATOM     12  C   UNL     1      46.052   2.645   8.575  0.00  0.00    +0.000 C 
ATOM     13  C   UNL     1      46.691   1.708   7.558  0.00  0.00    +0.000 C 
ATOM     14  C   UNL     1      47.625   2.637   6.814  0.00  0.00    +0.000 C 
ATOM     15  N   UNL     1      46.844   3.867   6.644  0.00  0.00    +0.000 NA
ATOM     16  C   UNL     1      45.983   3.982   7.834  0.00  0.00    +0.000 C 
ATOM     17  H   UNL     1      46.245   3.755   5.825  0.00  0.00    +0.000 HD
ENDBRANCH  11  12
ENDBRANCH   9  11
ENDBRANCH   8   9
ENDBRANCH   5   8
ENDBRANCH   1   2
BRANCH   1  18
ATOM     18  N   UNL     1      48.178   5.879  15.069  0.00  0.00    +0.000 NA
ATOM     19  H   UNL     1      47.290   5.580  15.474  0.00  0.00    +0.000 HD
BRANCH  18  21
ATOM     20  C   UNL     1      48.637   8.318  15.344  0.00  0.00    +0.000 C 
ATOM     21  C   UNL     1      48.753   6.912  15.945  0.00  0.00    +0.000 C 
BRANCH  21  22
ATOM     22  C   UNL     1      50.216   6.585  16.192  0.00  0.00    +0.000 A 
ATOM     23  C   UNL     1      51.302   7.305  15.716  0.00  0.00    +0.000 A 
ATOM     24  S   UNL     1      52.806   6.698  16.259  0.00  0.00    +0.000 S 
ATOM     25  C   UNL     1      52.052   5.473  17.172  0.00  0.00    +0.000 A 
ATOM     26  N   UNL     1      52.775   4.608  17.931  0.00  0.00    +0.000 NA
ATOM     27  C   UNL     1      52.061   3.751  18.583  0.00  0.00    +0.000 A 
ATOM     28  N   UNL     1      50.691   3.672  18.536  0.00  0.00    +0.000 N 
ATOM     29  C   UNL     1      49.917   4.517  17.776  0.00  0.00    +0.000 A 
ATOM     30  O   UNL     1      48.695   4.422  17.753  0.00  0.00    +0.000 OA
ATOM     31  C   UNL     1      50.678   5.510  17.037  0.00  0.00    +0.000 A 
ATOM     32  H   UNL     1      50.195   2.971  19.067  0.00  0.00    +0.000 HD
ENDBRANCH  21  22
ENDBRANCH  18  21
ENDBRANCH   1  18
TORSDOF 8
ENDMDL
MODEL 3
REMARK VINA RESULT:    -7.419      2.664      3.574
REMARK INTER + INTRA:         -11.744
REMARK INTER:                 -10.851
REMARK INTRA:                  -0.893
REMARK UNBOUND:                -0.854
REMARK  Name = 
REMARK  9 active torsions:
REMARK  status: ('A' for Active; 'I' for Inactive)
REMARK    1  A    between atoms: C_1  and  C_2
REMARK    2  A    between atoms: C_2  and  N_3
REMARK    3  A    between atoms: C_2  and  C_19
REMARK    4  A    between atoms: N_3  and  C_4
REMARK    5  A    between atoms: C_4  and  C_5
REMARK    6  A    between atoms: C_8  and  C_9
REMARK    7  A    between atoms: C_9  and  N_10
REMARK    8  A    between atoms: N_10  and  C_11
REMARK    9  A    between atoms: C_11  and  C_12
REMARK                            x       y       z     vdW  Elec       q    Type
REMARK                         _______ _______ _______ _____ _____    ______ ____
ROOT
ATOM      1  C   UNL     1      47.717   6.696  13.754  0.00  0.00    +0.000 C 
ENDROOT
BRANCH   1   2
ATOM      2  C   UNL     1      46.813   5.874  12.863  0.00  0.00    +0.000 A 
ATOM      3  C   UNL     1      46.243   4.678  13.315  0.00  0.00    +0.000 A 
ATOM      4  C   UNL     1      45.362   3.962  12.502  0.00  0.00    +0.000 A 
ATOM      5  C   UNL     1      45.015   4.435  11.227  0.00  0.00    +0.000 A 
ATOM      6  C   UNL     1      45.593   5.625  10.771  0.00  0.00    +0.000 A 
ATOM      7  C   UNL     1      46.484   6.334  11.579  0.00  0.00    +0.000 A 
BRANCH   5   8
ATOM      8  C   UNL     1      44.026   3.676  10.375  0.00  0.00    +0.000 C 
BRANCH   8   9
ATOM      9  N   UNL     1      44.471   2.295  10.189  0.00  0.00    +0.000 NA
ATOM     10  H   UNL     1      43.771   1.676  10.595  0.00  0.00    +0.000 HD
BRANCH   9  11
ATOM     11  C   UNL     1      44.679   1.971   8.780  0.00  0.00    +0.000 C 
BRANCH  11  12
ATOM     12  C   UNL     1      46.095   2.362   8.348  0.00  0.00    +0.000 C 
ATOM     13  C   UNL     1      46.847   1.284   7.578  0.00  0.00    +0.000 C 
ATOM     14  C   UNL     1      47.869   2.097   6.813  0.00  0.00    +0.000 C 
ATOM     15  N   UNL     1      47.119   3.273   6.357  0.00  0.00    +0.000 NA
ATOM     16  C   UNL     1      46.121   3.563   7.401  0.00  0.00    +0.000 C 
ATOM     17  H   UNL     1      46.623   3.023   5.500  0.00  0.00    +0.000 HD
ENDBRANCH  11  12
ENDBRANCH   9  11
ENDBRANCH   8   9
ENDBRANCH   5   8
ENDBRANCH   1   2
BRANCH   1  18
ATOM     18  N   UNL     1      48.351   5.891  14.800  0.00  0.00    +0.000 NA
ATOM     19  H   UNL     1      47.659   5.234  15.158  0.00  0.00    +0.000 HD
BRANCH  18  21
ATOM     20  C   UNL     1      50.291   7.123  15.779  0.00  0.00    +0.000 C 
ATOM     21  C   UNL     1      48.819   6.718  15.925  0.00  0.00    +0.000 C 
BRANCH  21  22
ATOM     22  C   UNL     1      48.633   5.939  17.215  0.00  0.00    +0.000 A 
ATOM     23  C   UNL     1      48.913   4.593  17.402  0.00  0.00    +0.000 A 
ATOM     24  S   UNL     1      48.664   4.066  19.009  0.00  0.00    +0.000 S 
ATOM     25  C   UNL     1      48.203   5.626  19.515  0.00  0.00    +0.000 A 
ATOM     26  N   UNL     1      47.894   5.890  20.812  0.00  0.00    +0.000 NA
ATOM     27  C   UNL     1      47.587   7.122  21.044  0.00  0.00    +0.000 A 
ATOM     28  N   UNL     1      47.547   8.115  20.095  0.00  0.00    +0.000 N 
ATOM     29  C   UNL     1      47.842   7.896  18.770  0.00  0.00    +0.000 A 
ATOM     30  O   UNL     1      47.797   8.802  17.945  0.00  0.00    +0.000 OA
ATOM     31  C   UNL     1      48.210   6.525  18.465  0.00  0.00    +0.000 A 
ATOM     32  H   UNL     1      47.292   9.059  20.345  0.00  0.00    +0.000 HD
ENDBRANCH  21  22
ENDBRANCH  18  21
ENDBRANCH   1  18
TORSDOF 8
ENDMDL
MODEL 4
REMARK VINA RESULT:    -7.255      2.733      4.034
REMARK INTER + INTRA:         -11.502
REMARK INTER:                  -9.902
REMARK INTRA:                  -1.600
REMARK UNBOUND:                -0.854
REMARK  Name = 
REMARK  9 active torsions:
REMARK  status: ('A' for Active; 'I' for Inactive)
REMARK    1  A    between atoms: C_1  and  C_2
REMARK    2  A    between atoms: C_2  and  N_3
REMARK    3  A    between atoms: C_2  and  C_19
REMARK    4  A    between atoms: N_3  and  C_4
REMARK    5  A    between atoms: C_4  and  C_5
REMARK    6  A    between atoms: C_8  and  C_9
REMARK    7  A    between atoms: C_9  and  N_10
REMARK    8  A    between atoms: N_10  and  C_11
REMARK    9  A    between atoms: C_11  and  C_12
REMARK                            x       y       z     vdW  Elec       q    Type
REMARK                         _______ _______ _______ _____ _____    ______ ____
ROOT
ATOM      1  C   UNL     1      49.767   7.877  13.449  0.00  0.00    +0.000 C 
ENDROOT
BRANCH   1   2
ATOM      2  C   UNL     1      48.353   7.758  12.927  0.00  0.00    +0.000 A 
ATOM      3  C   UNL     1      47.970   6.686  12.112  0.00  0.00    +0.000 A 
ATOM      4  C   UNL     1      46.645   6.558  11.688  0.00  0.00    +0.000 A 
ATOM      5  C   UNL     1      45.670   7.486  12.084  0.00  0.00    +0.000 A 
ATOM      6  C   UNL     1      46.056   8.564  12.890  0.00  0.00    +0.000 A 
ATOM      7  C   UNL     1      47.383   8.699  13.304  0.00  0.00    +0.000 A 
BRANCH   5   8
ATOM      8  C   UNL     1      44.232   7.312  11.657  0.00  0.00    +0.000 C 
BRANCH   8   9
ATOM      9  N   UNL     1      43.585   6.278  12.463  0.00  0.00    +0.000 NA
ATOM     10  H   UNL     1      43.156   6.723  13.273  0.00  0.00    +0.000 HD
BRANCH   9  11
ATOM     11  C   UNL     1      42.583   5.537  11.701  0.00  0.00    +0.000 C 
BRANCH  11  12
ATOM     12  C   UNL     1      43.124   4.160  11.310  0.00  0.00    +0.000 C 
ATOM     13  C   UNL     1      43.955   4.140  10.033  0.00  0.00    +0.000 C 
ATOM     14  C   UNL     1      44.796   2.897  10.222  0.00  0.00    +0.000 C 
ATOM     15  N   UNL     1      45.187   2.942  11.634  0.00  0.00    +0.000 NA
ATOM     16  C   UNL     1      44.067   3.567  12.359  0.00  0.00    +0.000 C 
ATOM     17  H   UNL     1      46.003   3.551  11.721  0.00  0.00    +0.000 HD
ENDBRANCH  11  12
ENDBRANCH   9  11
ENDBRANCH   8   9
ENDBRANCH   5   8
ENDBRANCH   1   2
BRANCH   1  18
ATOM     18  N   UNL     1      50.025   6.975  14.573  0.00  0.00    +0.000 NA
ATOM     19  H   UNL     1      49.677   6.050  14.324  0.00  0.00    +0.000 HD
BRANCH  18  21
ATOM     20  C   UNL     1      49.870   8.741  16.333  0.00  0.00    +0.000 C 
ATOM     21  C   UNL     1      49.333   7.408  15.798  0.00  0.00    +0.000 C 
BRANCH  21  22
ATOM     22  C   UNL     1      49.498   6.333  16.859  0.00  0.00    +0.000 A 
ATOM     23  C   UNL     1      50.357   6.389  17.947  0.00  0.00    +0.000 A 
ATOM     24  S   UNL     1      50.221   5.037  18.985  0.00  0.00    +0.000 S 
ATOM     25  C   UNL     1      48.989   4.349  18.031  0.00  0.00    +0.000 A 
ATOM     26  N   UNL     1      48.385   3.184  18.384  0.00  0.00    +0.000 NA
ATOM     27  C   UNL     1      47.455   2.802  17.573  0.00  0.00    +0.000 A 
ATOM     28  N   UNL     1      47.082   3.472  16.433  0.00  0.00    +0.000 N 
ATOM     29  C   UNL     1      47.669   4.648  16.030  0.00  0.00    +0.000 A 
ATOM     30  O   UNL     1      47.315   5.223  15.006  0.00  0.00    +0.000 OA
ATOM     31  C   UNL     1      48.711   5.125  16.922  0.00  0.00    +0.000 A 
ATOM     32  H   UNL     1      46.349   3.113  15.839  0.00  0.00    +0.000 HD
ENDBRANCH  21  22
ENDBRANCH  18  21
ENDBRANCH   1  18
TORSDOF 8
ENDMDL
MODEL 5
REMARK VINA RESULT:    -7.049      3.103      9.084
REMARK INTER + INTRA:         -11.199
REMARK INTER:                 -10.091
REMARK INTRA:                  -1.109
REMARK UNBOUND:                -0.854
REMARK  Name = 
REMARK  9 active torsions:
REMARK  status: ('A' for Active; 'I' for Inactive)
REMARK    1  A    between atoms: C_1  and  C_2
REMARK    2  A    between atoms: C_2  and  N_3
REMARK    3  A    between atoms: C_2  and  C_19
REMARK    4  A    between atoms: N_3  and  C_4
REMARK    5  A    between atoms: C_4  and  C_5
REMARK    6  A    between atoms: C_8  and  C_9
REMARK    7  A    between atoms: C_9  and  N_10
REMARK    8  A    between atoms: N_10  and  C_11
REMARK    9  A    between atoms: C_11  and  C_12
REMARK                            x       y       z     vdW  Elec       q    Type
REMARK                         _______ _______ _______ _____ _____    ______ ____
ROOT
ATOM      1  C   UNL     1      47.461   6.607  13.251  0.00  0.00    +0.000 C 
ENDROOT
BRANCH   1   2
ATOM      2  C   UNL     1      47.745   5.800  14.496  0.00  0.00    +0.000 A 
ATOM      3  C   UNL     1      48.585   6.292  15.503  0.00  0.00    +0.000 A 
ATOM      4  C   UNL     1      48.789   5.561  16.675  0.00  0.00    +0.000 A 
ATOM      5  C   UNL     1      48.145   4.331  16.876  0.00  0.00    +0.000 A 
ATOM      6  C   UNL     1      47.314   3.833  15.866  0.00  0.00    +0.000 A 
ATOM      7  C   UNL     1      47.119   4.559  14.689  0.00  0.00    +0.000 A 
BRANCH   5   8
ATOM      8  C   UNL     1      48.338   3.570  18.167  0.00  0.00    +0.000 C 
BRANCH   8   9
ATOM      9  N   UNL     1      49.754   3.266  18.370  0.00  0.00    +0.000 NA
ATOM     10  H   UNL     1      49.876   2.929  19.324  0.00  0.00    +0.000 HD
BRANCH   9  11
ATOM     11  C   UNL     1      50.244   2.276  17.415  0.00  0.00    +0.000 C 
BRANCH  11  12
ATOM     12  C   UNL     1      51.775   2.275  17.389  0.00  0.00    +0.000 C 
ATOM     13  C   UNL     1      52.430   3.242  18.367  0.00  0.00    +0.000 C 
ATOM     14  C   UNL     1      53.801   2.628  18.549  0.00  0.00    +0.000 C 
ATOM     15  N   UNL     1      53.537   1.188  18.636  0.00  0.00    +0.000 NA
ATOM     16  C   UNL     1      52.379   0.921  17.766  0.00  0.00    +0.000 C 
ATOM     17  H   UNL     1      53.272   0.969  19.598  0.00  0.00    +0.000 HD
ENDBRANCH  11  12
ENDBRANCH   9  11
ENDBRANCH   8   9
ENDBRANCH   5   8
ENDBRANCH   1   2
BRANCH   1  18
ATOM     18  N   UNL     1      46.049   6.980  13.137  0.00  0.00    +0.000 NA
ATOM     19  H   UNL     1      45.512   6.385  13.766  0.00  0.00    +0.000 HD
BRANCH  18  21
ATOM     20  C   UNL     1      44.481   7.831  11.388  0.00  0.00    +0.000 C 
ATOM     21  C   UNL     1      45.534   6.783  11.773  0.00  0.00    +0.000 C 
BRANCH  21  22
ATOM     22  C   UNL     1      44.926   5.395  11.674  0.00  0.00    +0.000 A 
ATOM     23  C   UNL     1      44.162   4.770  12.650  0.00  0.00    +0.000 A 
ATOM     24  S   UNL     1      43.570   3.241  12.167  0.00  0.00    +0.000 S 
ATOM     25  C   UNL     1      44.288   3.378  10.628  0.00  0.00    +0.000 A 
ATOM     26  N   UNL     1      44.132   2.414   9.683  0.00  0.00    +0.000 NA
ATOM     27  C   UNL     1      44.717   2.672   8.561  0.00  0.00    +0.000 A 
ATOM     28  N   UNL     1      45.455   3.801   8.300  0.00  0.00    +0.000 N 
ATOM     29  C   UNL     1      45.649   4.799   9.226  0.00  0.00    +0.000 A 
ATOM     30  O   UNL     1      46.314   5.795   8.965  0.00  0.00    +0.000 OA
ATOM     31  C   UNL     1      44.994   4.559  10.500  0.00  0.00    +0.000 A 
ATOM     32  H   UNL     1      45.892   3.936   7.401  0.00  0.00    +0.000 HD
ENDBRANCH  21  22
ENDBRANCH  18  21
ENDBRANCH   1  18
TORSDOF 8
ENDMDL
MODEL 6
REMARK VINA RESULT:    -6.994      2.568      3.092
REMARK INTER + INTRA:         -11.120
REMARK INTER:                 -10.229
REMARK INTRA:                  -0.891
REMARK UNBOUND:                -0.854
REMARK  Name = 
REMARK  9 active torsions:
REMARK  status: ('A' for Active; 'I' for Inactive)
REMARK    1  A    between atoms: C_1  and  C_2
REMARK    2  A    between atoms: C_2  and  N_3
REMARK    3  A    between atoms: C_2  and  C_19
REMARK    4  A    between atoms: N_3  and  C_4
REMARK    5  A    between atoms: C_4  and  C_5
REMARK    6  A    between atoms: C_8  and  C_9
REMARK    7  A    between atoms: C_9  and  N_10
REMARK    8  A    between atoms: N_10  and  C_11
REMARK    9  A    between atoms: C_11  and  C_12
REMARK                            x       y       z     vdW  Elec       q    Type
REMARK                         _______ _______ _______ _____ _____    ______ ____
ROOT
ATOM      1  C   UNL     1      47.615   4.786  14.494  0.00  0.00    +0.000 C 
ENDROOT
BRANCH   1   2
ATOM      2  C   UNL     1      46.560   4.793  13.412  0.00  0.00    +0.000 A 
ATOM      3  C   UNL     1      46.181   5.982  12.777  0.00  0.00    +0.000 A 
ATOM      4  C   UNL     1      45.249   5.964  11.737  0.00  0.00    +0.000 A 
ATOM      5  C   UNL     1      44.689   4.756  11.296  0.00  0.00    +0.000 A 
ATOM      6  C   UNL     1      45.059   3.568  11.937  0.00  0.00    +0.000 A 
ATOM      7  C   UNL     1      45.982   3.588  12.985  0.00  0.00    +0.000 A 
BRANCH   5   8
ATOM      8  C   UNL     1      43.716   4.742  10.140  0.00  0.00    +0.000 C 
BRANCH   8   9
ATOM      9  N   UNL     1      44.090   3.710   9.174  0.00  0.00    +0.000 NA
ATOM     10  H   UNL     1      43.285   3.523   8.578  0.00  0.00    +0.000 HD
BRANCH   9  11
ATOM     11  C   UNL     1      45.239   4.107   8.365  0.00  0.00    +0.000 C 
BRANCH  11  12
ATOM     12  C   UNL     1      45.731   2.926   7.524  0.00  0.00    +0.000 C 
ATOM     13  C   UNL     1      47.169   3.044   7.038  0.00  0.00    +0.000 C 
ATOM     14  C   UNL     1      47.541   1.597   6.798  0.00  0.00    +0.000 C 
ATOM     15  N   UNL     1      46.957   0.885   7.939  0.00  0.00    +0.000 NA
ATOM     16  C   UNL     1      45.719   1.602   8.290  0.00  0.00    +0.000 C 
ATOM     17  H   UNL     1      47.603   0.957   8.727  0.00  0.00    +0.000 HD
ENDBRANCH  11  12
ENDBRANCH   9  11
ENDBRANCH   8   9
ENDBRANCH   5   8
ENDBRANCH   1   2
BRANCH   1  18
ATOM     18  N   UNL     1      47.049   4.999  15.828  0.00  0.00    +0.000 NA
ATOM     19  H   UNL     1      46.960   6.003  15.978  0.00  0.00    +0.000 HD
BRANCH  18  21
ATOM     20  C   UNL     1      47.355   3.161  17.492  0.00  0.00    +0.000 C 
ATOM     21  C   UNL     1      47.914   4.456  16.887  0.00  0.00    +0.000 C 
BRANCH  21  22
ATOM     22  C   UNL     1      48.066   5.500  17.979  0.00  0.00    +0.000 A 
ATOM     23  C   UNL     1      47.345   5.551  19.164  0.00  0.00    +0.000 A 
ATOM     24  S   UNL     1      47.837   6.818  20.201  0.00  0.00    +0.000 S 
ATOM     25  C   UNL     1      49.050   7.320  19.115  0.00  0.00    +0.000 A 
ATOM     26  N   UNL     1      49.886   8.350  19.412  0.00  0.00    +0.000 NA
ATOM     27  C   UNL     1      50.766   8.598  18.500  0.00  0.00    +0.000 A 
ATOM     28  N   UNL     1      50.880   7.918  17.312  0.00  0.00    +0.000 N 
ATOM     29  C   UNL     1      50.052   6.877  16.962  0.00  0.00    +0.000 A 
ATOM     30  O   UNL     1      50.177   6.289  15.893  0.00  0.00    +0.000 OA
ATOM     31  C   UNL     1      49.055   6.552  17.967  0.00  0.00    +0.000 A 
ATOM     32  H   UNL     1      51.589   8.169  16.639  0.00  0.00    +0.000 HD
ENDBRANCH  21  22
ENDBRANCH  18  21
ENDBRANCH   1  18
TORSDOF 8
ENDMDL
MODEL 7
REMARK VINA RESULT:    -6.814      3.701      8.552
REMARK INTER + INTRA:         -10.855
REMARK INTER:                  -8.901
REMARK INTRA:                  -1.955
REMARK UNBOUND:                -0.854
REMARK  Name = 
REMARK  9 active torsions:
REMARK  status: ('A' for Active; 'I' for Inactive)
REMARK    1  A    between atoms: C_1  and  C_2
REMARK    2  A    between atoms: C_2  and  N_3
REMARK    3  A    between atoms: C_2  and  C_19
REMARK    4  A    between atoms: N_3  and  C_4
REMARK    5  A    between atoms: C_4  and  C_5
REMARK    6  A    between atoms: C_8  and  C_9
REMARK    7  A    between atoms: C_9  and  N_10
REMARK    8  A    between atoms: N_10  and  C_11
REMARK    9  A    between atoms: C_11  and  C_12
REMARK                            x       y       z     vdW  Elec       q    Type
REMARK                         _______ _______ _______ _____ _____    ______ ____
ROOT
ATOM      1  C   UNL     1      48.106   8.765  14.173  0.00  0.00    +0.000 C 
ENDROOT
BRANCH   1   2
ATOM      2  C   UNL     1      48.796   8.134  15.361  0.00  0.00    +0.000 A 
ATOM      3  C   UNL     1      49.791   7.165  15.189  0.00  0.00    +0.000 A 
ATOM      4  C   UNL     1      50.463   6.636  16.294  0.00  0.00    +0.000 A 
ATOM      5  C   UNL     1      50.168   7.077  17.593  0.00  0.00    +0.000 A 
ATOM      6  C   UNL     1      49.165   8.038  17.765  0.00  0.00    +0.000 A 
ATOM      7  C   UNL     1      48.485   8.558  16.661  0.00  0.00    +0.000 A 
BRANCH   5   8
ATOM      8  C   UNL     1      50.931   6.531  18.776  0.00  0.00    +0.000 C 
BRANCH   8   9
ATOM      9  N   UNL     1      50.730   5.087  18.887  0.00  0.00    +0.000 NA
ATOM     10  H   UNL     1      51.530   4.689  19.378  0.00  0.00    +0.000 HD
BRANCH   9  11
ATOM     11  C   UNL     1      49.490   4.758  19.586  0.00  0.00    +0.000 C 
BRANCH  11  12
ATOM     12  C   UNL     1      48.563   3.953  18.672  0.00  0.00    +0.000 C 
ATOM     13  C   UNL     1      47.426   4.754  18.051  0.00  0.00    +0.000 C 
ATOM     14  C   UNL     1      47.089   3.930  16.828  0.00  0.00    +0.000 C 
ATOM     15  N   UNL     1      48.396   3.528  16.298  0.00  0.00    +0.000 NA
ATOM     16  C   UNL     1      49.285   3.359  17.461  0.00  0.00    +0.000 C 
ATOM     17  H   UNL     1      48.759   4.294  15.727  0.00  0.00    +0.000 HD
ENDBRANCH  11  12
ENDBRANCH   9  11
ENDBRANCH   8   9
ENDBRANCH   5   8
ENDBRANCH   1   2
BRANCH   1  18
ATOM     18  N   UNL     1      46.830   8.119  13.860  0.00  0.00    +0.000 NA
ATOM     19  H   UNL     1      46.420   7.786  14.732  0.00  0.00    +0.000 HD
BRANCH  18  21
ATOM     20  C   UNL     1      47.950   7.262  11.798  0.00  0.00    +0.000 C 
ATOM     21  C   UNL     1      47.002   6.962  12.966  0.00  0.00    +0.000 C 
BRANCH  21  22
ATOM     22  C   UNL     1      45.643   6.556  12.423  0.00  0.00    +0.000 A 
ATOM     23  C   UNL     1      44.715   7.403  11.833  0.00  0.00    +0.000 A 
ATOM     24  S   UNL     1      43.325   6.589  11.260  0.00  0.00    +0.000 S 
ATOM     25  C   UNL     1      43.930   5.076  11.755  0.00  0.00    +0.000 A 
ATOM     26  N   UNL     1      43.243   3.926  11.523  0.00  0.00    +0.000 NA
ATOM     27  C   UNL     1      43.841   2.859  11.936  0.00  0.00    +0.000 A 
ATOM     28  N   UNL     1      45.058   2.835  12.573  0.00  0.00    +0.000 N 
ATOM     29  C   UNL     1      45.786   3.971  12.838  0.00  0.00    +0.000 A 
ATOM     30  O   UNL     1      46.870   3.920  13.409  0.00  0.00    +0.000 OA
ATOM     31  C   UNL     1      45.159   5.197  12.375  0.00  0.00    +0.000 A 
ATOM     32  H   UNL     1      45.466   1.964  12.876  0.00  0.00    +0.000 HD
ENDBRANCH  21  22
ENDBRANCH  18  21
ENDBRANCH   1  18
TORSDOF 8
ENDMDL
MODEL 8
REMARK VINA RESULT:    -6.612      4.002      4.993
REMARK INTER + INTRA:         -10.558
REMARK INTER:                  -9.503
REMARK INTRA:                  -1.055
REMARK UNBOUND:                -0.854
REMARK  Name = 
REMARK  9 active torsions:
REMARK  status: ('A' for Active; 'I' for Inactive)
REMARK    1  A    between atoms: C_1  and  C_2
REMARK    2  A    between atoms: C_2  and  N_3
REMARK    3  A    between atoms: C_2  and  C_19
REMARK    4  A    between atoms: N_3  and  C_4
REMARK    5  A    between atoms: C_4  and  C_5
REMARK    6  A    between atoms: C_8  and  C_9
REMARK    7  A    between atoms: C_9  and  N_10
REMARK    8  A    between atoms: N_10  and  C_11
REMARK    9  A    between atoms: C_11  and  C_12
REMARK                            x       y       z     vdW  Elec       q    Type
REMARK                         _______ _______ _______ _____ _____    ______ ____
ROOT
ATOM      1  C   UNL     1      47.013   7.423  13.135  0.00  0.00    +0.000 C 
ENDROOT
BRANCH   1   2
ATOM      2  C   UNL     1      46.191   6.325  12.500  0.00  0.00    +0.000 A 
ATOM      3  C   UNL     1      45.948   6.307  11.121  0.00  0.00    +0.000 A 
ATOM      4  C   UNL     1      45.239   5.253  10.540  0.00  0.00    +0.000 A 
ATOM      5  C   UNL     1      44.773   4.184  11.321  0.00  0.00    +0.000 A 
ATOM      6  C   UNL     1      45.007   4.207  12.701  0.00  0.00    +0.000 A 
ATOM      7  C   UNL     1      45.705   5.267  13.283  0.00  0.00    +0.000 A 
BRANCH   5   8
ATOM      8  C   UNL     1      44.047   3.028  10.676  0.00  0.00    +0.000 C 
BRANCH   8   9
ATOM      9  N   UNL     1      44.442   2.898   9.275  0.00  0.00    +0.000 NA
ATOM     10  H   UNL     1      44.686   3.824   8.923  0.00  0.00    +0.000 HD
BRANCH   9  11
ATOM     11  C   UNL     1      45.565   1.979   9.104  0.00  0.00    +0.000 C 
BRANCH  11  12
ATOM     12  C   UNL     1      45.986   1.922   7.634  0.00  0.00    +0.000 C 
ATOM     13  C   UNL     1      46.536   3.228   7.077  0.00  0.00    +0.000 C 
ATOM     14  C   UNL     1      47.373   2.748   5.911  0.00  0.00    +0.000 C 
ATOM     15  N   UNL     1      48.047   1.551   6.426  0.00  0.00    +0.000 NA
ATOM     16  C   UNL     1      47.112   0.919   7.373  0.00  0.00    +0.000 C 
ATOM     17  H   UNL     1      48.875   1.848   6.945  0.00  0.00    +0.000 HD
ENDBRANCH  11  12
ENDBRANCH   9  11
ENDBRANCH   8   9
ENDBRANCH   5   8
ENDBRANCH   1   2
BRANCH   1  18
ATOM     18  N   UNL     1      48.251   7.690  12.400  0.00  0.00    +0.000 NA
ATOM     19  H   UNL     1      48.958   7.029  12.720  0.00  0.00    +0.000 HD
BRANCH  18  21
ATOM     20  C   UNL     1      48.090  10.094  11.740  0.00  0.00    +0.000 C 
ATOM     21  C   UNL     1      48.756   9.051  12.647  0.00  0.00    +0.000 C 
BRANCH  21  22
ATOM     22  C   UNL     1      50.257   9.065  12.417  0.00  0.00    +0.000 A 
ATOM     23  C   UNL     1      50.915   9.693  11.368  0.00  0.00    +0.000 A 
ATOM     24  S   UNL     1      52.617   9.573  11.470  0.00  0.00    +0.000 S 
ATOM     25  C   UNL     1      52.532   8.706  12.933  0.00  0.00    +0.000 A 
ATOM     26  N   UNL     1      53.654   8.321  13.597  0.00  0.00    +0.000 NA
ATOM     27  C   UNL     1      53.427   7.693  14.702  0.00  0.00    +0.000 A 
ATOM     28  N   UNL     1      52.180   7.401  15.199  0.00  0.00    +0.000 N 
ATOM     29  C   UNL     1      51.017   7.760  14.560  0.00  0.00    +0.000 A 
ATOM     30  O   UNL     1      49.917   7.484  15.027  0.00  0.00    +0.000 OA
ATOM     31  C   UNL     1      51.224   8.485  13.319  0.00  0.00    +0.000 A 
ATOM     32  H   UNL     1      52.074   6.899  16.068  0.00  0.00    +0.000 HD
ENDBRANCH  21  22
ENDBRANCH  18  21
ENDBRANCH   1  18
TORSDOF 8
ENDMDL
MODEL 9
REMARK VINA RESULT:    -6.601      3.371      9.128
REMARK INTER + INTRA:         -10.542
REMARK INTER:                  -9.617
REMARK INTRA:                  -0.925
REMARK UNBOUND:                -0.854
REMARK  Name = 
REMARK  9 active torsions:
REMARK  status: ('A' for Active; 'I' for Inactive)
REMARK    1  A    between atoms: C_1  and  C_2
REMARK    2  A    between atoms: C_2  and  N_3
REMARK    3  A    between atoms: C_2  and  C_19
REMARK    4  A    between atoms: N_3  and  C_4
REMARK    5  A    between atoms: C_4  and  C_5
REMARK    6  A    between atoms: C_8  and  C_9
REMARK    7  A    between atoms: C_9  and  N_10
REMARK    8  A    between atoms: N_10  and  C_11
REMARK    9  A    between atoms: C_11  and  C_12
REMARK                            x       y       z     vdW  Elec       q    Type
REMARK                         _______ _______ _______ _____ _____    ______ ____
ROOT
ATOM      1  C   UNL     1      47.359   5.021  15.587  0.00  0.00    +0.000 C 
ENDROOT
BRANCH   1   2
ATOM      2  C   UNL     1      48.462   4.944  16.617  0.00  0.00    +0.000 A 
ATOM      3  C   UNL     1      49.474   5.910  16.668  0.00  0.00    +0.000 A 
ATOM      4  C   UNL     1      50.452   5.860  17.665  0.00  0.00    +0.000 A 
ATOM      5  C   UNL     1      50.430   4.853  18.642  0.00  0.00    +0.000 A 
ATOM      6  C   UNL     1      49.425   3.881  18.585  0.00  0.00    +0.000 A 
ATOM      7  C   UNL     1      48.454   3.925  17.581  0.00  0.00    +0.000 A 
BRANCH   5   8
ATOM      8  C   UNL     1      51.466   4.834  19.741  0.00  0.00    +0.000 C 
BRANCH   8   9
ATOM      9  N   UNL     1      52.340   3.672  19.594  0.00  0.00    +0.000 NA
ATOM     10  H   UNL     1      51.764   2.831  19.629  0.00  0.00    +0.000 HD
BRANCH   9  11
ATOM     11  C   UNL     1      53.103   3.713  18.350  0.00  0.00    +0.000 C 
BRANCH  11  12
ATOM     12  C   UNL     1      53.280   2.301  17.788  0.00  0.00    +0.000 C 
ATOM     13  C   UNL     1      54.199   1.400  18.603  0.00  0.00    +0.000 C 
ATOM     14  C   UNL     1      53.728   0.019  18.199  0.00  0.00    +0.000 C 
ATOM     15  N   UNL     1      52.267   0.138  18.162  0.00  0.00    +0.000 NA
ATOM     16  C   UNL     1      51.970   1.513  17.725  0.00  0.00    +0.000 C 
ATOM     17  H   UNL     1      51.912   0.020  19.112  0.00  0.00    +0.000 HD
ENDBRANCH  11  12
ENDBRANCH   9  11
ENDBRANCH   8   9
ENDBRANCH   5   8
ENDBRANCH   1   2
BRANCH   1  18
ATOM     18  N   UNL     1      47.489   6.190  14.714  0.00  0.00    +0.000 NA
ATOM     19  H   UNL     1      46.653   6.761  14.824  0.00  0.00    +0.000 HD
BRANCH  18  21
ATOM     20  C   UNL     1      48.586   6.702  12.529  0.00  0.00    +0.000 C 
ATOM     21  C   UNL     1      47.601   5.811  13.297  0.00  0.00    +0.000 C 
BRANCH  21  22
ATOM     22  C   UNL     1      46.227   5.905  12.655  0.00  0.00    +0.000 A 
ATOM     23  C   UNL     1      45.639   7.058  12.155  0.00  0.00    +0.000 A 
ATOM     24  S   UNL     1      44.118   6.781  11.427  0.00  0.00    +0.000 S 
ATOM     25  C   UNL     1      44.209   5.107  11.729  0.00  0.00    +0.000 A 
ATOM     26  N   UNL     1      43.231   4.257  11.316  0.00  0.00    +0.000 NA
ATOM     27  C   UNL     1      43.454   3.016  11.599  0.00  0.00    +0.000 A 
ATOM     28  N   UNL     1      44.558   2.548  12.268  0.00  0.00    +0.000 N 
ATOM     29  C   UNL     1      45.568   3.368  12.714  0.00  0.00    +0.000 A 
ATOM     30  O   UNL     1      46.542   2.921  13.310  0.00  0.00    +0.000 OA
ATOM     31  C   UNL     1      45.368   4.773  12.403  0.00  0.00    +0.000 A 
ATOM     32  H   UNL     1      44.666   1.563  12.462  0.00  0.00    +0.000 HD
ENDBRANCH  21  22
ENDBRANCH  18  21
ENDBRANCH   1  18
TORSDOF 8
ENDMDL
