MODEL 1
REMARK VINA RESULT:    -8.542      0.000      0.000
REMARK INTER + INTRA:         -13.311
REMARK INTER:                 -12.038
REMARK INTRA:                  -1.273
REMARK UNBOUND:                -1.273
REMARK  Name = 
REMARK  8 active torsions:
REMARK  status: ('A' for Active; 'I' for Inactive)
REMARK    1  A    between atoms: C_1  and  O_2
REMARK    2  A    between atoms: O_2  and  C_3
REMARK    3  A    between atoms: C_10  and  C_11
REMARK    4  A    between atoms: N_13  and  C_14
REMARK    5  A    between atoms: C_14  and  C_15
REMARK    6  A    between atoms: C_18  and  N_19
REMARK    7  A    between atoms: N_19  and  C_20
REMARK    8  A    between atoms: C_20  and  C_21
REMARK                            x       y       z     vdW  Elec       q    Type
REMARK                         _______ _______ _______ _____ _____    ______ ____
ROOT
ATOM      1  C   UNL     1      46.197   7.898  12.847  0.00  0.00    +0.000 C 
ENDROOT
BRANCH   1   2
ATOM      2  C   UNL     1      45.616   6.865  11.918  0.00  0.00    +0.000 A 
ATOM      3  C   UNL     1      44.402   6.233  12.217  0.00  0.00    +0.000 A 
ATOM      4  C   UNL     1      43.860   5.272  11.352  0.00  0.00    +0.000 A 
ATOM      5  C   UNL     1      44.514   4.929  10.167  0.00  0.00    +0.000 A 
ATOM      6  C   UNL     1      45.756   5.519   9.907  0.00  0.00    +0.000 A 
ATOM      7  C   UNL     1      46.299   6.485  10.759  0.00  0.00    +0.000 A 
BRANCH   5   8
ATOM      8  N   UNL     1      44.052   3.975   9.261  0.00  0.00    +0.000 N 
ATOM      9  H   UNL     1      44.129   4.315   8.303  0.00  0.00    +0.000 HD
BRANCH   8  10
ATOM     10  C   UNL     1      44.533   2.596   9.357  0.00  0.00    +0.000 C 
BRANCH  10  11
ATOM     11  C   UNL     1      45.567   2.335   8.272  0.00  0.00    +0.000 A 
ATOM     12  C   UNL     1      45.792   3.302   7.290  0.00  0.00    +0.000 A 
ATOM     13  C   UNL     1      46.731   3.049   6.295  0.00  0.00    +0.000 A 
ATOM     14  C   UNL     1      47.416   1.843   6.300  0.00  0.00    +0.000 A 
ATOM     15  C   UNL     1      47.133   0.935   7.307  0.00  0.00    +0.000 A 
ATOM     16  N   UNL     1      46.229   1.150   8.292  0.00  0.00    +0.000 NA
ENDBRANCH  10  11
ENDBRANCH   8  10
ENDBRANCH   5   8
ENDBRANCH   1   2
BRANCH   1  19
ATOM     17  C   UNL     1      48.146   7.022  14.048  0.00  0.00    +0.000 C 
ATOM     18  O   UNL     1      48.875   7.292  13.095  0.00  0.00    +0.000 OA
ATOM     19  N   UNL     1      46.803   7.283  14.001  0.00  0.00    +0.000 N 
ATOM     20  H   UNL     1      46.209   7.067  14.792  0.00  0.00    +0.000 HD
BRANCH  17  28
ATOM     21  C   UNL     1      47.267   4.270  15.934  0.00  0.00    +0.000 A 
ATOM     22  N   UNL     1      47.121   3.302  16.862  0.00  0.00    +0.000 NA
ATOM     23  C   UNL     1      47.979   3.279  17.886  0.00  0.00    +0.000 A 
ATOM     24  N   UNL     1      48.990   4.116  18.102  0.00  0.00    +0.000 NA
ATOM     25  C   UNL     1      49.089   5.072  17.163  0.00  0.00    +0.000 A 
ATOM     26  S   UNL     1      50.331   6.225  17.274  0.00  0.00    +0.000 S 
ATOM     27  C   UNL     1      49.805   6.999  15.859  0.00  0.00    +0.000 A 
ATOM     28  C   UNL     1      48.688   6.411  15.274  0.00  0.00    +0.000 A 
ATOM     29  C   UNL     1      48.271   5.246  16.050  0.00  0.00    +0.000 A 
BRANCH  21  31
ATOM     30  C   UNL     1      46.893   3.630  13.720  0.00  0.00    +0.000 C 
ATOM     31  O   UNL     1      46.381   4.291  14.877  0.00  0.00    +0.000 OA
ENDBRANCH  21  31
ENDBRANCH  17  28
ENDBRANCH   1  19
TORSDOF 7
ENDMDL
MODEL 2
REMARK VINA RESULT:    -7.732      2.096      2.868
REMARK INTER + INTRA:         -12.170
REMARK INTER:                 -11.314
REMARK INTRA:                  -0.856
REMARK UNBOUND:                -1.273
REMARK  Name = 
REMARK  8 active torsions:
REMARK  status: ('A' for Active; 'I' for Inactive)
REMARK    1  A    between atoms: C_1  and  O_2
REMARK    2  A    between atoms: O_2  and  C_3
REMARK    3  A    between atoms: C_10  and  C_11
REMARK    4  A    between atoms: N_13  and  C_14
REMARK    5  A    between atoms: C_14  and  C_15
REMARK    6  A    between atoms: C_18  and  N_19
REMARK    7  A    between atoms: N_19  and  C_20
REMARK    8  A    between atoms: C_20  and  C_21
REMARK                            x       y       z     vdW  Elec       q    Type
REMARK                         _______ _______ _______ _____ _____    ______ ____
ROOT
ATOM      1  C   UNL     1      47.517   6.605  13.496  0.00  0.00    +0.000 C 
ENDROOT
BRANCH   1   2
ATOM      2  C   UNL     1      46.641   5.849  12.532  0.00  0.00    +0.000 A 
ATOM      3  C   UNL     1      46.392   6.347  11.247  0.00  0.00    +0.000 A 
ATOM      4  C   UNL     1      45.578   5.642  10.349  0.00  0.00    +0.000 A 
ATOM      5  C   UNL     1      45.002   4.423  10.713  0.00  0.00    +0.000 A 
ATOM      6  C   UNL     1      45.205   3.964  12.019  0.00  0.00    +0.000 A 
ATOM      7  C   UNL     1      46.023   4.655  12.917  0.00  0.00    +0.000 A 
BRANCH   5   8
ATOM      8  N   UNL     1      44.170   3.668   9.887  0.00  0.00    +0.000 N 
ATOM      9  H   UNL     1      43.939   4.181   9.036  0.00  0.00    +0.000 HD
BRANCH   8  10
ATOM     10  C   UNL     1      44.528   2.284   9.572  0.00  0.00    +0.000 C 
BRANCH  10  11
ATOM     11  C   UNL     1      45.530   2.260   8.428  0.00  0.00    +0.000 A 
ATOM     12  C   UNL     1      45.608   3.350   7.559  0.00  0.00    +0.000 A 
ATOM     13  C   UNL     1      46.520   3.314   6.508  0.00  0.00    +0.000 A 
ATOM     14  C   UNL     1      47.324   2.195   6.347  0.00  0.00    +0.000 A 
ATOM     15  C   UNL     1      47.184   1.154   7.250  0.00  0.00    +0.000 A 
ATOM     16  N   UNL     1      46.310   1.158   8.285  0.00  0.00    +0.000 NA
ENDBRANCH  10  11
ENDBRANCH   8  10
ENDBRANCH   5   8
ENDBRANCH   1   2
BRANCH   1  19
ATOM     17  C   UNL     1      48.607   6.055  15.622  0.00  0.00    +0.000 C 
ATOM     18  O   UNL     1      49.632   6.630  15.263  0.00  0.00    +0.000 OA
ATOM     19  N   UNL     1      47.514   5.990  14.800  0.00  0.00    +0.000 N 
ATOM     20  H   UNL     1      46.669   5.523  15.103  0.00  0.00    +0.000 HD
BRANCH  17  28
ATOM     21  C   UNL     1      48.099   7.256  18.816  0.00  0.00    +0.000 A 
ATOM     22  N   UNL     1      47.967   7.448  20.145  0.00  0.00    +0.000 NA
ATOM     23  C   UNL     1      48.015   6.378  20.943  0.00  0.00    +0.000 A 
ATOM     24  N   UNL     1      48.175   5.111  20.573  0.00  0.00    +0.000 NA
ATOM     25  C   UNL     1      48.318   4.966  19.244  0.00  0.00    +0.000 A 
ATOM     26  S   UNL     1      48.525   3.412  18.593  0.00  0.00    +0.000 S 
ATOM     27  C   UNL     1      48.630   4.035  17.017  0.00  0.00    +0.000 A 
ATOM     28  C   UNL     1      48.513   5.419  16.947  0.00  0.00    +0.000 A 
ATOM     29  C   UNL     1      48.310   5.973  18.283  0.00  0.00    +0.000 A 
BRANCH  21  31
ATOM     30  C   UNL     1      49.295   9.051  17.925  0.00  0.00    +0.000 C 
ATOM     31  O   UNL     1      48.048   8.362  17.994  0.00  0.00    +0.000 OA
ENDBRANCH  21  31
ENDBRANCH  17  28
ENDBRANCH   1  19
TORSDOF 7
ENDMDL
MODEL 3
REMARK VINA RESULT:    -7.555      1.820      2.288
REMARK INTER + INTRA:         -11.920
REMARK INTER:                 -10.971
REMARK INTRA:                  -0.949
REMARK UNBOUND:                -1.273
REMARK  Name = 
REMARK  8 active torsions:
REMARK  status: ('A' for Active; 'I' for Inactive)
REMARK    1  A    between atoms: C_1  and  O_2
REMARK    2  A    between atoms: O_2  and  C_3
REMARK    3  A    between atoms: C_10  and  C_11
REMARK    4  A    between atoms: N_13  and  C_14
REMARK    5  A    between atoms: C_14  and  C_15
REMARK    6  A    between atoms: C_18  and  N_19
REMARK    7  A    between atoms: N_19  and  C_20
REMARK    8  A    between atoms: C_20  and  C_21
REMARK                            x       y       z     vdW  Elec       q    Type
REMARK                         _______ _______ _______ _____ _____    ______ ____
ROOT
ATOM      1  C   UNL     1      48.006   7.459  13.466  0.00  0.00    +0.000 C 
ENDROOT
BRANCH   1   2
ATOM      2  C   UNL     1      47.061   6.492  12.804  0.00  0.00    +0.000 A 
ATOM      3  C   UNL     1      46.587   5.369  13.493  0.00  0.00    +0.000 A 
ATOM      4  C   UNL     1      45.706   4.468  12.877  0.00  0.00    +0.000 A 
ATOM      5  C   UNL     1      45.276   4.675  11.565  0.00  0.00    +0.000 A 
ATOM      6  C   UNL     1      45.804   5.764  10.864  0.00  0.00    +0.000 A 
ATOM      7  C   UNL     1      46.674   6.672  11.473  0.00  0.00    +0.000 A 
BRANCH   5   8
ATOM      8  N   UNL     1      44.415   3.821  10.876  0.00  0.00    +0.000 N 
ATOM      9  H   UNL     1      43.547   3.684  11.393  0.00  0.00    +0.000 HD
BRANCH   8  10
ATOM     10  C   UNL     1      44.135   4.067   9.459  0.00  0.00    +0.000 C 
BRANCH  10  11
ATOM     11  C   UNL     1      45.164   3.349   8.600  0.00  0.00    +0.000 A 
ATOM     12  C   UNL     1      45.413   1.992   8.816  0.00  0.00    +0.000 A 
ATOM     13  C   UNL     1      46.365   1.346   8.032  0.00  0.00    +0.000 A 
ATOM     14  C   UNL     1      47.045   2.067   7.061  0.00  0.00    +0.000 A 
ATOM     15  C   UNL     1      46.743   3.409   6.911  0.00  0.00    +0.000 A 
ATOM     16  N   UNL     1      45.820   4.068   7.654  0.00  0.00    +0.000 NA
ENDBRANCH  10  11
ENDBRANCH   8  10
ENDBRANCH   5   8
ENDBRANCH   1   2
BRANCH   1  19
ATOM     17  C   UNL     1      48.967   6.989  15.671  0.00  0.00    +0.000 C 
ATOM     18  O   UNL     1      50.034   6.662  15.155  0.00  0.00    +0.000 OA
ATOM     19  N   UNL     1      47.908   7.389  14.902  0.00  0.00    +0.000 N 
ATOM     20  H   UNL     1      47.035   7.666  15.333  0.00  0.00    +0.000 HD
BRANCH  17  28
ATOM     21  C   UNL     1      48.863   4.468  18.024  0.00  0.00    +0.000 A 
ATOM     22  N   UNL     1      48.736   3.699  19.126  0.00  0.00    +0.000 NA
ATOM     23  C   UNL     1      48.514   4.307  20.294  0.00  0.00    +0.000 A 
ATOM     24  N   UNL     1      48.406   5.615  20.507  0.00  0.00    +0.000 NA
ATOM     25  C   UNL     1      48.523   6.342  19.383  0.00  0.00    +0.000 A 
ATOM     26  S   UNL     1      48.418   8.034  19.470  0.00  0.00    +0.000 S 
ATOM     27  C   UNL     1      48.634   8.181  17.793  0.00  0.00    +0.000 A 
ATOM     28  C   UNL     1      48.789   6.966  17.133  0.00  0.00    +0.000 A 
ATOM     29  C   UNL     1      48.737   5.866  18.092  0.00  0.00    +0.000 A 
BRANCH  21  31
ATOM     30  C   UNL     1      47.908   3.280  16.256  0.00  0.00    +0.000 C 
ATOM     31  O   UNL     1      49.095   3.838  16.819  0.00  0.00    +0.000 OA
ENDBRANCH  21  31
ENDBRANCH  17  28
ENDBRANCH   1  19
TORSDOF 7
ENDMDL
MODEL 4
REMARK VINA RESULT:    -7.469      1.462      1.981
REMARK INTER + INTRA:         -11.798
REMARK INTER:                 -10.683
REMARK INTRA:                  -1.116
REMARK UNBOUND:                -1.273
REMARK  Name = 
REMARK  8 active torsions:
REMARK  status: ('A' for Active; 'I' for Inactive)
REMARK    1  A    between atoms: C_1  and  O_2
REMARK    2  A    between atoms: O_2  and  C_3
REMARK    3  A    between atoms: C_10  and  C_11
REMARK    4  A    between atoms: N_13  and  C_14
REMARK    5  A    between atoms: C_14  and  C_15
REMARK    6  A    between atoms: C_18  and  N_19
REMARK    7  A    between atoms: N_19  and  C_20
REMARK    8  A    between atoms: C_20  and  C_21
REMARK                            x       y       z     vdW  Elec       q    Type
REMARK                         _______ _______ _______ _____ _____    ______ ____
ROOT
ATOM      1  C   UNL     1      47.074   7.296  13.228  0.00  0.00    +0.000 C 
ENDROOT
BRANCH   1   2
ATOM      2  C   UNL     1      46.436   6.117  12.541  0.00  0.00    +0.000 A 
ATOM      3  C   UNL     1      45.864   6.251  11.270  0.00  0.00    +0.000 A 
ATOM      4  C   UNL     1      45.271   5.153  10.629  0.00  0.00    +0.000 A 
ATOM      5  C   UNL     1      45.246   3.899  11.241  0.00  0.00    +0.000 A 
ATOM      6  C   UNL     1      45.764   3.788  12.536  0.00  0.00    +0.000 A 
ATOM      7  C   UNL     1      46.365   4.875  13.177  0.00  0.00    +0.000 A 
BRANCH   5   8
ATOM      8  N   UNL     1      44.665   2.762  10.681  0.00  0.00    +0.000 N 
ATOM      9  H   UNL     1      43.895   2.424  11.257  0.00  0.00    +0.000 HD
BRANCH   8  10
ATOM     10  C   UNL     1      44.284   2.768   9.267  0.00  0.00    +0.000 C 
BRANCH  10  11
ATOM     11  C   UNL     1      45.484   2.397   8.409  0.00  0.00    +0.000 A 
ATOM     12  C   UNL     1      46.100   3.378   7.628  0.00  0.00    +0.000 A 
ATOM     13  C   UNL     1      47.190   3.026   6.838  0.00  0.00    +0.000 A 
ATOM     14  C   UNL     1      47.633   1.711   6.841  0.00  0.00    +0.000 A 
ATOM     15  C   UNL     1      46.967   0.798   7.641  0.00  0.00    +0.000 A 
ATOM     16  N   UNL     1      45.906   1.107   8.424  0.00  0.00    +0.000 NA
ENDBRANCH  10  11
ENDBRANCH   8  10
ENDBRANCH   5   8
ENDBRANCH   1   2
BRANCH   1  19
ATOM     17  C   UNL     1      48.956   7.796  14.717  0.00  0.00    +0.000 C 
ATOM     18  O   UNL     1      48.769   9.002  14.574  0.00  0.00    +0.000 OA
ATOM     19  N   UNL     1      48.164   6.882  14.076  0.00  0.00    +0.000 N 
ATOM     20  H   UNL     1      48.316   5.890  14.204  0.00  0.00    +0.000 HD
BRANCH  17  28
ATOM     21  C   UNL     1      49.171   5.217  16.998  0.00  0.00    +0.000 A 
ATOM     22  N   UNL     1      49.516   4.332  17.956  0.00  0.00    +0.000 NA
ATOM     23  C   UNL     1      50.756   4.391  18.449  0.00  0.00    +0.000 A 
ATOM     24  N   UNL     1      51.718   5.237  18.095  0.00  0.00    +0.000 NA
ATOM     25  C   UNL     1      51.328   6.111  17.151  0.00  0.00    +0.000 A 
ATOM     26  S   UNL     1      52.433   7.262  16.572  0.00  0.00    +0.000 S 
ATOM     27  C   UNL     1      51.273   7.918  15.521  0.00  0.00    +0.000 A 
ATOM     28  C   UNL     1      50.034   7.288  15.582  0.00  0.00    +0.000 A 
ATOM     29  C   UNL     1      50.075   6.195  16.549  0.00  0.00    +0.000 A 
BRANCH  21  31
ATOM     30  C   UNL     1      47.181   3.999  16.936  0.00  0.00    +0.000 C 
ATOM     31  O   UNL     1      47.890   5.153  16.489  0.00  0.00    +0.000 OA
ENDBRANCH  21  31
ENDBRANCH  17  28
ENDBRANCH   1  19
TORSDOF 7
ENDMDL
MODEL 5
REMARK VINA RESULT:    -7.344      2.297      3.731
REMARK INTER + INTRA:         -11.623
REMARK INTER:                 -10.471
REMARK INTRA:                  -1.152
REMARK UNBOUND:                -1.273
REMARK  Name = 
REMARK  8 active torsions:
REMARK  status: ('A' for Active; 'I' for Inactive)
REMARK    1  A    between atoms: C_1  and  O_2
REMARK    2  A    between atoms: O_2  and  C_3
REMARK    3  A    between atoms: C_10  and  C_11
REMARK    4  A    between atoms: N_13  and  C_14
REMARK    5  A    between atoms: C_14  and  C_15
REMARK    6  A    between atoms: C_18  and  N_19
REMARK    7  A    between atoms: N_19  and  C_20
REMARK    8  A    between atoms: C_20  and  C_21
REMARK                            x       y       z     vdW  Elec       q    Type
REMARK                         _______ _______ _______ _____ _____    ______ ____
ROOT
ATOM      1  C   UNL     1      47.301   4.136  14.994  0.00  0.00    +0.000 C 
ENDROOT
BRANCH   1   2
ATOM      2  C   UNL     1      46.655   4.452  13.671  0.00  0.00    +0.000 A 
ATOM      3  C   UNL     1      46.882   5.679  13.037  0.00  0.00    +0.000 A 
ATOM      4  C   UNL     1      46.281   5.973  11.804  0.00  0.00    +0.000 A 
ATOM      5  C   UNL     1      45.449   5.044  11.177  0.00  0.00    +0.000 A 
ATOM      6  C   UNL     1      45.177   3.847  11.847  0.00  0.00    +0.000 A 
ATOM      7  C   UNL     1      45.780   3.542  13.071  0.00  0.00    +0.000 A 
BRANCH   5   8
ATOM      8  N   UNL     1      44.802   5.263   9.961  0.00  0.00    +0.000 N 
ATOM      9  H   UNL     1      45.376   5.833   9.340  0.00  0.00    +0.000 HD
BRANCH   8  10
ATOM     10  C   UNL     1      44.229   4.129   9.234  0.00  0.00    +0.000 C 
BRANCH  10  11
ATOM     11  C   UNL     1      45.320   3.416   8.450  0.00  0.00    +0.000 A 
ATOM     12  C   UNL     1      45.531   2.050   8.652  0.00  0.00    +0.000 A 
ATOM     13  C   UNL     1      46.540   1.410   7.938  0.00  0.00    +0.000 A 
ATOM     14  C   UNL     1      47.313   2.143   7.051  0.00  0.00    +0.000 A 
ATOM     15  C   UNL     1      47.043   3.494   6.910  0.00  0.00    +0.000 A 
ATOM     16  N   UNL     1      46.068   4.148   7.585  0.00  0.00    +0.000 NA
ENDBRANCH  10  11
ENDBRANCH   8  10
ENDBRANCH   5   8
ENDBRANCH   1   2
BRANCH   1  19
ATOM     17  C   UNL     1      48.510   5.441  16.680  0.00  0.00    +0.000 C 
ATOM     18  O   UNL     1      49.310   4.522  16.842  0.00  0.00    +0.000 OA
ATOM     19  N   UNL     1      47.478   5.326  15.788  0.00  0.00    +0.000 N 
ATOM     20  H   UNL     1      46.828   6.089  15.652  0.00  0.00    +0.000 HD
BRANCH  17  28
ATOM     21  C   UNL     1      48.730   8.761  15.769  0.00  0.00    +0.000 A 
ATOM     22  N   UNL     1      48.876  10.100  15.698  0.00  0.00    +0.000 NA
ATOM     23  C   UNL     1      49.001  10.780  16.842  0.00  0.00    +0.000 A 
ATOM     24  N   UNL     1      48.991  10.280  18.074  0.00  0.00    +0.000 NA
ATOM     25  C   UNL     1      48.859   8.943  18.097  0.00  0.00    +0.000 A 
ATOM     26  S   UNL     1      48.819   8.135  19.590  0.00  0.00    +0.000 S 
ATOM     27  C   UNL     1      48.658   6.629  18.824  0.00  0.00    +0.000 A 
ATOM     28  C   UNL     1      48.632   6.699  17.436  0.00  0.00    +0.000 A 
ATOM     29  C   UNL     1      48.737   8.091  17.003  0.00  0.00    +0.000 A 
BRANCH  21  31
ATOM     30  C   UNL     1      49.860   7.732  14.004  0.00  0.00    +0.000 C 
ATOM     31  O   UNL     1      48.600   8.062  14.586  0.00  0.00    +0.000 OA
ENDBRANCH  21  31
ENDBRANCH  17  28
ENDBRANCH   1  19
TORSDOF 7
ENDMDL
MODEL 6
REMARK VINA RESULT:    -7.255      2.116      3.395
REMARK INTER + INTRA:         -11.497
REMARK INTER:                 -10.570
REMARK INTRA:                  -0.928
REMARK UNBOUND:                -1.273
REMARK  Name = 
REMARK  8 active torsions:
REMARK  status: ('A' for Active; 'I' for Inactive)
REMARK    1  A    between atoms: C_1  and  O_2
REMARK    2  A    between atoms: O_2  and  C_3
REMARK    3  A    between atoms: C_10  and  C_11
REMARK    4  A    between atoms: N_13  and  C_14
REMARK    5  A    between atoms: C_14  and  C_15
REMARK    6  A    between atoms: C_18  and  N_19
REMARK    7  A    between atoms: N_19  and  C_20
REMARK    8  A    between atoms: C_20  and  C_21
REMARK                            x       y       z     vdW  Elec       q    Type
REMARK                         _______ _______ _______ _____ _____    ______ ____
ROOT
ATOM      1  C   UNL     1      45.801   4.441  14.873  0.00  0.00    +0.000 C 
ENDROOT
BRANCH   1   2
ATOM      2  C   UNL     1      45.731   4.635  13.381  0.00  0.00    +0.000 A 
ATOM      3  C   UNL     1      46.208   5.810  12.788  0.00  0.00    +0.000 A 
ATOM      4  C   UNL     1      46.145   5.991  11.399  0.00  0.00    +0.000 A 
ATOM      5  C   UNL     1      45.612   4.998  10.574  0.00  0.00    +0.000 A 
ATOM      6  C   UNL     1      45.081   3.854  11.180  0.00  0.00    +0.000 A 
ATOM      7  C   UNL     1      45.149   3.662  12.563  0.00  0.00    +0.000 A 
BRANCH   5   8
ATOM      8  N   UNL     1      45.498   5.104   9.188  0.00  0.00    +0.000 N 
ATOM      9  H   UNL     1      46.403   5.304   8.763  0.00  0.00    +0.000 HD
BRANCH   8  10
ATOM     10  C   UNL     1      44.798   4.059   8.439  0.00  0.00    +0.000 C 
BRANCH  10  11
ATOM     11  C   UNL     1      45.803   3.219   7.667  0.00  0.00    +0.000 A 
ATOM     12  C   UNL     1      46.136   1.944   8.133  0.00  0.00    +0.000 A 
ATOM     13  C   UNL     1      47.065   1.188   7.426  0.00  0.00    +0.000 A 
ATOM     14  C   UNL     1      47.642   1.719   6.282  0.00  0.00    +0.000 A 
ATOM     15  C   UNL     1      47.262   2.990   5.887  0.00  0.00    +0.000 A 
ATOM     16  N   UNL     1      46.358   3.752   6.549  0.00  0.00    +0.000 NA
ENDBRANCH  10  11
ENDBRANCH   8  10
ENDBRANCH   5   8
ENDBRANCH   1   2
BRANCH   1  19
ATOM     17  C   UNL     1      47.403   3.646  16.549  0.00  0.00    +0.000 C 
ATOM     18  O   UNL     1      46.492   3.446  17.349  0.00  0.00    +0.000 OA
ATOM     19  N   UNL     1      47.145   4.147  15.301  0.00  0.00    +0.000 N 
ATOM     20  H   UNL     1      47.898   4.301  14.643  0.00  0.00    +0.000 HD
BRANCH  17  28
ATOM     21  C   UNL     1      50.015   5.559  17.740  0.00  0.00    +0.000 A 
ATOM     22  N   UNL     1      51.197   6.065  18.150  0.00  0.00    +0.000 NA
ATOM     23  C   UNL     1      52.239   5.235  18.240  0.00  0.00    +0.000 A 
ATOM     24  N   UNL     1      52.249   3.933  17.973  0.00  0.00    +0.000 NA
ATOM     25  C   UNL     1      51.058   3.473  17.554  0.00  0.00    +0.000 A 
ATOM     26  S   UNL     1      50.885   1.827  17.175  0.00  0.00    +0.000 S 
ATOM     27  C   UNL     1      49.253   2.045  16.761  0.00  0.00    +0.000 A 
ATOM     28  C   UNL     1      48.804   3.354  16.899  0.00  0.00    +0.000 A 
ATOM     29  C   UNL     1      49.885   4.205  17.389  0.00  0.00    +0.000 A 
BRANCH  21  31
ATOM     30  C   UNL     1      48.913   7.133  16.415  0.00  0.00    +0.000 C 
ATOM     31  O   UNL     1      48.940   6.419  17.649  0.00  0.00    +0.000 OA
ENDBRANCH  21  31
ENDBRANCH  17  28
ENDBRANCH   1  19
TORSDOF 7
ENDMDL
MODEL 7
REMARK VINA RESULT:    -7.094      2.638      3.438
REMARK INTER + INTRA:         -11.270
REMARK INTER:                 -10.375
REMARK INTRA:                  -0.896
REMARK UNBOUND:                -1.273
REMARK  Name = 
REMARK  8 active torsions:
REMARK  status: ('A' for Active; 'I' for Inactive)
REMARK    1  A    between atoms: C_1  and  O_2
REMARK    2  A    between atoms: O_2  and  C_3
REMARK    3  A    between atoms: C_10  and  C_11
REMARK    4  A    between atoms: N_13  and  C_14
REMARK    5  A    between atoms: C_14  and  C_15
REMARK    6  A    between atoms: C_18  and  N_19
REMARK    7  A    between atoms: N_19  and  C_20
REMARK    8  A    between atoms: C_20  and  C_21
REMARK                            x       y       z     vdW  Elec       q    Type
REMARK                         _______ _______ _______ _____ _____    ______ ____
ROOT
ATOM      1  C   UNL     1      47.109   4.572  14.804  0.00  0.00    +0.000 C 
ENDROOT
BRANCH   1   2
ATOM      2  C   UNL     1      46.527   4.705  13.421  0.00  0.00    +0.000 A 
ATOM      3  C   UNL     1      45.740   3.684  12.874  0.00  0.00    +0.000 A 
ATOM      4  C   UNL     1      45.197   3.808  11.587  0.00  0.00    +0.000 A 
ATOM      5  C   UNL     1      45.424   4.956  10.824  0.00  0.00    +0.000 A 
ATOM      6  C   UNL     1      46.263   5.942  11.354  0.00  0.00    +0.000 A 
ATOM      7  C   UNL     1      46.799   5.831  12.640  0.00  0.00    +0.000 A 
BRANCH   5   8
ATOM      8  N   UNL     1      44.934   5.152   9.533  0.00  0.00    +0.000 N 
ATOM      9  H   UNL     1      45.615   5.646   8.957  0.00  0.00    +0.000 HD
BRANCH   8  10
ATOM     10  C   UNL     1      44.363   4.021   8.798  0.00  0.00    +0.000 C 
BRANCH  10  11
ATOM     11  C   UNL     1      45.480   3.186   8.192  0.00  0.00    +0.000 A 
ATOM     12  C   UNL     1      46.395   3.786   7.325  0.00  0.00    +0.000 A 
ATOM     13  C   UNL     1      47.407   3.010   6.766  0.00  0.00    +0.000 A 
ATOM     14  C   UNL     1      47.477   1.661   7.079  0.00  0.00    +0.000 A 
ATOM     15  C   UNL     1      46.530   1.140   7.945  0.00  0.00    +0.000 A 
ATOM     16  N   UNL     1      45.536   1.867   8.509  0.00  0.00    +0.000 NA
ENDBRANCH  10  11
ENDBRANCH   8  10
ENDBRANCH   5   8
ENDBRANCH   1   2
BRANCH   1  19
ATOM     17  C   UNL     1      48.647   5.921  16.154  0.00  0.00    +0.000 C 
ATOM     18  O   UNL     1      49.223   4.907  16.541  0.00  0.00    +0.000 OA
ATOM     19  N   UNL     1      47.582   5.841  15.298  0.00  0.00    +0.000 N 
ATOM     20  H   UNL     1      47.117   6.680  14.975  0.00  0.00    +0.000 HD
BRANCH  17  28
ATOM     21  C   UNL     1      47.893   7.898  18.879  0.00  0.00    +0.000 A 
ATOM     22  N   UNL     1      47.747   8.878  19.796  0.00  0.00    +0.000 NA
ATOM     23  C   UNL     1      48.435  10.009  19.621  0.00  0.00    +0.000 A 
ATOM     24  N   UNL     1      49.274  10.289  18.628  0.00  0.00    +0.000 NA
ATOM     25  C   UNL     1      49.377   9.294  17.730  0.00  0.00    +0.000 A 
ATOM     26  S   UNL     1      50.412   9.478  16.397  0.00  0.00    +0.000 S 
ATOM     27  C   UNL     1      50.000   7.941  15.805  0.00  0.00    +0.000 A 
ATOM     28  C   UNL     1      49.079   7.259  16.594  0.00  0.00    +0.000 A 
ATOM     29  C   UNL     1      48.719   8.067  17.756  0.00  0.00    +0.000 A 
BRANCH  21  31
ATOM     30  C   UNL     1      47.861   5.803  19.908  0.00  0.00    +0.000 C 
ATOM     31  O   UNL     1      47.182   6.730  19.063  0.00  0.00    +0.000 OA
ENDBRANCH  21  31
ENDBRANCH  17  28
ENDBRANCH   1  19
TORSDOF 7
ENDMDL
MODEL 8
REMARK VINA RESULT:    -6.861      4.080      8.880
REMARK INTER + INTRA:         -10.943
REMARK INTER:                 -10.095
REMARK INTRA:                  -0.848
REMARK UNBOUND:                -1.273
REMARK  Name = 
REMARK  8 active torsions:
REMARK  status: ('A' for Active; 'I' for Inactive)
REMARK    1  A    between atoms: C_1  and  O_2
REMARK    2  A    between atoms: O_2  and  C_3
REMARK    3  A    between atoms: C_10  and  C_11
REMARK    4  A    between atoms: N_13  and  C_14
REMARK    5  A    between atoms: C_14  and  C_15
REMARK    6  A    between atoms: C_18  and  N_19
REMARK    7  A    between atoms: N_19  and  C_20
REMARK    8  A    between atoms: C_20  and  C_21
REMARK                            x       y       z     vdW  Elec       q    Type
REMARK                         _______ _______ _______ _____ _____    ______ ____
ROOT
ATOM      1  C   UNL     1      47.404   3.425  16.776  0.00  0.00    +0.000 C 
ENDROOT
BRANCH   1   2
ATOM      2  C   UNL     1      48.875   3.459  17.094  0.00  0.00    +0.000 A 
ATOM      3  C   UNL     1      49.521   4.671  17.369  0.00  0.00    +0.000 A 
ATOM      4  C   UNL     1      50.891   4.703  17.667  0.00  0.00    +0.000 A 
ATOM      5  C   UNL     1      51.641   3.526  17.704  0.00  0.00    +0.000 A 
ATOM      6  C   UNL     1      51.001   2.328  17.367  0.00  0.00    +0.000 A 
ATOM      7  C   UNL     1      49.635   2.286  17.079  0.00  0.00    +0.000 A 
BRANCH   5   8
ATOM      8  N   UNL     1      53.008   3.472  17.976  0.00  0.00    +0.000 N 
ATOM      9  H   UNL     1      53.380   4.403  18.156  0.00  0.00    +0.000 HD
BRANCH   8  10
ATOM     10  C   UNL     1      53.509   2.518  18.968  0.00  0.00    +0.000 C 
BRANCH  10  11
ATOM     11  C   UNL     1      54.065   1.290  18.264  0.00  0.00    +0.000 A 
ATOM     12  C   UNL     1      54.696   1.433  17.027  0.00  0.00    +0.000 A 
ATOM     13  C   UNL     1      55.191   0.301  16.385  0.00  0.00    +0.000 A 
ATOM     14  C   UNL     1      55.041  -0.939  16.987  0.00  0.00    +0.000 A 
ATOM     15  C   UNL     1      54.401  -0.998  18.214  0.00  0.00    +0.000 A 
ATOM     16  N   UNL     1      53.911   0.083  18.867  0.00  0.00    +0.000 NA
ENDBRANCH  10  11
ENDBRANCH   8  10
ENDBRANCH   5   8
ENDBRANCH   1   2
BRANCH   1  19
ATOM     17  C   UNL     1      46.956   4.291  14.527  0.00  0.00    +0.000 C 
ATOM     18  O   UNL     1      47.212   3.194  14.036  0.00  0.00    +0.000 OA
ATOM     19  N   UNL     1      47.037   4.492  15.878  0.00  0.00    +0.000 N 
ATOM     20  H   UNL     1      46.816   5.395  16.278  0.00  0.00    +0.000 HD
BRANCH  17  28
ATOM     21  C   UNL     1      44.116   5.028  12.712  0.00  0.00    +0.000 A 
ATOM     22  N   UNL     1      43.170   5.539  11.898  0.00  0.00    +0.000 NA
ATOM     23  C   UNL     1      43.413   6.713  11.310  0.00  0.00    +0.000 A 
ATOM     24  N   UNL     1      44.505   7.461  11.440  0.00  0.00    +0.000 NA
ATOM     25  C   UNL     1      45.427   6.909  12.246  0.00  0.00    +0.000 A 
ATOM     26  S   UNL     1      46.884   7.732  12.533  0.00  0.00    +0.000 S 
ATOM     27  C   UNL     1      47.444   6.487  13.541  0.00  0.00    +0.000 A 
ATOM     28  C   UNL     1      46.553   5.429  13.683  0.00  0.00    +0.000 A 
ATOM     29  C   UNL     1      45.337   5.692  12.917  0.00  0.00    +0.000 A 
BRANCH  21  31
ATOM     30  C   UNL     1      43.709   2.754  12.379  0.00  0.00    +0.000 C 
ATOM     31  O   UNL     1      43.861   3.816  13.320  0.00  0.00    +0.000 OA
ENDBRANCH  21  31
ENDBRANCH  17  28
ENDBRANCH   1  19
TORSDOF 7
ENDMDL
MODEL 9
REMARK VINA RESULT:    -6.495      2.382      3.528
REMARK INTER + INTRA:         -10.426
REMARK INTER:                  -9.572
REMARK INTRA:                  -0.854
REMARK UNBOUND:                -1.273
REMARK  Name = 
REMARK  8 active torsions:
REMARK  status: ('A' for Active; 'I' for Inactive)
REMARK    1  A    between atoms: C_1  and  O_2
REMARK    2  A    between atoms: O_2  and  C_3
REMARK    3  A    between atoms: C_10  and  C_11
REMARK    4  A    between atoms: N_13  and  C_14
REMARK    5  A    between atoms: C_14  and  C_15
REMARK    6  A    between atoms: C_18  and  N_19
REMARK    7  A    between atoms: N_19  and  C_20
REMARK    8  A    between atoms: C_20  and  C_21
REMARK                            x       y       z     vdW  Elec       q    Type
REMARK                         _______ _______ _______ _____ _____    ______ ____
ROOT
ATOM      1  C   UNL     1      47.709   7.054  13.656  0.00  0.00    +0.000 C 
ENDROOT
BRANCH   1   2
ATOM      2  C   UNL     1      46.877   5.996  12.980  0.00  0.00    +0.000 A 
ATOM      3  C   UNL     1      46.761   4.715  13.533  0.00  0.00    +0.000 A 
ATOM      4  C   UNL     1      45.986   3.729  12.905  0.00  0.00    +0.000 A 
ATOM      5  C   UNL     1      45.306   4.006  11.717  0.00  0.00    +0.000 A 
ATOM      6  C   UNL     1      45.478   5.268  11.139  0.00  0.00    +0.000 A 
ATOM      7  C   UNL     1      46.241   6.259  11.764  0.00  0.00    +0.000 A 
BRANCH   5   8
ATOM      8  N   UNL     1      44.528   3.080  11.022  0.00  0.00    +0.000 N 
ATOM      9  H   UNL     1      43.708   2.813  11.565  0.00  0.00    +0.000 HD
BRANCH   8  10
ATOM     10  C   UNL     1      44.158   3.348   9.631  0.00  0.00    +0.000 C 
BRANCH  10  11
ATOM     11  C   UNL     1      45.247   2.835   8.701  0.00  0.00    +0.000 A 
ATOM     12  C   UNL     1      45.839   3.710   7.787  0.00  0.00    +0.000 A 
ATOM     13  C   UNL     1      46.826   3.228   6.933  0.00  0.00    +0.000 A 
ATOM     14  C   UNL     1      47.194   1.893   7.006  0.00  0.00    +0.000 A 
ATOM     15  C   UNL     1      46.558   1.090   7.938  0.00  0.00    +0.000 A 
ATOM     16  N   UNL     1      45.597   1.526   8.787  0.00  0.00    +0.000 NA
ENDBRANCH  10  11
ENDBRANCH   8  10
ENDBRANCH   5   8
ENDBRANCH   1   2
BRANCH   1  19
ATOM     17  C   UNL     1      48.977   6.975  15.752  0.00  0.00    +0.000 C 
ATOM     18  O   UNL     1      48.374   7.961  16.173  0.00  0.00    +0.000 OA
ATOM     19  N   UNL     1      48.712   6.468  14.509  0.00  0.00    +0.000 N 
ATOM     20  H   UNL     1      49.204   5.651  14.171  0.00  0.00    +0.000 HD
BRANCH  17  28
ATOM     21  C   UNL     1      52.426   7.020  15.762  0.00  0.00    +0.000 A 
ATOM     22  N   UNL     1      53.745   6.814  15.956  0.00  0.00    +0.000 NA
ATOM     23  C   UNL     1      54.113   5.964  16.918  0.00  0.00    +0.000 A 
ATOM     24  N   UNL     1      53.313   5.283  17.733  0.00  0.00    +0.000 NA
ATOM     25  C   UNL     1      52.009   5.505  17.495  0.00  0.00    +0.000 A 
ATOM     26  S   UNL     1      50.842   4.723  18.448  0.00  0.00    +0.000 S 
ATOM     27  C   UNL     1      49.577   5.457  17.587  0.00  0.00    +0.000 A 
ATOM     28  C   UNL     1      50.002   6.303  16.568  0.00  0.00    +0.000 A 
ATOM     29  C   UNL     1      51.462   6.342  16.525  0.00  0.00    +0.000 A 
BRANCH  21  31
ATOM     30  C   UNL     1      52.775   9.127  14.818  0.00  0.00    +0.000 C 
ATOM     31  O   UNL     1      52.049   7.900  14.768  0.00  0.00    +0.000 OA
ENDBRANCH  21  31
ENDBRANCH  17  28
ENDBRANCH   1  19
TORSDOF 7
ENDMDL
