MODEL 1
REMARK VINA RESULT:    -8.295      0.000      0.000
REMARK INTER + INTRA:         -13.342
REMARK INTER:                 -12.175
REMARK INTRA:                  -1.167
REMARK UNBOUND:                -1.167
REMARK  Name = 
REMARK  9 active torsions:
REMARK  status: ('A' for Active; 'I' for Inactive)
REMARK    1  A    between atoms: C_1  and  O_2
REMARK    2  A    between atoms: O_2  and  C_3
REMARK    3  A    between atoms: C_5  and  C_6
REMARK    4  A    between atoms: C_6  and  N_7
REMARK    5  A    between atoms: C_8  and  C_10
REMARK    6  A    between atoms: C_22  and  C_23
REMARK    7  A    between atoms: C_23  and  N_24
REMARK    8  A    between atoms: N_24  and  C_25
REMARK    9  A    between atoms: C_25  and  C_26
REMARK                            x       y       z     vdW  Elec       q    Type
REMARK                         _______ _______ _______ _____ _____    ______ ____
ROOT
ATOM      1  C   UNL     1      44.507   5.315  11.630  0.00  0.00    +0.000 A 
ATOM      2  C   UNL     1      45.474   6.254  12.072  0.00  0.00    +0.000 A 
ATOM      3  C   UNL     1      46.578   5.840  12.848  0.00  0.00    +0.000 A 
ATOM      4  C   UNL     1      46.703   4.490  13.165  0.00  0.00    +0.000 A 
ATOM      5  C   UNL     1      45.764   3.558  12.682  0.00  0.00    +0.000 A 
ATOM      6  C   UNL     1      44.694   3.961  11.871  0.00  0.00    +0.000 A 
ENDROOT
BRANCH   1   8
ATOM      7  C   UNL     1      42.244   5.947  11.784  0.00  0.00    +0.000 C 
ATOM      8  O   UNL     1      43.415   5.846  10.982  0.00  0.00    +0.000 OA
ENDBRANCH   1   8
BRANCH   3   9
ATOM      9  C   UNL     1      47.592   6.845  13.369  0.00  0.00    +0.000 C 
BRANCH   9  10
ATOM     10  N   UNL     1      47.839   6.711  14.783  0.00  0.00    +0.000 N 
ATOM     11  C   UNL     1      49.097   6.808  15.328  0.00  0.00    +0.000 C 
ATOM     12  O   UNL     1      50.096   7.035  14.659  0.00  0.00    +0.000 OA
ATOM     13  H   UNL     1      47.176   6.135  15.296  0.00  0.00    +0.000 HD
BRANCH  11  14
ATOM     14  C   UNL     1      49.147   6.688  16.792  0.00  0.00    +0.000 A 
ATOM     15  C   UNL     1      49.456   7.803  17.565  0.00  0.00    +0.000 A 
ATOM     16  S   UNL     1      49.453   7.494  19.242  0.00  0.00    +0.000 S 
ATOM     17  C   UNL     1      49.064   5.857  18.989  0.00  0.00    +0.000 A 
ATOM     18  N   UNL     1      48.939   4.996  20.047  0.00  0.00    +0.000 NA
ATOM     19  C   UNL     1      48.665   3.782  19.712  0.00  0.00    +0.000 A 
ATOM     20  N   UNL     1      48.490   3.351  18.426  0.00  0.00    +0.000 N 
ATOM     21  C   UNL     1      48.551   4.182  17.329  0.00  0.00    +0.000 A 
ATOM     22  O   UNL     1      48.304   3.786  16.212  0.00  0.00    +0.000 OA
ATOM     23  C   UNL     1      48.908   5.559  17.663  0.00  0.00    +0.000 A 
ATOM     24  H   UNL     1      48.243   2.381  18.239  0.00  0.00    +0.000 HD
ENDBRANCH  11  14
ENDBRANCH   9  10
ENDBRANCH   3   9
BRANCH   6  25
ATOM     25  C   UNL     1      43.815   2.860  11.285  0.00  0.00    +0.000 C 
BRANCH  25  26
ATOM     26  N   UNL     1      44.392   2.162  10.130  0.00  0.00    +0.000 NA
ATOM     27  H   UNL     1      43.801   1.399   9.821  0.00  0.00    +0.000 HD
BRANCH  26  28
ATOM     28  C   UNL     1      44.570   2.986   8.950  0.00  0.00    +0.000 C 
BRANCH  28  29
ATOM     29  C   UNL     1      45.764   2.488   8.166  0.00  0.00    +0.000 A 
ATOM     30  C   UNL     1      46.542   3.350   7.381  0.00  0.00    +0.000 A 
ATOM     31  C   UNL     1      47.628   2.823   6.687  0.00  0.00    +0.000 A 
ATOM     32  N   UNL     1      47.967   1.519   6.702  0.00  0.00    +0.000 NA
ATOM     33  C   UNL     1      47.182   0.701   7.434  0.00  0.00    +0.000 A 
ATOM     34  C   UNL     1      46.086   1.132   8.169  0.00  0.00    +0.000 A 
ENDBRANCH  28  29
ENDBRANCH  26  28
ENDBRANCH  25  26
ENDBRANCH   6  25
TORSDOF 8
ENDMDL
MODEL 2
REMARK VINA RESULT:    -8.179      1.987      2.697
REMARK INTER + INTRA:         -13.171
REMARK INTER:                 -11.972
REMARK INTRA:                  -1.199
REMARK UNBOUND:                -1.167
REMARK  Name = 
REMARK  9 active torsions:
REMARK  status: ('A' for Active; 'I' for Inactive)
REMARK    1  A    between atoms: C_1  and  O_2
REMARK    2  A    between atoms: O_2  and  C_3
REMARK    3  A    between atoms: C_5  and  C_6
REMARK    4  A    between atoms: C_6  and  N_7
REMARK    5  A    between atoms: C_8  and  C_10
REMARK    6  A    between atoms: C_22  and  C_23
REMARK    7  A    between atoms: C_23  and  N_24
REMARK    8  A    between atoms: N_24  and  C_25
REMARK    9  A    between atoms: C_25  and  C_26
REMARK                            x       y       z     vdW  Elec       q    Type
REMARK                         _______ _______ _______ _____ _____    ______ ____
ROOT
ATOM      1  C   UNL     1      45.436   3.984  12.091  0.00  0.00    +0.000 A 
ATOM      2  C   UNL     1      45.914   3.693  13.394  0.00  0.00    +0.000 A 
ATOM      3  C   UNL     1      46.725   4.617  14.088  0.00  0.00    +0.000 A 
ATOM      4  C   UNL     1      47.042   5.824  13.469  0.00  0.00    +0.000 A 
ATOM      5  C   UNL     1      46.524   6.125  12.194  0.00  0.00    +0.000 A 
ATOM      6  C   UNL     1      45.678   5.228  11.524  0.00  0.00    +0.000 A 
ENDROOT
BRANCH   1   8
ATOM      7  C   UNL     1      43.364   2.915  11.764  0.00  0.00    +0.000 C 
ATOM      8  O   UNL     1      44.754   2.965  11.466  0.00  0.00    +0.000 OA
ENDBRANCH   1   8
BRANCH   3   9
ATOM      9  C   UNL     1      47.283   4.294  15.464  0.00  0.00    +0.000 C 
BRANCH   9  10
ATOM     10  N   UNL     1      47.701   5.469  16.189  0.00  0.00    +0.000 N 
ATOM     11  C   UNL     1      48.940   5.577  16.774  0.00  0.00    +0.000 C 
ATOM     12  O   UNL     1      49.786   4.696  16.706  0.00  0.00    +0.000 OA
ATOM     13  H   UNL     1      46.957   6.010  16.621  0.00  0.00    +0.000 HD
BRANCH  11  14
ATOM     14  C   UNL     1      49.202   6.864  17.432  0.00  0.00    +0.000 A 
ATOM     15  C   UNL     1      50.144   7.735  16.892  0.00  0.00    +0.000 A 
ATOM     16  S   UNL     1      50.312   9.188  17.768  0.00  0.00    +0.000 S 
ATOM     17  C   UNL     1      49.151   8.692  18.909  0.00  0.00    +0.000 A 
ATOM     18  N   UNL     1      48.834   9.489  19.977  0.00  0.00    +0.000 NA
ATOM     19  C   UNL     1      47.957   8.982  20.774  0.00  0.00    +0.000 A 
ATOM     20  N   UNL     1      47.359   7.765  20.598  0.00  0.00    +0.000 N 
ATOM     21  C   UNL     1      47.600   6.946  19.517  0.00  0.00    +0.000 A 
ATOM     22  O   UNL     1      46.988   5.916  19.347  0.00  0.00    +0.000 OA
ATOM     23  C   UNL     1      48.624   7.465  18.613  0.00  0.00    +0.000 A 
ATOM     24  H   UNL     1      46.651   7.442  21.255  0.00  0.00    +0.000 HD
ENDBRANCH  11  14
ENDBRANCH   9  10
ENDBRANCH   3   9
BRANCH   6  25
ATOM     25  C   UNL     1      45.060   5.704  10.214  0.00  0.00    +0.000 C 
BRANCH  25  26
ATOM     26  N   UNL     1      45.686   5.157   9.004  0.00  0.00    +0.000 NA
ATOM     27  H   UNL     1      46.598   4.762   9.201  0.00  0.00    +0.000 HD
BRANCH  26  28
ATOM     28  C   UNL     1      44.949   4.079   8.374  0.00  0.00    +0.000 C 
BRANCH  28  29
ATOM     29  C   UNL     1      45.921   3.090   7.772  0.00  0.00    +0.000 A 
ATOM     30  C   UNL     1      46.718   3.420   6.666  0.00  0.00    +0.000 A 
ATOM     31  C   UNL     1      47.593   2.460   6.164  0.00  0.00    +0.000 A 
ATOM     32  N   UNL     1      47.705   1.213   6.663  0.00  0.00    +0.000 NA
ATOM     33  C   UNL     1      46.902   0.906   7.704  0.00  0.00    +0.000 A 
ATOM     34  C   UNL     1      46.007   1.795   8.281  0.00  0.00    +0.000 A 
ENDBRANCH  28  29
ENDBRANCH  26  28
ENDBRANCH  25  26
ENDBRANCH   6  25
TORSDOF 8
ENDMDL
MODEL 3
REMARK VINA RESULT:    -8.086      1.599      2.447
REMARK INTER + INTRA:         -13.035
REMARK INTER:                 -11.854
REMARK INTRA:                  -1.181
REMARK UNBOUND:                -1.167
REMARK  Name = 
REMARK  9 active torsions:
REMARK  status: ('A' for Active; 'I' for Inactive)
REMARK    1  A    between atoms: C_1  and  O_2
REMARK    2  A    between atoms: O_2  and  C_3
REMARK    3  A    between atoms: C_5  and  C_6
REMARK    4  A    between atoms: C_6  and  N_7
REMARK    5  A    between atoms: C_8  and  C_10
REMARK    6  A    between atoms: C_22  and  C_23
REMARK    7  A    between atoms: C_23  and  N_24
REMARK    8  A    between atoms: N_24  and  C_25
REMARK    9  A    between atoms: C_25  and  C_26
REMARK                            x       y       z     vdW  Elec       q    Type
REMARK                         _______ _______ _______ _____ _____    ______ ____
ROOT
ATOM      1  C   UNL     1      45.670   4.473  12.603  0.00  0.00    +0.000 A 
ATOM      2  C   UNL     1      46.305   5.654  13.065  0.00  0.00    +0.000 A 
ATOM      3  C   UNL     1      46.045   6.900  12.453  0.00  0.00    +0.000 A 
ATOM      4  C   UNL     1      45.149   6.946  11.389  0.00  0.00    +0.000 A 
ATOM      5  C   UNL     1      44.487   5.777  10.967  0.00  0.00    +0.000 A 
ATOM      6  C   UNL     1      44.707   4.548  11.606  0.00  0.00    +0.000 A 
ENDROOT
BRANCH   1   8
ATOM      7  C   UNL     1      47.146   3.460  14.132  0.00  0.00    +0.000 C 
ATOM      8  O   UNL     1      46.086   3.304  13.197  0.00  0.00    +0.000 OA
ENDBRANCH   1   8
BRANCH   3   9
ATOM      9  C   UNL     1      46.758   8.163  12.908  0.00  0.00    +0.000 C 
BRANCH   9  10
ATOM     10  N   UNL     1      47.185   8.100  14.283  0.00  0.00    +0.000 N 
ATOM     11  C   UNL     1      48.066   9.005  14.827  0.00  0.00    +0.000 C 
ATOM     12  O   UNL     1      48.536   9.939  14.193  0.00  0.00    +0.000 OA
ATOM     13  H   UNL     1      47.178   7.177  14.708  0.00  0.00    +0.000 HD
BRANCH  11  14
ATOM     14  C   UNL     1      48.350   8.807  16.255  0.00  0.00    +0.000 A 
ATOM     15  C   UNL     1      48.083   9.832  17.159  0.00  0.00    +0.000 A 
ATOM     16  S   UNL     1      48.454   9.431  18.775  0.00  0.00    +0.000 S 
ATOM     17  C   UNL     1      49.006   7.888  18.317  0.00  0.00    +0.000 A 
ATOM     18  N   UNL     1      49.506   7.019  19.250  0.00  0.00    +0.000 NA
ATOM     19  C   UNL     1      49.909   5.895  18.764  0.00  0.00    +0.000 A 
ATOM     20  N   UNL     1      49.847   5.554  17.441  0.00  0.00    +0.000 N 
ATOM     21  C   UNL     1      49.306   6.366  16.469  0.00  0.00    +0.000 A 
ATOM     22  O   UNL     1      49.187   5.997  15.322  0.00  0.00    +0.000 OA
ATOM     23  C   UNL     1      48.881   7.670  16.973  0.00  0.00    +0.000 A 
ATOM     24  H   UNL     1      50.157   4.633  17.134  0.00  0.00    +0.000 HD
ENDBRANCH  11  14
ENDBRANCH   9  10
ENDBRANCH   3   9
BRANCH   6  25
ATOM     25  C   UNL     1      43.840   3.373  11.167  0.00  0.00    +0.000 C 
BRANCH  25  26
ATOM     26  N   UNL     1      44.425   2.540  10.109  0.00  0.00    +0.000 NA
ATOM     27  H   UNL     1      43.839   1.741   9.895  0.00  0.00    +0.000 HD
BRANCH  26  28
ATOM     28  C   UNL     1      44.605   3.212   8.837  0.00  0.00    +0.000 C 
BRANCH  28  29
ATOM     29  C   UNL     1      45.760   2.579   8.094  0.00  0.00    +0.000 A 
ATOM     30  C   UNL     1      46.040   1.209   8.197  0.00  0.00    +0.000 A 
ATOM     31  C   UNL     1      47.119   0.693   7.483  0.00  0.00    +0.000 A 
ATOM     32  N   UNL     1      47.934   1.440   6.711  0.00  0.00    +0.000 NA
ATOM     33  C   UNL     1      47.668   2.761   6.656  0.00  0.00    +0.000 A 
ATOM     34  C   UNL     1      46.611   3.368   7.321  0.00  0.00    +0.000 A 
ENDBRANCH  28  29
ENDBRANCH  26  28
ENDBRANCH  25  26
ENDBRANCH   6  25
TORSDOF 8
ENDMDL
MODEL 4
REMARK VINA RESULT:    -8.027      1.998      3.193
REMARK INTER + INTRA:         -12.948
REMARK INTER:                 -11.745
REMARK INTRA:                  -1.203
REMARK UNBOUND:                -1.167
REMARK  Name = 
REMARK  9 active torsions:
REMARK  status: ('A' for Active; 'I' for Inactive)
REMARK    1  A    between atoms: C_1  and  O_2
REMARK    2  A    between atoms: O_2  and  C_3
REMARK    3  A    between atoms: C_5  and  C_6
REMARK    4  A    between atoms: C_6  and  N_7
REMARK    5  A    between atoms: C_8  and  C_10
REMARK    6  A    between atoms: C_22  and  C_23
REMARK    7  A    between atoms: C_23  and  N_24
REMARK    8  A    between atoms: N_24  and  C_25
REMARK    9  A    between atoms: C_25  and  C_26
REMARK                            x       y       z     vdW  Elec       q    Type
REMARK                         _______ _______ _______ _____ _____    ______ ____
ROOT
ATOM      1  C   UNL     1      46.214   6.217  12.204  0.00  0.00    +0.000 A 
ATOM      2  C   UNL     1      46.913   5.805  13.368  0.00  0.00    +0.000 A 
ATOM      3  C   UNL     1      46.755   4.498  13.879  0.00  0.00    +0.000 A 
ATOM      4  C   UNL     1      45.904   3.620  13.215  0.00  0.00    +0.000 A 
ATOM      5  C   UNL     1      45.250   4.021  12.034  0.00  0.00    +0.000 A 
ATOM      6  C   UNL     1      45.445   5.303  11.497  0.00  0.00    +0.000 A 
ENDROOT
BRANCH   1   8
ATOM      7  C   UNL     1      45.429   8.416  12.503  0.00  0.00    +0.000 C 
ATOM      8  O   UNL     1      46.354   7.543  11.866  0.00  0.00    +0.000 OA
ENDBRANCH   1   8
BRANCH   3   9
ATOM      9  C   UNL     1      47.461   4.063  15.153  0.00  0.00    +0.000 C 
BRANCH   9  10
ATOM     10  N   UNL     1      47.421   5.067  16.187  0.00  0.00    +0.000 N 
ATOM     11  C   UNL     1      48.546   5.485  16.856  0.00  0.00    +0.000 C 
ATOM     12  O   UNL     1      49.664   5.053  16.613  0.00  0.00    +0.000 OA
ATOM     13  H   UNL     1      46.546   5.143  16.698  0.00  0.00    +0.000 HD
BRANCH  11  14
ATOM     14  C   UNL     1      48.317   6.548  17.846  0.00  0.00    +0.000 A 
ATOM     15  C   UNL     1      48.160   6.216  19.189  0.00  0.00    +0.000 A 
ATOM     16  S   UNL     1      47.920   7.567  20.202  0.00  0.00    +0.000 S 
ATOM     17  C   UNL     1      47.991   8.634  18.878  0.00  0.00    +0.000 A 
ATOM     18  N   UNL     1      47.823   9.982  19.056  0.00  0.00    +0.000 NA
ATOM     19  C   UNL     1      47.878  10.671  17.968  0.00  0.00    +0.000 A 
ATOM     20  N   UNL     1      48.098  10.143  16.725  0.00  0.00    +0.000 N 
ATOM     21  C   UNL     1      48.326   8.805  16.494  0.00  0.00    +0.000 A 
ATOM     22  O   UNL     1      48.605   8.385  15.394  0.00  0.00    +0.000 OA
ATOM     23  C   UNL     1      48.225   7.983  17.699  0.00  0.00    +0.000 A 
ATOM     24  H   UNL     1      48.159  10.755  15.913  0.00  0.00    +0.000 HD
ENDBRANCH  11  14
ENDBRANCH   9  10
ENDBRANCH   3   9
BRANCH   6  25
ATOM     25  C   UNL     1      44.804   5.593  10.144  0.00  0.00    +0.000 C 
BRANCH  25  26
ATOM     26  N   UNL     1      45.538   5.060   8.990  0.00  0.00    +0.000 NA
ATOM     27  H   UNL     1      46.451   4.713   9.255  0.00  0.00    +0.000 HD
BRANCH  26  28
ATOM     28  C   UNL     1      44.898   3.940   8.328  0.00  0.00    +0.000 C 
BRANCH  28  29
ATOM     29  C   UNL     1      45.957   3.005   7.788  0.00  0.00    +0.000 A 
ATOM     30  C   UNL     1      46.012   1.656   8.167  0.00  0.00    +0.000 A 
ATOM     31  C   UNL     1      47.014   0.852   7.630  0.00  0.00    +0.000 A 
ATOM     32  N   UNL     1      47.959   1.299   6.778  0.00  0.00    +0.000 NA
ATOM     33  C   UNL     1      47.909   2.608   6.456  0.00  0.00    +0.000 A 
ATOM     34  C   UNL     1      46.944   3.487   6.930  0.00  0.00    +0.000 A 
ENDBRANCH  28  29
ENDBRANCH  26  28
ENDBRANCH  25  26
ENDBRANCH   6  25
TORSDOF 8
ENDMDL
MODEL 5
REMARK VINA RESULT:    -7.779      1.659      2.318
REMARK INTER + INTRA:         -12.584
REMARK INTER:                 -11.492
REMARK INTRA:                  -1.092
REMARK UNBOUND:                -1.167
REMARK  Name = 
REMARK  9 active torsions:
REMARK  status: ('A' for Active; 'I' for Inactive)
REMARK    1  A    between atoms: C_1  and  O_2
REMARK    2  A    between atoms: O_2  and  C_3
REMARK    3  A    between atoms: C_5  and  C_6
REMARK    4  A    between atoms: C_6  and  N_7
REMARK    5  A    between atoms: C_8  and  C_10
REMARK    6  A    between atoms: C_22  and  C_23
REMARK    7  A    between atoms: C_23  and  N_24
REMARK    8  A    between atoms: N_24  and  C_25
REMARK    9  A    between atoms: C_25  and  C_26
REMARK                            x       y       z     vdW  Elec       q    Type
REMARK                         _______ _______ _______ _____ _____    ______ ____
ROOT
ATOM      1  C   UNL     1      44.588   5.322  12.514  0.00  0.00    +0.000 A 
ATOM      2  C   UNL     1      45.624   5.839  13.333  0.00  0.00    +0.000 A 
ATOM      3  C   UNL     1      46.764   6.443  12.760  0.00  0.00    +0.000 A 
ATOM      4  C   UNL     1      46.850   6.525  11.373  0.00  0.00    +0.000 A 
ATOM      5  C   UNL     1      45.796   6.052  10.567  0.00  0.00    +0.000 A 
ATOM      6  C   UNL     1      44.640   5.497  11.137  0.00  0.00    +0.000 A 
ENDROOT
BRANCH   1   8
ATOM      7  C   UNL     1      43.558   3.250  12.947  0.00  0.00    +0.000 C 
ATOM      8  O   UNL     1      43.584   4.654  13.175  0.00  0.00    +0.000 OA
ENDBRANCH   1   8
BRANCH   3   9
ATOM      9  C   UNL     1      47.902   6.955  13.628  0.00  0.00    +0.000 C 
BRANCH   9  10
ATOM     10  N   UNL     1      47.877   6.411  14.963  0.00  0.00    +0.000 N 
ATOM     11  C   UNL     1      49.005   6.308  15.742  0.00  0.00    +0.000 C 
ATOM     12  O   UNL     1      50.107   6.685  15.369  0.00  0.00    +0.000 OA
ATOM     13  H   UNL     1      47.143   5.735  15.152  0.00  0.00    +0.000 HD
BRANCH  11  14
ATOM     14  C   UNL     1      48.776   5.770  17.090  0.00  0.00    +0.000 A 
ATOM     15  C   UNL     1      49.005   4.420  17.341  0.00  0.00    +0.000 A 
ATOM     16  S   UNL     1      48.708   3.966  18.958  0.00  0.00    +0.000 S 
ATOM     17  C   UNL     1      48.241   5.550  19.368  0.00  0.00    +0.000 A 
ATOM     18  N   UNL     1      47.824   5.850  20.639  0.00  0.00    +0.000 NA
ATOM     19  C   UNL     1      47.478   7.080  20.805  0.00  0.00    +0.000 A 
ATOM     20  N   UNL     1      47.521   8.039  19.830  0.00  0.00    +0.000 N 
ATOM     21  C   UNL     1      47.981   7.807  18.553  0.00  0.00    +0.000 A 
ATOM     22  O   UNL     1      48.089   8.698  17.741  0.00  0.00    +0.000 OA
ATOM     23  C   UNL     1      48.339   6.411  18.310  0.00  0.00    +0.000 A 
ATOM     24  H   UNL     1      47.261   9.000  20.045  0.00  0.00    +0.000 HD
ENDBRANCH  11  14
ENDBRANCH   9  10
ENDBRANCH   3   9
BRANCH   6  25
ATOM     25  C   UNL     1      43.500   5.143  10.189  0.00  0.00    +0.000 C 
BRANCH  25  26
ATOM     26  N   UNL     1      43.897   4.346   9.021  0.00  0.00    +0.000 NA
ATOM     27  H   UNL     1      44.658   4.781   8.513  0.00  0.00    +0.000 HD
BRANCH  26  28
ATOM     28  C   UNL     1      44.378   3.014   9.330  0.00  0.00    +0.000 C 
BRANCH  28  29
ATOM     29  C   UNL     1      45.539   2.676   8.423  0.00  0.00    +0.000 A 
ATOM     30  C   UNL     1      46.175   3.654   7.644  0.00  0.00    +0.000 A 
ATOM     31  C   UNL     1      47.240   3.272   6.832  0.00  0.00    +0.000 A 
ATOM     32  N   UNL     1      47.685   2.004   6.726  0.00  0.00    +0.000 NA
ATOM     33  C   UNL     1      47.035   1.074   7.455  0.00  0.00    +0.000 A 
ATOM     34  C   UNL     1      45.972   1.357   8.302  0.00  0.00    +0.000 A 
ENDBRANCH  28  29
ENDBRANCH  26  28
ENDBRANCH  25  26
ENDBRANCH   6  25
TORSDOF 8
ENDMDL
MODEL 6
REMARK VINA RESULT:    -7.725      1.927      2.800
REMARK INTER + INTRA:         -12.505
REMARK INTER:                 -11.087
REMARK INTRA:                  -1.418
REMARK UNBOUND:                -1.167
REMARK  Name = 
REMARK  9 active torsions:
REMARK  status: ('A' for Active; 'I' for Inactive)
REMARK    1  A    between atoms: C_1  and  O_2
REMARK    2  A    between atoms: O_2  and  C_3
REMARK    3  A    between atoms: C_5  and  C_6
REMARK    4  A    between atoms: C_6  and  N_7
REMARK    5  A    between atoms: C_8  and  C_10
REMARK    6  A    between atoms: C_22  and  C_23
REMARK    7  A    between atoms: C_23  and  N_24
REMARK    8  A    between atoms: N_24  and  C_25
REMARK    9  A    between atoms: C_25  and  C_26
REMARK                            x       y       z     vdW  Elec       q    Type
REMARK                         _______ _______ _______ _____ _____    ______ ____
ROOT
ATOM      1  C   UNL     1      46.303   5.900  12.207  0.00  0.00    +0.000 A 
ATOM      2  C   UNL     1      46.983   5.297  13.296  0.00  0.00    +0.000 A 
ATOM      3  C   UNL     1      46.727   3.956  13.653  0.00  0.00    +0.000 A 
ATOM      4  C   UNL     1      45.797   3.233  12.910  0.00  0.00    +0.000 A 
ATOM      5  C   UNL     1      45.161   3.825  11.801  0.00  0.00    +0.000 A 
ATOM      6  C   UNL     1      45.451   5.142  11.416  0.00  0.00    +0.000 A 
ENDROOT
BRANCH   1   8
ATOM      7  C   UNL     1      45.750   8.101  12.833  0.00  0.00    +0.000 C 
ATOM      8  O   UNL     1      46.546   7.242  12.025  0.00  0.00    +0.000 OA
ENDBRANCH   1   8
BRANCH   3   9
ATOM      9  C   UNL     1      47.413   3.316  14.848  0.00  0.00    +0.000 C 
BRANCH   9  10
ATOM     10  N   UNL     1      47.735   4.265  15.885  0.00  0.00    +0.000 N 
ATOM     11  C   UNL     1      47.325   4.108  17.187  0.00  0.00    +0.000 C 
ATOM     12  O   UNL     1      46.676   3.144  17.567  0.00  0.00    +0.000 OA
ATOM     13  H   UNL     1      47.881   5.223  15.578  0.00  0.00    +0.000 HD
BRANCH  11  14
ATOM     14  C   UNL     1      47.786   5.155  18.110  0.00  0.00    +0.000 A 
ATOM     15  C   UNL     1      46.865   5.814  18.919  0.00  0.00    +0.000 A 
ATOM     16  S   UNL     1      47.568   6.984  19.941  0.00  0.00    +0.000 S 
ATOM     17  C   UNL     1      49.119   6.667  19.317  0.00  0.00    +0.000 A 
ATOM     18  N   UNL     1      50.208   7.373  19.758  0.00  0.00    +0.000 NA
ATOM     19  C   UNL     1      51.316   7.048  19.186  0.00  0.00    +0.000 A 
ATOM     20  N   UNL     1      51.442   6.078  18.230  0.00  0.00    +0.000 N 
ATOM     21  C   UNL     1      50.393   5.302  17.788  0.00  0.00    +0.000 A 
ATOM     22  O   UNL     1      50.555   4.393  17.006  0.00  0.00    +0.000 OA
ATOM     23  C   UNL     1      49.108   5.673  18.379  0.00  0.00    +0.000 A 
ATOM     24  H   UNL     1      52.357   5.854  17.844  0.00  0.00    +0.000 HD
ENDBRANCH  11  14
ENDBRANCH   9  10
ENDBRANCH   3   9
BRANCH   6  25
ATOM     25  C   UNL     1      44.816   5.643  10.123  0.00  0.00    +0.000 C 
BRANCH  25  26
ATOM     26  N   UNL     1      44.811   4.669   9.024  0.00  0.00    +0.000 NA
ATOM     27  H   UNL     1      44.039   4.828   8.388  0.00  0.00    +0.000 HD
BRANCH  26  28
ATOM     28  C   UNL     1      45.991   4.698   8.181  0.00  0.00    +0.000 C 
BRANCH  28  29
ATOM     29  C   UNL     1      46.388   3.284   7.824  0.00  0.00    +0.000 A 
ATOM     30  C   UNL     1      45.806   2.174   8.452  0.00  0.00    +0.000 A 
ATOM     31  C   UNL     1      46.219   0.899   8.073  0.00  0.00    +0.000 A 
ATOM     32  N   UNL     1      47.170   0.663   7.147  0.00  0.00    +0.000 NA
ATOM     33  C   UNL     1      47.742   1.747   6.581  0.00  0.00    +0.000 A 
ATOM     34  C   UNL     1      47.392   3.055   6.885  0.00  0.00    +0.000 A 
ENDBRANCH  28  29
ENDBRANCH  26  28
ENDBRANCH  25  26
ENDBRANCH   6  25
TORSDOF 8
ENDMDL
MODEL 7
REMARK VINA RESULT:    -7.205      1.843      2.240
REMARK INTER + INTRA:         -11.742
REMARK INTER:                 -10.464
REMARK INTRA:                  -1.278
REMARK UNBOUND:                -1.167
REMARK  Name = 
REMARK  9 active torsions:
REMARK  status: ('A' for Active; 'I' for Inactive)
REMARK    1  A    between atoms: C_1  and  O_2
REMARK    2  A    between atoms: O_2  and  C_3
REMARK    3  A    between atoms: C_5  and  C_6
REMARK    4  A    between atoms: C_6  and  N_7
REMARK    5  A    between atoms: C_8  and  C_10
REMARK    6  A    between atoms: C_22  and  C_23
REMARK    7  A    between atoms: C_23  and  N_24
REMARK    8  A    between atoms: N_24  and  C_25
REMARK    9  A    between atoms: C_25  and  C_26
REMARK                            x       y       z     vdW  Elec       q    Type
REMARK                         _______ _______ _______ _____ _____    ______ ____
ROOT
ATOM      1  C   UNL     1      44.966   7.899  11.665  0.00  0.00    +0.000 A 
ATOM      2  C   UNL     1      46.217   8.451  12.042  0.00  0.00    +0.000 A 
ATOM      3  C   UNL     1      47.224   7.638  12.605  0.00  0.00    +0.000 A 
ATOM      4  C   UNL     1      46.968   6.280  12.776  0.00  0.00    +0.000 A 
ATOM      5  C   UNL     1      45.741   5.731  12.356  0.00  0.00    +0.000 A 
ATOM      6  C   UNL     1      44.758   6.529  11.752  0.00  0.00    +0.000 A 
ENDROOT
BRANCH   1   8
ATOM      7  C   UNL     1      44.479  10.149  11.172  0.00  0.00    +0.000 C 
ATOM      8  O   UNL     1      44.021   8.803  11.238  0.00  0.00    +0.000 OA
ENDBRANCH   1   8
BRANCH   3   9
ATOM      9  C   UNL     1      48.549   8.228  13.058  0.00  0.00    +0.000 C 
BRANCH   9  10
ATOM     10  N   UNL     1      49.254   7.378  13.985  0.00  0.00    +0.000 N 
ATOM     11  C   UNL     1      49.162   7.532  15.348  0.00  0.00    +0.000 C 
ATOM     12  O   UNL     1      48.463   8.385  15.875  0.00  0.00    +0.000 OA
ATOM     13  H   UNL     1      50.119   6.969  13.641  0.00  0.00    +0.000 HD
BRANCH  11  14
ATOM     14  C   UNL     1      49.918   6.544  16.132  0.00  0.00    +0.000 A 
ATOM     15  C   UNL     1      51.229   6.820  16.507  0.00  0.00    +0.000 A 
ATOM     16  S   UNL     1      51.952   5.579  17.426  0.00  0.00    +0.000 S 
ATOM     17  C   UNL     1      50.548   4.623  17.330  0.00  0.00    +0.000 A 
ATOM     18  N   UNL     1      50.508   3.379  17.902  0.00  0.00    +0.000 NA
ATOM     19  C   UNL     1      49.392   2.755  17.735  0.00  0.00    +0.000 A 
ATOM     20  N   UNL     1      48.312   3.260  17.065  0.00  0.00    +0.000 N 
ATOM     21  C   UNL     1      48.277   4.524  16.518  0.00  0.00    +0.000 A 
ATOM     22  O   UNL     1      47.275   4.972  16.009  0.00  0.00    +0.000 OA
ATOM     23  C   UNL     1      49.542   5.246  16.645  0.00  0.00    +0.000 A 
ATOM     24  H   UNL     1      47.451   2.721  17.000  0.00  0.00    +0.000 HD
ENDBRANCH  11  14
ENDBRANCH   9  10
ENDBRANCH   3   9
BRANCH   6  25
ATOM     25  C   UNL     1      43.525   5.817  11.207  0.00  0.00    +0.000 C 
BRANCH  25  26
ATOM     26  N   UNL     1      43.732   5.116   9.933  0.00  0.00    +0.000 NA
ATOM     27  H   UNL     1      44.532   5.483   9.431  0.00  0.00    +0.000 HD
BRANCH  26  28
ATOM     28  C   UNL     1      43.998   3.696  10.057  0.00  0.00    +0.000 C 
BRANCH  28  29
ATOM     29  C   UNL     1      45.058   3.295   9.056  0.00  0.00    +0.000 A 
ATOM     30  C   UNL     1      45.687   4.237   8.230  0.00  0.00    +0.000 A 
ATOM     31  C   UNL     1      46.655   3.796   7.331  0.00  0.00    +0.000 A 
ATOM     32  N   UNL     1      47.011   2.504   7.186  0.00  0.00    +0.000 NA
ATOM     33  C   UNL     1      46.366   1.610   7.964  0.00  0.00    +0.000 A 
ATOM     34  C   UNL     1      45.396   1.952   8.897  0.00  0.00    +0.000 A 
ENDBRANCH  28  29
ENDBRANCH  26  28
ENDBRANCH  25  26
ENDBRANCH   6  25
TORSDOF 8
ENDMDL
MODEL 8
REMARK VINA RESULT:    -7.134      3.356      8.409
REMARK INTER + INTRA:         -11.638
REMARK INTER:                 -10.163
REMARK INTRA:                  -1.475
REMARK UNBOUND:                -1.167
REMARK  Name = 
REMARK  9 active torsions:
REMARK  status: ('A' for Active; 'I' for Inactive)
REMARK    1  A    between atoms: C_1  and  O_2
REMARK    2  A    between atoms: O_2  and  C_3
REMARK    3  A    between atoms: C_5  and  C_6
REMARK    4  A    between atoms: C_6  and  N_7
REMARK    5  A    between atoms: C_8  and  C_10
REMARK    6  A    between atoms: C_22  and  C_23
REMARK    7  A    between atoms: C_23  and  N_24
REMARK    8  A    between atoms: N_24  and  C_25
REMARK    9  A    between atoms: C_25  and  C_26
REMARK                            x       y       z     vdW  Elec       q    Type
REMARK                         _______ _______ _______ _____ _____    ______ ____
ROOT
ATOM      1  C   UNL     1      50.817   7.817  15.082  0.00  0.00    +0.000 A 
ATOM      2  C   UNL     1      50.281   8.156  13.813  0.00  0.00    +0.000 A 
ATOM      3  C   UNL     1      49.038   7.637  13.393  0.00  0.00    +0.000 A 
ATOM      4  C   UNL     1      48.344   6.788  14.251  0.00  0.00    +0.000 A 
ATOM      5  C   UNL     1      48.860   6.494  15.528  0.00  0.00    +0.000 A 
ATOM      6  C   UNL     1      50.072   7.049  15.966  0.00  0.00    +0.000 A 
ENDROOT
BRANCH   1   8
ATOM      7  C   UNL     1      52.997   8.143  14.254  0.00  0.00    +0.000 C 
ATOM      8  O   UNL     1      52.085   8.286  15.337  0.00  0.00    +0.000 OA
ENDBRANCH   1   8
BRANCH   3   9
ATOM      9  C   UNL     1      48.479   7.955  12.016  0.00  0.00    +0.000 C 
BRANCH   9  10
ATOM     10  N   UNL     1      47.683   6.882  11.473  0.00  0.00    +0.000 N 
ATOM     11  C   UNL     1      46.309   6.893  11.498  0.00  0.00    +0.000 C 
ATOM     12  O   UNL     1      45.660   7.819  11.964  0.00  0.00    +0.000 OA
ATOM     13  H   UNL     1      48.120   5.964  11.469  0.00  0.00    +0.000 HD
BRANCH  11  14
ATOM     14  C   UNL     1      45.670   5.734  10.858  0.00  0.00    +0.000 A 
ATOM     15  C   UNL     1      45.781   5.560   9.482  0.00  0.00    +0.000 A 
ATOM     16  S   UNL     1      44.999   4.158   8.906  0.00  0.00    +0.000 S 
ATOM     17  C   UNL     1      44.466   3.753  10.470  0.00  0.00    +0.000 A 
ATOM     18  N   UNL     1      43.692   2.642  10.680  0.00  0.00    +0.000 NA
ATOM     19  C   UNL     1      43.340   2.467  11.908  0.00  0.00    +0.000 A 
ATOM     20  N   UNL     1      43.699   3.285  12.943  0.00  0.00    +0.000 N 
ATOM     21  C   UNL     1      44.518   4.383  12.799  0.00  0.00    +0.000 A 
ATOM     22  O   UNL     1      44.887   5.034  13.750  0.00  0.00    +0.000 OA
ATOM     23  C   UNL     1      44.900   4.644  11.413  0.00  0.00    +0.000 A 
ATOM     24  H   UNL     1      43.408   3.065  13.895  0.00  0.00    +0.000 HD
ENDBRANCH  11  14
ENDBRANCH   9  10
ENDBRANCH   3   9
BRANCH   6  25
ATOM     25  C   UNL     1      50.475   6.780  17.412  0.00  0.00    +0.000 C 
BRANCH  25  26
ATOM     26  N   UNL     1      49.385   6.313  18.278  0.00  0.00    +0.000 NA
ATOM     27  H   UNL     1      48.548   6.107  17.746  0.00  0.00    +0.000 HD
BRANCH  26  28
ATOM     28  C   UNL     1      49.668   5.089  19.002  0.00  0.00    +0.000 C 
BRANCH  28  29
ATOM     29  C   UNL     1      49.585   3.914  18.055  0.00  0.00    +0.000 A 
ATOM     30  C   UNL     1      50.708   3.132  17.750  0.00  0.00    +0.000 A 
ATOM     31  C   UNL     1      50.559   2.063  16.870  0.00  0.00    +0.000 A 
ATOM     32  N   UNL     1      49.396   1.745  16.266  0.00  0.00    +0.000 NA
ATOM     33  C   UNL     1      48.337   2.533  16.545  0.00  0.00    +0.000 A 
ATOM     34  C   UNL     1      48.382   3.613  17.417  0.00  0.00    +0.000 A 
ENDBRANCH  28  29
ENDBRANCH  26  28
ENDBRANCH  25  26
ENDBRANCH   6  25
TORSDOF 8
ENDMDL
MODEL 9
REMARK VINA RESULT:    -6.941      3.592      8.423
REMARK INTER + INTRA:         -11.354
REMARK INTER:                  -9.429
REMARK INTRA:                  -1.925
REMARK UNBOUND:                -1.167
REMARK  Name = 
REMARK  9 active torsions:
REMARK  status: ('A' for Active; 'I' for Inactive)
REMARK    1  A    between atoms: C_1  and  O_2
REMARK    2  A    between atoms: O_2  and  C_3
REMARK    3  A    between atoms: C_5  and  C_6
REMARK    4  A    between atoms: C_6  and  N_7
REMARK    5  A    between atoms: C_8  and  C_10
REMARK    6  A    between atoms: C_22  and  C_23
REMARK    7  A    between atoms: C_23  and  N_24
REMARK    8  A    between atoms: N_24  and  C_25
REMARK    9  A    between atoms: C_25  and  C_26
REMARK                            x       y       z     vdW  Elec       q    Type
REMARK                         _______ _______ _______ _____ _____    ______ ____
ROOT
ATOM      1  C   UNL     1      49.211   7.699  18.510  0.00  0.00    +0.000 A 
ATOM      2  C   UNL     1      48.634   8.156  17.297  0.00  0.00    +0.000 A 
ATOM      3  C   UNL     1      49.171   7.765  16.051  0.00  0.00    +0.000 A 
ATOM      4  C   UNL     1      50.275   6.918  16.036  0.00  0.00    +0.000 A 
ATOM      5  C   UNL     1      50.813   6.431  17.244  0.00  0.00    +0.000 A 
ATOM      6  C   UNL     1      50.250   6.779  18.481  0.00  0.00    +0.000 A 
ENDROOT
BRANCH   1   8
ATOM      7  C   UNL     1      47.483   8.982  19.466  0.00  0.00    +0.000 C 
ATOM      8  O   UNL     1      48.679   8.236  19.660  0.00  0.00    +0.000 OA
ENDBRANCH   1   8
BRANCH   3   9
ATOM      9  C   UNL     1      48.592   8.289  14.748  0.00  0.00    +0.000 C 
BRANCH   9  10
ATOM     10  N   UNL     1      47.560   7.436  14.210  0.00  0.00    +0.000 N 
ATOM     11  C   UNL     1      47.819   6.453  13.285  0.00  0.00    +0.000 C 
ATOM     12  O   UNL     1      48.942   6.216  12.864  0.00  0.00    +0.000 OA
ATOM     13  H   UNL     1      46.625   7.834  14.187  0.00  0.00    +0.000 HD
BRANCH  11  14
ATOM     14  C   UNL     1      46.649   5.657  12.887  0.00  0.00    +0.000 A 
ATOM     15  C   UNL     1      46.663   4.277  13.064  0.00  0.00    +0.000 A 
ATOM     16  S   UNL     1      45.223   3.511  12.567  0.00  0.00    +0.000 S 
ATOM     17  C   UNL     1      44.546   4.992  12.077  0.00  0.00    +0.000 A 
ATOM     18  N   UNL     1      43.297   5.039  11.514  0.00  0.00    +0.000 NA
ATOM     19  C   UNL     1      42.916   6.221  11.168  0.00  0.00    +0.000 A 
ATOM     20  N   UNL     1      43.656   7.358  11.344  0.00  0.00    +0.000 N 
ATOM     21  C   UNL     1      44.892   7.377  11.951  0.00  0.00    +0.000 A 
ATOM     22  O   UNL     1      45.480   8.412  12.170  0.00  0.00    +0.000 OA
ATOM     23  C   UNL     1      45.380   6.049  12.315  0.00  0.00    +0.000 A 
ATOM     24  H   UNL     1      43.276   8.263  11.073  0.00  0.00    +0.000 HD
ENDBRANCH  11  14
ENDBRANCH   9  10
ENDBRANCH   3   9
BRANCH   6  25
ATOM     25  C   UNL     1      50.816   6.091  19.719  0.00  0.00    +0.000 C 
BRANCH  25  26
ATOM     26  N   UNL     1      50.442   4.679  19.862  0.00  0.00    +0.000 NA
ATOM     27  H   UNL     1      50.761   4.295  20.744  0.00  0.00    +0.000 HD
BRANCH  26  28
ATOM     28  C   UNL     1      49.015   4.424  19.848  0.00  0.00    +0.000 C 
BRANCH  28  29
ATOM     29  C   UNL     1      48.609   3.915  18.483  0.00  0.00    +0.000 A 
ATOM     30  C   UNL     1      47.485   4.416  17.812  0.00  0.00    +0.000 A 
ATOM     31  C   UNL     1      47.171   3.902  16.557  0.00  0.00    +0.000 A 
ATOM     32  N   UNL     1      47.873   2.923  15.951  0.00  0.00    +0.000 NA
ATOM     33  C   UNL     1      48.929   2.429  16.630  0.00  0.00    +0.000 A 
ATOM     34  C   UNL     1      49.328   2.883  17.880  0.00  0.00    +0.000 A 
ENDBRANCH  28  29
ENDBRANCH  26  28
ENDBRANCH  25  26
ENDBRANCH   6  25
TORSDOF 8
ENDMDL
