MODEL 1
REMARK VINA RESULT:    -8.087      0.000      0.000
REMARK INTER + INTRA:         -10.616
REMARK INTER:                 -10.214
REMARK INTRA:                  -0.401
REMARK UNBOUND:                -0.401
REMARK  Name = 
REMARK  5 active torsions:
REMARK  status: ('A' for Active; 'I' for Inactive)
REMARK    1  A    between atoms: N_1  and  C_2
REMARK    2  A    between atoms: C_2  and  C_3
REMARK    3  A    between atoms: C_6  and  C_7
REMARK    4  A    between atoms: C_7  and  N_8
REMARK    5  A    between atoms: C_12  and  C_13
REMARK                            x       y       z     vdW  Elec       q    Type
REMARK                         _______ _______ _______ _____ _____    ______ ____
ROOT
ATOM      1  N   UNL     1      43.769   4.745   9.740  0.00  0.00    +0.000 N 
ATOM      2  C   UNL     1      44.634   3.913   9.045  0.00  0.00    +0.000 A 
ATOM      3  N   UNL     1      44.767   2.632   9.422  0.00  0.00    +0.000 NA
ATOM      4  C   UNL     1      45.645   1.869   8.737  0.00  0.00    +0.000 A 
ATOM      5  C   UNL     1      46.385   2.331   7.677  0.00  0.00    +0.000 A 
ATOM      6  C   UNL     1      46.186   3.655   7.366  0.00  0.00    +0.000 A 
ATOM      7  N   UNL     1      45.324   4.461   8.032  0.00  0.00    +0.000 NA
ATOM      8  H   UNL     1      44.050   5.702   9.565  0.00  0.00    +0.000 HD
ENDROOT
BRANCH   5   9
ATOM      9  C   UNL     1      47.333   1.435   7.003  0.00  0.00    +0.000 C 
ATOM     10  N   UNL     1      48.427   1.989   6.399  0.00  0.00    +0.000 N 
ATOM     11  O   UNL     1      47.135   0.229   6.957  0.00  0.00    +0.000 OA
ATOM     12  H   UNL     1      48.516   2.974   6.193  0.00  0.00    +0.000 HD
ATOM     13  H   UNL     1      48.997   1.351   5.854  0.00  0.00    +0.000 HD
ENDBRANCH   5   9
BRANCH   1  14
ATOM     14  C   UNL     1      43.646   4.381  11.140  0.00  0.00    +0.000 C 
BRANCH  14  18
ATOM     15  C   UNL     1      47.000   5.976  13.373  0.00  0.00    +0.000 A 
ATOM     16  C   UNL     1      46.571   4.656  13.571  0.00  0.00    +0.000 A 
ATOM     17  C   UNL     1      45.483   4.146  12.860  0.00  0.00    +0.000 A 
ATOM     18  C   UNL     1      44.796   4.947  11.939  0.00  0.00    +0.000 A 
ATOM     19  C   UNL     1      45.228   6.264  11.732  0.00  0.00    +0.000 A 
ATOM     20  C   UNL     1      46.319   6.773  12.443  0.00  0.00    +0.000 A 
BRANCH  15  21
ATOM     21  C   UNL     1      48.146   6.541  14.172  0.00  0.00    +0.000 C 
BRANCH  21  22
ATOM     22  N   UNL     1      49.360   6.662  13.373  0.00  0.00    +0.000 NA
ATOM     23  H   UNL     1      49.777   7.576  13.539  0.00  0.00    +0.000 HD
ATOM     24  H   UNL     1      49.106   6.634  12.386  0.00  0.00    +0.000 HD
ENDBRANCH  21  22
ENDBRANCH  15  21
ENDBRANCH  14  18
ENDBRANCH   1  14
TORSDOF 5
ENDMDL
MODEL 2
REMARK VINA RESULT:    -8.034      2.762      6.362
REMARK INTER + INTRA:         -10.549
REMARK INTER:                 -10.129
REMARK INTRA:                  -0.420
REMARK UNBOUND:                -0.401
REMARK  Name = 
REMARK  5 active torsions:
REMARK  status: ('A' for Active; 'I' for Inactive)
REMARK    1  A    between atoms: N_1  and  C_2
REMARK    2  A    between atoms: C_2  and  C_3
REMARK    3  A    between atoms: C_6  and  C_7
REMARK    4  A    between atoms: C_7  and  N_8
REMARK    5  A    between atoms: C_12  and  C_13
REMARK                            x       y       z     vdW  Elec       q    Type
REMARK                         _______ _______ _______ _____ _____    ______ ____
ROOT
ATOM      1  N   UNL     1      44.325   2.767  11.715  0.00  0.00    +0.000 N 
ATOM      2  C   UNL     1      45.170   3.651  12.369  0.00  0.00    +0.000 A 
ATOM      3  N   UNL     1      44.985   4.972  12.228  0.00  0.00    +0.000 NA
ATOM      4  C   UNL     1      45.852   5.794  12.857  0.00  0.00    +0.000 A 
ATOM      5  C   UNL     1      46.888   5.348  13.638  0.00  0.00    +0.000 A 
ATOM      6  C   UNL     1      47.002   3.980  13.722  0.00  0.00    +0.000 A 
ATOM      7  N   UNL     1      46.162   3.117  13.099  0.00  0.00    +0.000 NA
ATOM      8  H   UNL     1      44.802   1.877  11.643  0.00  0.00    +0.000 HD
ENDROOT
BRANCH   5   9
ATOM      9  C   UNL     1      47.796   6.314  14.269  0.00  0.00    +0.000 C 
ATOM     10  N   UNL     1      47.448   7.635  14.248  0.00  0.00    +0.000 N 
ATOM     11  O   UNL     1      48.849   5.951  14.774  0.00  0.00    +0.000 OA
ATOM     12  H   UNL     1      46.733   8.018  13.645  0.00  0.00    +0.000 HD
ATOM     13  H   UNL     1      48.150   8.279  14.596  0.00  0.00    +0.000 HD
ENDBRANCH   5   9
BRANCH   1  14
ATOM     14  C   UNL     1      43.816   3.301  10.465  0.00  0.00    +0.000 C 
BRANCH  14  18
ATOM     15  C   UNL     1      46.543   2.531   7.186  0.00  0.00    +0.000 A 
ATOM     16  C   UNL     1      46.149   1.498   8.048  0.00  0.00    +0.000 A 
ATOM     17  C   UNL     1      45.280   1.749   9.111  0.00  0.00    +0.000 A 
ATOM     18  C   UNL     1      44.789   3.040   9.340  0.00  0.00    +0.000 A 
ATOM     19  C   UNL     1      45.174   4.073   8.475  0.00  0.00    +0.000 A 
ATOM     20  C   UNL     1      46.043   3.821   7.410  0.00  0.00    +0.000 A 
BRANCH  15  21
ATOM     21  C   UNL     1      47.515   2.270   6.065  0.00  0.00    +0.000 C 
BRANCH  21  22
ATOM     22  N   UNL     1      48.881   2.626   6.432  0.00  0.00    +0.000 NA
ATOM     23  H   UNL     1      49.500   1.854   6.195  0.00  0.00    +0.000 HD
ATOM     24  H   UNL     1      48.929   2.736   7.444  0.00  0.00    +0.000 HD
ENDBRANCH  21  22
ENDBRANCH  15  21
ENDBRANCH  14  18
ENDBRANCH   1  14
TORSDOF 5
ENDMDL
MODEL 3
REMARK VINA RESULT:    -7.830      2.982      6.606
REMARK INTER + INTRA:         -10.291
REMARK INTER:                  -9.950
REMARK INTRA:                  -0.342
REMARK UNBOUND:                -0.401
REMARK  Name = 
REMARK  5 active torsions:
REMARK  status: ('A' for Active; 'I' for Inactive)
REMARK    1  A    between atoms: N_1  and  C_2
REMARK    2  A    between atoms: C_2  and  C_3
REMARK    3  A    between atoms: C_6  and  C_7
REMARK    4  A    between atoms: C_7  and  N_8
REMARK    5  A    between atoms: C_12  and  C_13
REMARK                            x       y       z     vdW  Elec       q    Type
REMARK                         _______ _______ _______ _____ _____    ______ ____
ROOT
ATOM      1  N   UNL     1      44.903   3.074  11.623  0.00  0.00    +0.000 N 
ATOM      2  C   UNL     1      45.067   4.413  11.943  0.00  0.00    +0.000 A 
ATOM      3  N   UNL     1      44.110   5.295  11.616  0.00  0.00    +0.000 NA
ATOM      4  C   UNL     1      44.328   6.592  11.918  0.00  0.00    +0.000 A 
ATOM      5  C   UNL     1      45.459   7.043  12.551  0.00  0.00    +0.000 A 
ATOM      6  C   UNL     1      46.385   6.070  12.844  0.00  0.00    +0.000 A 
ATOM      7  N   UNL     1      46.214   4.757  12.550  0.00  0.00    +0.000 NA
ATOM      8  H   UNL     1      45.819   2.642  11.614  0.00  0.00    +0.000 HD
ENDROOT
BRANCH   5   9
ATOM      9  C   UNL     1      45.622   8.476  12.822  0.00  0.00    +0.000 C 
ATOM     10  N   UNL     1      46.458   8.851  13.837  0.00  0.00    +0.000 N 
ATOM     11  O   UNL     1      45.005   9.313  12.178  0.00  0.00    +0.000 OA
ATOM     12  H   UNL     1      46.795   8.218  14.549  0.00  0.00    +0.000 HD
ATOM     13  H   UNL     1      46.458   9.840  14.063  0.00  0.00    +0.000 HD
ENDBRANCH   5   9
BRANCH   1  14
ATOM     14  C   UNL     1      44.113   2.878  10.421  0.00  0.00    +0.000 C 
BRANCH  14  18
ATOM     15  C   UNL     1      46.596   2.783   6.870  0.00  0.00    +0.000 A 
ATOM     16  C   UNL     1      46.391   1.624   7.631  0.00  0.00    +0.000 A 
ATOM     17  C   UNL     1      45.600   1.657   8.781  0.00  0.00    +0.000 A 
ATOM     18  C   UNL     1      45.002   2.853   9.200  0.00  0.00    +0.000 A 
ATOM     19  C   UNL     1      45.198   4.011   8.435  0.00  0.00    +0.000 A 
ATOM     20  C   UNL     1      45.988   3.976   7.283  0.00  0.00    +0.000 A 
BRANCH  15  21
ATOM     21  C   UNL     1      47.484   2.757   5.652  0.00  0.00    +0.000 C 
BRANCH  21  22
ATOM     22  N   UNL     1      48.546   1.766   5.773  0.00  0.00    +0.000 NA
ATOM     23  H   UNL     1      49.184   2.052   6.514  0.00  0.00    +0.000 HD
ATOM     24  H   UNL     1      49.088   1.761   4.910  0.00  0.00    +0.000 HD
ENDBRANCH  21  22
ENDBRANCH  15  21
ENDBRANCH  14  18
ENDBRANCH   1  14
TORSDOF 5
ENDMDL
MODEL 4
REMARK VINA RESULT:    -6.357      3.865      7.355
REMARK INTER + INTRA:          -8.431
REMARK INTER:                  -8.114
REMARK INTRA:                  -0.317
REMARK UNBOUND:                -0.401
REMARK  Name = 
REMARK  5 active torsions:
REMARK  status: ('A' for Active; 'I' for Inactive)
REMARK    1  A    between atoms: N_1  and  C_2
REMARK    2  A    between atoms: C_2  and  C_3
REMARK    3  A    between atoms: C_6  and  C_7
REMARK    4  A    between atoms: C_7  and  N_8
REMARK    5  A    between atoms: C_12  and  C_13
REMARK                            x       y       z     vdW  Elec       q    Type
REMARK                         _______ _______ _______ _____ _____    ______ ____
ROOT
ATOM      1  N   UNL     1      46.516   5.650  13.636  0.00  0.00    +0.000 N 
ATOM      2  C   UNL     1      47.193   5.037  14.680  0.00  0.00    +0.000 A 
ATOM      3  N   UNL     1      47.097   3.710  14.844  0.00  0.00    +0.000 NA
ATOM      4  C   UNL     1      47.747   3.162  15.893  0.00  0.00    +0.000 A 
ATOM      5  C   UNL     1      48.505   3.888  16.777  0.00  0.00    +0.000 A 
ATOM      6  C   UNL     1      48.542   5.241  16.532  0.00  0.00    +0.000 A 
ATOM      7  N   UNL     1      47.897   5.835  15.499  0.00  0.00    +0.000 NA
ATOM      8  H   UNL     1      46.410   6.630  13.867  0.00  0.00    +0.000 HD
ENDROOT
BRANCH   5   9
ATOM      9  C   UNL     1      49.161   3.212  17.903  0.00  0.00    +0.000 C 
ATOM     10  N   UNL     1      48.518   3.193  19.108  0.00  0.00    +0.000 N 
ATOM     11  O   UNL     1      50.267   2.704  17.774  0.00  0.00    +0.000 OA
ATOM     12  H   UNL     1      47.738   3.793  19.338  0.00  0.00    +0.000 HD
ATOM     13  H   UNL     1      49.050   2.814  19.884  0.00  0.00    +0.000 HD
ENDBRANCH   5   9
BRANCH   1  14
ATOM     14  C   UNL     1      45.287   4.960  13.285  0.00  0.00    +0.000 C 
BRANCH  14  18
ATOM     15  C   UNL     1      45.337   3.930   9.075  0.00  0.00    +0.000 A 
ATOM     16  C   UNL     1      45.694   5.218   9.502  0.00  0.00    +0.000 A 
ATOM     17  C   UNL     1      45.667   5.552  10.857  0.00  0.00    +0.000 A 
ATOM     18  C   UNL     1      45.276   4.609  11.816  0.00  0.00    +0.000 A 
ATOM     19  C   UNL     1      44.928   3.319  11.393  0.00  0.00    +0.000 A 
ATOM     20  C   UNL     1      44.957   2.984  10.036  0.00  0.00    +0.000 A 
BRANCH  15  21
ATOM     21  C   UNL     1      45.325   3.581   7.609  0.00  0.00    +0.000 C 
BRANCH  21  22
ATOM     22  N   UNL     1      46.503   4.092   6.917  0.00  0.00    +0.000 NA
ATOM     23  H   UNL     1      47.233   3.383   6.939  0.00  0.00    +0.000 HD
ATOM     24  H   UNL     1      46.863   4.894   7.433  0.00  0.00    +0.000 HD
ENDBRANCH  21  22
ENDBRANCH  15  21
ENDBRANCH  14  18
ENDBRANCH   1  14
TORSDOF 5
ENDMDL
MODEL 5
REMARK VINA RESULT:    -6.206      4.901      8.040
REMARK INTER + INTRA:          -8.240
REMARK INTER:                  -7.962
REMARK INTRA:                  -0.277
REMARK UNBOUND:                -0.401
REMARK  Name = 
REMARK  5 active torsions:
REMARK  status: ('A' for Active; 'I' for Inactive)
REMARK    1  A    between atoms: N_1  and  C_2
REMARK    2  A    between atoms: C_2  and  C_3
REMARK    3  A    between atoms: C_6  and  C_7
REMARK    4  A    between atoms: C_7  and  N_8
REMARK    5  A    between atoms: C_12  and  C_13
REMARK                            x       y       z     vdW  Elec       q    Type
REMARK                         _______ _______ _______ _____ _____    ______ ____
ROOT
ATOM      1  N   UNL     1      47.251   3.383  15.536  0.00  0.00    +0.000 N 
ATOM      2  C   UNL     1      48.456   3.251  16.210  0.00  0.00    +0.000 A 
ATOM      3  N   UNL     1      48.993   4.317  16.822  0.00  0.00    +0.000 NA
ATOM      4  C   UNL     1      50.183   4.149  17.437  0.00  0.00    +0.000 A 
ATOM      5  C   UNL     1      50.851   2.951  17.481  0.00  0.00    +0.000 A 
ATOM      6  C   UNL     1      50.226   1.917  16.824  0.00  0.00    +0.000 A 
ATOM      7  N   UNL     1      49.038   2.042  16.183  0.00  0.00    +0.000 NA
ATOM      8  H   UNL     1      47.183   2.624  14.869  0.00  0.00    +0.000 HD
ENDROOT
BRANCH   5   9
ATOM      9  C   UNL     1      52.151   2.864  18.156  0.00  0.00    +0.000 C 
ATOM     10  N   UNL     1      52.654   1.623  18.431  0.00  0.00    +0.000 N 
ATOM     11  O   UNL     1      52.755   3.874  18.489  0.00  0.00    +0.000 OA
ATOM     12  H   UNL     1      52.104   0.776  18.405  0.00  0.00    +0.000 HD
ATOM     13  H   UNL     1      53.499   1.607  18.992  0.00  0.00    +0.000 HD
ENDBRANCH   5   9
BRANCH   1  14
ATOM     14  C   UNL     1      47.062   4.712  14.982  0.00  0.00    +0.000 C 
BRANCH  14  18
ATOM     15  C   UNL     1      44.953   4.494  11.203  0.00  0.00    +0.000 A 
ATOM     16  C   UNL     1      45.336   3.326  11.877  0.00  0.00    +0.000 A 
ATOM     17  C   UNL     1      46.025   3.397  13.089  0.00  0.00    +0.000 A 
ATOM     18  C   UNL     1      46.353   4.638  13.651  0.00  0.00    +0.000 A 
ATOM     19  C   UNL     1      45.963   5.806  12.983  0.00  0.00    +0.000 A 
ATOM     20  C   UNL     1      45.272   5.735  11.771  0.00  0.00    +0.000 A 
BRANCH  15  21
ATOM     21  C   UNL     1      44.247   4.419   9.874  0.00  0.00    +0.000 C 
BRANCH  21  22
ATOM     22  N   UNL     1      45.114   4.818   8.771  0.00  0.00    +0.000 NA
ATOM     23  H   UNL     1      45.009   5.819   8.613  0.00  0.00    +0.000 HD
ATOM     24  H   UNL     1      44.796   4.355   7.921  0.00  0.00    +0.000 HD
ENDBRANCH  21  22
ENDBRANCH  15  21
ENDBRANCH  14  18
ENDBRANCH   1  14
TORSDOF 5
ENDMDL
MODEL 6
REMARK VINA RESULT:    -6.037      4.245      6.326
REMARK INTER + INTRA:          -8.026
REMARK INTER:                  -7.760
REMARK INTRA:                  -0.266
REMARK UNBOUND:                -0.401
REMARK  Name = 
REMARK  5 active torsions:
REMARK  status: ('A' for Active; 'I' for Inactive)
REMARK    1  A    between atoms: N_1  and  C_2
REMARK    2  A    between atoms: C_2  and  C_3
REMARK    3  A    between atoms: C_6  and  C_7
REMARK    4  A    between atoms: C_7  and  N_8
REMARK    5  A    between atoms: C_12  and  C_13
REMARK                            x       y       z     vdW  Elec       q    Type
REMARK                         _______ _______ _______ _____ _____    ______ ____
ROOT
ATOM      1  N   UNL     1      47.261   3.273  14.638  0.00  0.00    +0.000 N 
ATOM      2  C   UNL     1      46.394   3.813  13.700  0.00  0.00    +0.000 A 
ATOM      3  N   UNL     1      46.149   5.132  13.706  0.00  0.00    +0.000 NA
ATOM      4  C   UNL     1      45.273   5.608  12.797  0.00  0.00    +0.000 A 
ATOM      5  C   UNL     1      44.643   4.819  11.867  0.00  0.00    +0.000 A 
ATOM      6  C   UNL     1      44.952   3.482  11.938  0.00  0.00    +0.000 A 
ATOM      7  N   UNL     1      45.816   2.958  12.842  0.00  0.00    +0.000 NA
ATOM      8  H   UNL     1      47.057   2.284  14.716  0.00  0.00    +0.000 HD
ENDROOT
BRANCH   5   9
ATOM      9  C   UNL     1      43.688   5.420  10.927  0.00  0.00    +0.000 C 
ATOM     10  N   UNL     1      43.072   6.584  11.289  0.00  0.00    +0.000 N 
ATOM     11  O   UNL     1      43.429   4.878   9.862  0.00  0.00    +0.000 OA
ATOM     12  H   UNL     1      43.056   6.941  12.235  0.00  0.00    +0.000 HD
ATOM     13  H   UNL     1      42.342   6.907  10.664  0.00  0.00    +0.000 HD
ENDBRANCH   5   9
BRANCH   1  14
ATOM     14  C   UNL     1      47.260   4.007  15.890  0.00  0.00    +0.000 C 
BRANCH  14  18
ATOM     15  C   UNL     1      51.067   3.669  17.933  0.00  0.00    +0.000 A 
ATOM     16  C   UNL     1      50.459   4.920  17.755  0.00  0.00    +0.000 A 
ATOM     17  C   UNL     1      49.238   5.029  17.086  0.00  0.00    +0.000 A 
ATOM     18  C   UNL     1      48.601   3.891  16.576  0.00  0.00    +0.000 A 
ATOM     19  C   UNL     1      49.202   2.639  16.761  0.00  0.00    +0.000 A 
ATOM     20  C   UNL     1      50.423   2.530  17.432  0.00  0.00    +0.000 A 
BRANCH  15  21
ATOM     21  C   UNL     1      52.405   3.555  18.616  0.00  0.00    +0.000 C 
BRANCH  21  22
ATOM     22  N   UNL     1      52.817   2.166  18.781  0.00  0.00    +0.000 NA
ATOM     23  H   UNL     1      52.884   1.729  17.863  0.00  0.00    +0.000 HD
ATOM     24  H   UNL     1      52.087   1.666  19.287  0.00  0.00    +0.000 HD
ENDBRANCH  21  22
ENDBRANCH  15  21
ENDBRANCH  14  18
ENDBRANCH   1  14
TORSDOF 5
ENDMDL
MODEL 7
REMARK VINA RESULT:    -5.853      5.087      7.339
REMARK INTER + INTRA:          -7.794
REMARK INTER:                  -7.481
REMARK INTRA:                  -0.313
REMARK UNBOUND:                -0.401
REMARK  Name = 
REMARK  5 active torsions:
REMARK  status: ('A' for Active; 'I' for Inactive)
REMARK    1  A    between atoms: N_1  and  C_2
REMARK    2  A    between atoms: C_2  and  C_3
REMARK    3  A    between atoms: C_6  and  C_7
REMARK    4  A    between atoms: C_7  and  N_8
REMARK    5  A    between atoms: C_12  and  C_13
REMARK                            x       y       z     vdW  Elec       q    Type
REMARK                         _______ _______ _______ _____ _____    ______ ____
ROOT
ATOM      1  N   UNL     1      47.450   3.490  15.816  0.00  0.00    +0.000 N 
ATOM      2  C   UNL     1      47.061   4.346  14.796  0.00  0.00    +0.000 A 
ATOM      3  N   UNL     1      47.781   5.450  14.546  0.00  0.00    +0.000 NA
ATOM      4  C   UNL     1      47.345   6.270  13.567  0.00  0.00    +0.000 A 
ATOM      5  C   UNL     1      46.225   6.022  12.813  0.00  0.00    +0.000 A 
ATOM      6  C   UNL     1      45.550   4.871  13.142  0.00  0.00    +0.000 A 
ATOM      7  N   UNL     1      45.943   4.024  14.125  0.00  0.00    +0.000 NA
ATOM      8  H   UNL     1      46.642   2.942  16.087  0.00  0.00    +0.000 HD
ENDROOT
BRANCH   5   9
ATOM      9  C   UNL     1      45.813   6.980  11.780  0.00  0.00    +0.000 C 
ATOM     10  N   UNL     1      45.132   6.507  10.694  0.00  0.00    +0.000 N 
ATOM     11  O   UNL     1      46.097   8.167  11.874  0.00  0.00    +0.000 OA
ATOM     12  H   UNL     1      45.086   5.529  10.443  0.00  0.00    +0.000 HD
ATOM     13  H   UNL     1      44.962   7.180   9.955  0.00  0.00    +0.000 HD
ENDBRANCH   5   9
BRANCH   1  14
ATOM     14  C   UNL     1      48.123   4.181  16.901  0.00  0.00    +0.000 C 
BRANCH  14  18
ATOM     15  C   UNL     1      51.966   2.376  17.766  0.00  0.00    +0.000 A 
ATOM     16  C   UNL     1      51.751   3.743  17.990  0.00  0.00    +0.000 A 
ATOM     17  C   UNL     1      50.516   4.326  17.700  0.00  0.00    +0.000 A 
ATOM     18  C   UNL     1      49.470   3.557  17.174  0.00  0.00    +0.000 A 
ATOM     19  C   UNL     1      49.680   2.189  16.958  0.00  0.00    +0.000 A 
ATOM     20  C   UNL     1      50.916   1.604  17.250  0.00  0.00    +0.000 A 
BRANCH  15  21
ATOM     21  C   UNL     1      53.312   1.754  18.038  0.00  0.00    +0.000 C 
BRANCH  21  22
ATOM     22  N   UNL     1      53.199   0.347  18.403  0.00  0.00    +0.000 NA
ATOM     23  H   UNL     1      54.096  -0.108  18.248  0.00  0.00    +0.000 HD
ATOM     24  H   UNL     1      52.534  -0.101  17.774  0.00  0.00    +0.000 HD
ENDBRANCH  21  22
ENDBRANCH  15  21
ENDBRANCH  14  18
ENDBRANCH   1  14
TORSDOF 5
ENDMDL
MODEL 8
REMARK VINA RESULT:    -5.847      3.838      5.493
REMARK INTER + INTRA:          -7.786
REMARK INTER:                  -7.530
REMARK INTRA:                  -0.257
REMARK UNBOUND:                -0.401
REMARK  Name = 
REMARK  5 active torsions:
REMARK  status: ('A' for Active; 'I' for Inactive)
REMARK    1  A    between atoms: N_1  and  C_2
REMARK    2  A    between atoms: C_2  and  C_3
REMARK    3  A    between atoms: C_6  and  C_7
REMARK    4  A    between atoms: C_7  and  N_8
REMARK    5  A    between atoms: C_12  and  C_13
REMARK                            x       y       z     vdW  Elec       q    Type
REMARK                         _______ _______ _______ _____ _____    ______ ____
ROOT
ATOM      1  N   UNL     1      46.682   5.106  14.614  0.00  0.00    +0.000 N 
ATOM      2  C   UNL     1      46.068   4.752  13.422  0.00  0.00    +0.000 A 
ATOM      3  N   UNL     1      45.443   3.569  13.325  0.00  0.00    +0.000 NA
ATOM      4  C   UNL     1      44.888   3.253  12.135  0.00  0.00    +0.000 A 
ATOM      5  C   UNL     1      44.918   4.082  11.041  0.00  0.00    +0.000 A 
ATOM      6  C   UNL     1      45.583   5.269  11.234  0.00  0.00    +0.000 A 
ATOM      7  N   UNL     1      46.165   5.623  12.406  0.00  0.00    +0.000 NA
ATOM      8  H   UNL     1      47.372   5.818  14.409  0.00  0.00    +0.000 HD
ENDROOT
BRANCH   5   9
ATOM      9  C   UNL     1      44.306   3.648   9.780  0.00  0.00    +0.000 C 
ATOM     10  N   UNL     1      44.025   4.598   8.838  0.00  0.00    +0.000 N 
ATOM     11  O   UNL     1      44.028   2.472   9.587  0.00  0.00    +0.000 OA
ATOM     12  H   UNL     1      44.002   5.589   9.030  0.00  0.00    +0.000 HD
ATOM     13  H   UNL     1      43.505   4.273   8.030  0.00  0.00    +0.000 HD
ENDBRANCH   5   9
BRANCH   1  14
ATOM     14  C   UNL     1      47.178   3.957  15.352  0.00  0.00    +0.000 C 
BRANCH  14  18
ATOM     15  C   UNL     1      49.212   5.268  18.946  0.00  0.00    +0.000 A 
ATOM     16  C   UNL     1      49.197   6.073  17.798  0.00  0.00    +0.000 A 
ATOM     17  C   UNL     1      48.551   5.645  16.637  0.00  0.00    +0.000 A 
ATOM     18  C   UNL     1      47.911   4.400  16.595  0.00  0.00    +0.000 A 
ATOM     19  C   UNL     1      47.917   3.598  17.744  0.00  0.00    +0.000 A 
ATOM     20  C   UNL     1      48.562   4.027  18.907  0.00  0.00    +0.000 A 
BRANCH  15  21
ATOM     21  C   UNL     1      49.946   5.710  20.186  0.00  0.00    +0.000 C 
BRANCH  21  22
ATOM     22  N   UNL     1      50.703   4.620  20.791  0.00  0.00    +0.000 NA
ATOM     23  H   UNL     1      51.065   4.020  20.053  0.00  0.00    +0.000 HD
ATOM     24  H   UNL     1      50.066   4.048  21.344  0.00  0.00    +0.000 HD
ENDBRANCH  21  22
ENDBRANCH  15  21
ENDBRANCH  14  18
ENDBRANCH   1  14
TORSDOF 5
ENDMDL
MODEL 9
REMARK VINA RESULT:    -5.297      3.764      7.710
REMARK INTER + INTRA:          -7.092
REMARK INTER:                  -6.760
REMARK INTRA:                  -0.333
REMARK UNBOUND:                -0.401
REMARK  Name = 
REMARK  5 active torsions:
REMARK  status: ('A' for Active; 'I' for Inactive)
REMARK    1  A    between atoms: N_1  and  C_2
REMARK    2  A    between atoms: C_2  and  C_3
REMARK    3  A    between atoms: C_6  and  C_7
REMARK    4  A    between atoms: C_7  and  N_8
REMARK    5  A    between atoms: C_12  and  C_13
REMARK                            x       y       z     vdW  Elec       q    Type
REMARK                         _______ _______ _______ _____ _____    ______ ____
ROOT
ATOM      1  N   UNL     1      47.710   6.470  13.281  0.00  0.00    +0.000 N 
ATOM      2  C   UNL     1      48.218   6.097  14.517  0.00  0.00    +0.000 A 
ATOM      3  N   UNL     1      47.566   5.185  15.253  0.00  0.00    +0.000 NA
ATOM      4  C   UNL     1      48.080   4.878  16.463  0.00  0.00    +0.000 A 
ATOM      5  C   UNL     1      49.232   5.435  16.961  0.00  0.00    +0.000 A 
ATOM      6  C   UNL     1      49.828   6.361  16.138  0.00  0.00    +0.000 A 
ATOM      7  N   UNL     1      49.343   6.709  14.922  0.00  0.00    +0.000 NA
ATOM      8  H   UNL     1      48.102   7.373  13.044  0.00  0.00    +0.000 HD
ENDROOT
BRANCH   5   9
ATOM      9  C   UNL     1      49.707   5.057  18.297  0.00  0.00    +0.000 C 
ATOM     10  N   UNL     1      50.775   5.732  18.818  0.00  0.00    +0.000 N 
ATOM     11  O   UNL     1      49.181   4.143  18.917  0.00  0.00    +0.000 OA
ATOM     12  H   UNL     1      51.394   6.314  18.269  0.00  0.00    +0.000 HD
ATOM     13  H   UNL     1      51.140   5.370  19.692  0.00  0.00    +0.000 HD
ENDBRANCH   5   9
BRANCH   1  14
ATOM     14  C   UNL     1      46.262   6.388  13.223  0.00  0.00    +0.000 C 
BRANCH  14  18
ATOM     15  C   UNL     1      44.931   3.680  10.113  0.00  0.00    +0.000 A 
ATOM     16  C   UNL     1      44.970   3.268  11.452  0.00  0.00    +0.000 A 
ATOM     17  C   UNL     1      45.410   4.137  12.453  0.00  0.00    +0.000 A 
ATOM     18  C   UNL     1      45.826   5.436  12.135  0.00  0.00    +0.000 A 
ATOM     19  C   UNL     1      45.779   5.853  10.798  0.00  0.00    +0.000 A 
ATOM     20  C   UNL     1      45.337   4.983   9.797  0.00  0.00    +0.000 A 
BRANCH  15  21
ATOM     21  C   UNL     1      44.497   2.728   9.027  0.00  0.00    +0.000 C 
BRANCH  21  22
ATOM     22  N   UNL     1      45.249   1.479   9.064  0.00  0.00    +0.000 NA
ATOM     23  H   UNL     1      45.533   1.292  10.024  0.00  0.00    +0.000 HD
ATOM     24  H   UNL     1      46.106   1.598   8.526  0.00  0.00    +0.000 HD
ENDBRANCH  21  22
ENDBRANCH  15  21
ENDBRANCH  14  18
ENDBRANCH   1  14
TORSDOF 5
ENDMDL
